data_str_m3_o1_o18_pcu_sym.86
_audit_creation_date              2020-01-03
_audit_creation_method            'Materials Studio'
_symmetry_space_group_name_H-M    'P1'
_symmetry_Int_Tables_number       1
_symmetry_cell_setting            triclinic
loop_
_symmetry_equiv_pos_as_xyz
  x,y,z
_cell_length_a                    29.5021
_cell_length_b                    32.3030
_cell_length_c                    31.2355
_cell_angle_alpha                 89.9572
_cell_angle_beta                  67.9389
_cell_angle_gamma                 90.9793
loop_
_atom_site_label
_atom_site_type_symbol
_atom_site_fract_x
_atom_site_fract_y
_atom_site_fract_z
_atom_site_U_iso_or_equiv
_atom_site_adp_type
_atom_site_occupancy
O1     O     0.12846   0.22775   0.25000   0.00000  Uiso   1.00
O2     O     0.20488   0.10558   0.24999   0.00000  Uiso   1.00
O3     O     0.20490   0.22774   0.25000   0.00000  Uiso   1.00
O4     O     0.12843   0.10559   0.25000   0.00000  Uiso   1.00
C5     C     0.16756   0.24673   0.24890   0.00000  Uiso   1.00
C6     C     0.16496   0.08667   0.25327   0.00000  Uiso   1.00
O7     O     0.10661   0.16667   0.31612   0.00000  Uiso   1.00
O8     O     0.22672   0.16666   0.18387   0.00000  Uiso   1.00
O9     O     0.18305   0.16666   0.31612   0.00000  Uiso   1.00
O10    O     0.15028   0.16667   0.18388   0.00000  Uiso   1.00
C11    C     0.13618   0.16699   0.33778   0.00000  Uiso   1.00
C12    C     0.19707   0.16728   0.16217   0.00000  Uiso   1.00
Zn13   Zn    0.11562   0.16667   0.25000   0.00000  Uiso   1.00
Zn14   Zn    0.21771   0.16666   0.25000   0.00000  Uiso   1.00
C15    C     0.11711   0.16705   0.38796   0.00000  Uiso   1.00
C16    C     0.21529   0.17275   0.11225   0.00000  Uiso   1.00
C17    C     0.05592   0.14921   0.46236   0.00000  Uiso   1.00
C18    C     0.27581   0.19659   0.03981   0.00000  Uiso   1.00
C19    C     0.07051   0.15140   0.41450   0.00000  Uiso   1.00
C20    C     0.26234   0.18829   0.08683   0.00000  Uiso   1.00
C21    C     0.14838   0.18062   0.40920   0.00000  Uiso   1.00
C22    C     0.18195   0.16659   0.09088   0.00000  Uiso   1.00
C23    C     0.13752   0.17307   0.45594   0.00000  Uiso   1.00
C24    C     0.19265   0.17925   0.04548   0.00000  Uiso   1.00
C25    C     0.08908   0.16020   0.48324   0.00000  Uiso   1.00
C26    C     0.24157   0.19107   0.01878   0.00000  Uiso   1.00
C27    C     0.17304   0.17856   0.47627   0.00000  Uiso   1.00
C28    C     0.15694   0.17712   0.02520   0.00000  Uiso   1.00
C29    C     0.10572   0.17295   0.05192   0.00000  Uiso   1.00
C30    C     0.22440   0.18260   0.44968   0.00000  Uiso   1.00
C31    C     0.07361   0.16068   0.03096   0.00000  Uiso   1.00
C32    C     0.25668   0.19351   0.47111   0.00000  Uiso   1.00
H33    H     0.03554   0.15450   0.05227   0.00000  Uiso   1.00
H34    H     0.29494   0.19930   0.45004   0.00000  Uiso   1.00
H35    H     0.14799   0.15051   0.11002   0.00000  Uiso   1.00
H36    H     0.18103   0.19744   0.38845   0.00000  Uiso   1.00
H37    H     0.28845   0.19379   0.10310   0.00000  Uiso   1.00
H38    H     0.04573   0.14100   0.39834   0.00000  Uiso   1.00
H39    H     0.01919   0.13834   0.48291   0.00000  Uiso   1.00
H40    H     0.31294   0.20691   0.01986   0.00000  Uiso   1.00
C41    C     0.19800   0.31214   0.26856   0.00000  Uiso   1.00
C42    C     0.12693   0.02019   0.24676   0.00000  Uiso   1.00
C43    C     0.19740   0.02153   0.26996   0.00000  Uiso   1.00
C44    C     0.13469   0.31218   0.23534   0.00000  Uiso   1.00
C45    C     0.16234   0.04236   0.25791   0.00000  Uiso   1.00
C46    C     0.16826   0.29100   0.24917   0.00000  Uiso   1.00
C47    C     0.32116   0.14320   0.21916   0.00000  Uiso   1.00
C48    C     0.01206   0.18989   0.28105   0.00000  Uiso   1.00
H49    H     0.31243   0.12452   0.19446   0.00000  Uiso   1.00
H50    H     0.02067   0.20840   0.30594   0.00000  Uiso   1.00
C51    C     0.03582   0.14326   0.21911   0.00000  Uiso   1.00
C52    C     0.29743   0.18981   0.28104   0.00000  Uiso   1.00
H53    H     0.06345   0.12453   0.19444   0.00000  Uiso   1.00
H54    H     0.26953   0.20793   0.30603   0.00000  Uiso   1.00
N55    N     0.04759   0.16668   0.25001   0.00000  Uiso   1.00
N56    N     0.28574   0.16666   0.24999   0.00000  Uiso   1.00
O57    O     0.08553   0.18263   0.09829   0.00000  Uiso   1.00
C58    C     0.07342   0.22498   0.10236   0.00000  Uiso   1.00
H59    H     0.05577   0.23465   0.07804   0.00000  Uiso   1.00
H60    H     0.10695   0.24434   0.09577   0.00000  Uiso   1.00
C61    C     0.03724   0.23312   0.15099   0.00000  Uiso   1.00
H62    H     0.05350   0.22486   0.17655   0.00000  Uiso   1.00
H63    H     0.02774   0.26638   0.15460   0.00000  Uiso   1.00
H64    H     0.00325   0.21442   0.15795   0.00000  Uiso   1.00
O65    O     0.24406   0.17332   0.40313   0.00000  Uiso   1.00
C66    C     0.26501   0.13354   0.39661   0.00000  Uiso   1.00
H67    H     0.29270   0.13066   0.41266   0.00000  Uiso   1.00
H68    H     0.28464   0.12946   0.35894   0.00000  Uiso   1.00
C69    C     0.22643   0.09871   0.41402   0.00000  Uiso   1.00
H70    H     0.19663   0.10343   0.40111   0.00000  Uiso   1.00
H71    H     0.24337   0.06838   0.40168   0.00000  Uiso   1.00
H72    H     0.21071   0.09777   0.45235   0.00000  Uiso   1.00
O73    O     0.22831   0.29149   0.28588   0.00000  Uiso   1.00
C74    C     0.20424   0.28634   0.33429   0.00000  Uiso   1.00
H75    H     0.18763   0.25480   0.34141   0.00000  Uiso   1.00
H76    H     0.17452   0.30892   0.35083   0.00000  Uiso   1.00
C77    C     0.24125   0.29118   0.35735   0.00000  Uiso   1.00
H78    H     0.25531   0.32363   0.35359   0.00000  Uiso   1.00
H79    H     0.22348   0.28347   0.39470   0.00000  Uiso   1.00
H80    H     0.27255   0.27037   0.34140   0.00000  Uiso   1.00
O81    O     0.08447   0.03863   0.24799   0.00000  Uiso   1.00
C82    C     0.04643   0.02921   0.29121   0.00000  Uiso   1.00
H83    H     0.05799   0.01156   0.31614   0.00000  Uiso   1.00
H84    H     0.01801   0.00994   0.28509   0.00000  Uiso   1.00
C85    C     0.02296   0.06878   0.31484   0.00000  Uiso   1.00
H86    H     0.00816   0.08615   0.29253   0.00000  Uiso   1.00
H87    H     0.32590   0.06075   0.34779   0.00000  Uiso   1.00
H88    H     0.05002   0.08846   0.32268   0.00000  Uiso   1.00
N89    N     0.23035   0.04294   0.28672   0.00000  Uiso   1.00
O90    O     0.21336   0.06586   0.32333   0.00000  Uiso   1.00
O91    O     0.27717   0.03713   0.26736   0.00000  Uiso   1.00
N92    N     0.11091   0.29264   0.20769   0.00000  Uiso   1.00
O93    O     0.13660   0.27130   0.17166   0.00000  Uiso   1.00
O94    O     0.06541   0.29979   0.21486   0.00000  Uiso   1.00
O95    O     0.46179   0.22775   0.25000   0.00000  Uiso   1.00
O96    O     0.53821   0.10558   0.24999   0.00000  Uiso   1.00
O97    O     0.53823   0.22774   0.25000   0.00000  Uiso   1.00
O98    O     0.46177   0.10559   0.25000   0.00000  Uiso   1.00
C99    C     0.50089   0.24673   0.24890   0.00000  Uiso   1.00
C100   C     0.49829   0.08667   0.25327   0.00000  Uiso   1.00
O101   O     0.43994   0.16667   0.31612   0.00000  Uiso   1.00
O102   O     0.56006   0.16666   0.18387   0.00000  Uiso   1.00
O103   O     0.51639   0.16666   0.31612   0.00000  Uiso   1.00
O104   O     0.48361   0.16667   0.18388   0.00000  Uiso   1.00
C105   C     0.46951   0.16699   0.33778   0.00000  Uiso   1.00
C106   C     0.53040   0.16728   0.16217   0.00000  Uiso   1.00
Zn107  Zn    0.44896   0.16667   0.25000   0.00000  Uiso   1.00
Zn108  Zn    0.55104   0.16666   0.25000   0.00000  Uiso   1.00
C109   C     0.45045   0.16705   0.38796   0.00000  Uiso   1.00
C110   C     0.54862   0.17275   0.11225   0.00000  Uiso   1.00
C111   C     0.38926   0.14921   0.46236   0.00000  Uiso   1.00
C112   C     0.60914   0.19659   0.03981   0.00000  Uiso   1.00
C113   C     0.40384   0.15140   0.41450   0.00000  Uiso   1.00
C114   C     0.59567   0.18829   0.08683   0.00000  Uiso   1.00
C115   C     0.48171   0.18062   0.40920   0.00000  Uiso   1.00
C116   C     0.51528   0.16659   0.09088   0.00000  Uiso   1.00
C117   C     0.47085   0.17307   0.45594   0.00000  Uiso   1.00
C118   C     0.52598   0.17925   0.04548   0.00000  Uiso   1.00
C119   C     0.42241   0.16020   0.48324   0.00000  Uiso   1.00
C120   C     0.57491   0.19107   0.01878   0.00000  Uiso   1.00
C121   C     0.50638   0.17856   0.47627   0.00000  Uiso   1.00
C122   C     0.49027   0.17712   0.02520   0.00000  Uiso   1.00
C123   C     0.43906   0.17295   0.05192   0.00000  Uiso   1.00
C124   C     0.55773   0.18260   0.44968   0.00000  Uiso   1.00
C125   C     0.40695   0.16068   0.03096   0.00000  Uiso   1.00
C126   C     0.59002   0.19351   0.47111   0.00000  Uiso   1.00
H127   H     0.36887   0.15450   0.05227   0.00000  Uiso   1.00
H128   H     0.62828   0.19930   0.45004   0.00000  Uiso   1.00
H129   H     0.48132   0.15051   0.11002   0.00000  Uiso   1.00
H130   H     0.51436   0.19744   0.38845   0.00000  Uiso   1.00
H131   H     0.62178   0.19379   0.10310   0.00000  Uiso   1.00
H132   H     0.37907   0.14100   0.39834   0.00000  Uiso   1.00
H133   H     0.35252   0.13834   0.48291   0.00000  Uiso   1.00
H134   H     0.64627   0.20691   0.01986   0.00000  Uiso   1.00
C135   C     0.53133   0.31214   0.26856   0.00000  Uiso   1.00
C136   C     0.46026   0.02019   0.24676   0.00000  Uiso   1.00
C137   C     0.53073   0.02153   0.26996   0.00000  Uiso   1.00
C138   C     0.46803   0.31218   0.23534   0.00000  Uiso   1.00
C139   C     0.49568   0.04236   0.25791   0.00000  Uiso   1.00
C140   C     0.50159   0.29100   0.24917   0.00000  Uiso   1.00
C141   C     0.65449   0.14320   0.21916   0.00000  Uiso   1.00
C142   C     0.34540   0.18989   0.28105   0.00000  Uiso   1.00
H143   H     0.64577   0.12452   0.19446   0.00000  Uiso   1.00
H144   H     0.35401   0.20840   0.30594   0.00000  Uiso   1.00
C145   C     0.36916   0.14326   0.21911   0.00000  Uiso   1.00
C146   C     0.63076   0.18981   0.28104   0.00000  Uiso   1.00
H147   H     0.39678   0.12453   0.19444   0.00000  Uiso   1.00
H148   H     0.60287   0.20793   0.30603   0.00000  Uiso   1.00
N149   N     0.38093   0.16668   0.25001   0.00000  Uiso   1.00
N150   N     0.61907   0.16666   0.24999   0.00000  Uiso   1.00
O151   O     0.41886   0.18263   0.09829   0.00000  Uiso   1.00
C152   C     0.40675   0.22498   0.10236   0.00000  Uiso   1.00
H153   H     0.38911   0.23465   0.07804   0.00000  Uiso   1.00
H154   H     0.44029   0.24434   0.09577   0.00000  Uiso   1.00
C155   C     0.37057   0.23312   0.15099   0.00000  Uiso   1.00
H156   H     0.38684   0.22486   0.17655   0.00000  Uiso   1.00
H157   H     0.36107   0.26638   0.15460   0.00000  Uiso   1.00
H158   H     0.33659   0.21442   0.15795   0.00000  Uiso   1.00
O159   O     0.57739   0.17332   0.40313   0.00000  Uiso   1.00
C160   C     0.59835   0.13354   0.39661   0.00000  Uiso   1.00
H161   H     0.62604   0.13066   0.41266   0.00000  Uiso   1.00
H162   H     0.61797   0.12946   0.35894   0.00000  Uiso   1.00
C163   C     0.55976   0.09871   0.41402   0.00000  Uiso   1.00
H164   H     0.52997   0.10343   0.40111   0.00000  Uiso   1.00
H165   H     0.57670   0.06838   0.40168   0.00000  Uiso   1.00
H166   H     0.54404   0.09777   0.45235   0.00000  Uiso   1.00
O167   O     0.56164   0.29149   0.28588   0.00000  Uiso   1.00
C168   C     0.53757   0.28634   0.33429   0.00000  Uiso   1.00
H169   H     0.52097   0.25480   0.34141   0.00000  Uiso   1.00
H170   H     0.50785   0.30892   0.35083   0.00000  Uiso   1.00
C171   C     0.57459   0.29118   0.35735   0.00000  Uiso   1.00
H172   H     0.58864   0.32363   0.35359   0.00000  Uiso   1.00
H173   H     0.55681   0.28347   0.39470   0.00000  Uiso   1.00
H174   H     0.60589   0.27037   0.34140   0.00000  Uiso   1.00
O175   O     0.41780   0.03863   0.24799   0.00000  Uiso   1.00
C176   C     0.37976   0.02921   0.29121   0.00000  Uiso   1.00
H177   H     0.39132   0.01156   0.31614   0.00000  Uiso   1.00
H178   H     0.35134   0.00994   0.28509   0.00000  Uiso   1.00
C179   C     0.35630   0.06878   0.31484   0.00000  Uiso   1.00
H180   H     0.34149   0.08615   0.29253   0.00000  Uiso   1.00
H181   H     0.65924   0.06075   0.34779   0.00000  Uiso   1.00
H182   H     0.38335   0.08846   0.32268   0.00000  Uiso   1.00
N183   N     0.56368   0.04294   0.28672   0.00000  Uiso   1.00
O184   O     0.54670   0.06586   0.32333   0.00000  Uiso   1.00
O185   O     0.61050   0.03713   0.26736   0.00000  Uiso   1.00
N186   N     0.44424   0.29264   0.20769   0.00000  Uiso   1.00
O187   O     0.46993   0.27130   0.17166   0.00000  Uiso   1.00
O188   O     0.39874   0.29979   0.21486   0.00000  Uiso   1.00
O189   O     0.79512   0.22775   0.25000   0.00000  Uiso   1.00
O190   O     0.87154   0.10558   0.24999   0.00000  Uiso   1.00
O191   O     0.87157   0.22774   0.25000   0.00000  Uiso   1.00
O192   O     0.79510   0.10559   0.25000   0.00000  Uiso   1.00
C193   C     0.83422   0.24673   0.24890   0.00000  Uiso   1.00
C194   C     0.83163   0.08667   0.25327   0.00000  Uiso   1.00
O195   O     0.77328   0.16667   0.31612   0.00000  Uiso   1.00
O196   O     0.89339   0.16666   0.18387   0.00000  Uiso   1.00
O197   O     0.84972   0.16666   0.31612   0.00000  Uiso   1.00
O198   O     0.81695   0.16667   0.18388   0.00000  Uiso   1.00
C199   C     0.80284   0.16699   0.33778   0.00000  Uiso   1.00
C200   C     0.86374   0.16728   0.16217   0.00000  Uiso   1.00
Zn201  Zn    0.78229   0.16667   0.25000   0.00000  Uiso   1.00
Zn202  Zn    0.88438   0.16666   0.25000   0.00000  Uiso   1.00
C203   C     0.78378   0.16705   0.38796   0.00000  Uiso   1.00
C204   C     0.88195   0.17275   0.11225   0.00000  Uiso   1.00
C205   C     0.72259   0.14921   0.46236   0.00000  Uiso   1.00
C206   C     0.94248   0.19659   0.03981   0.00000  Uiso   1.00
C207   C     0.73717   0.15140   0.41450   0.00000  Uiso   1.00
C208   C     0.92900   0.18829   0.08683   0.00000  Uiso   1.00
C209   C     0.81505   0.18062   0.40920   0.00000  Uiso   1.00
C210   C     0.84861   0.16659   0.09088   0.00000  Uiso   1.00
C211   C     0.80418   0.17307   0.45594   0.00000  Uiso   1.00
C212   C     0.85931   0.17925   0.04548   0.00000  Uiso   1.00
C213   C     0.75574   0.16020   0.48324   0.00000  Uiso   1.00
C214   C     0.90824   0.19107   0.01878   0.00000  Uiso   1.00
C215   C     0.83971   0.17856   0.47627   0.00000  Uiso   1.00
C216   C     0.82360   0.17712   0.02520   0.00000  Uiso   1.00
C217   C     0.77239   0.17295   0.05192   0.00000  Uiso   1.00
C218   C     0.89107   0.18260   0.44968   0.00000  Uiso   1.00
C219   C     0.74028   0.16068   0.03096   0.00000  Uiso   1.00
C220   C     0.92335   0.19351   0.47111   0.00000  Uiso   1.00
H221   H     0.70220   0.15450   0.05227   0.00000  Uiso   1.00
H222   H     0.96161   0.19930   0.45004   0.00000  Uiso   1.00
H223   H     0.81465   0.15051   0.11002   0.00000  Uiso   1.00
H224   H     0.84769   0.19744   0.38845   0.00000  Uiso   1.00
H225   H     0.95511   0.19379   0.10310   0.00000  Uiso   1.00
H226   H     0.71240   0.14100   0.39834   0.00000  Uiso   1.00
H227   H     0.68585   0.13834   0.48291   0.00000  Uiso   1.00
H228   H     0.97960   0.20691   0.01986   0.00000  Uiso   1.00
C229   C     0.86467   0.31214   0.26856   0.00000  Uiso   1.00
C230   C     0.79359   0.02019   0.24676   0.00000  Uiso   1.00
C231   C     0.86407   0.02153   0.26996   0.00000  Uiso   1.00
C232   C     0.80136   0.31218   0.23534   0.00000  Uiso   1.00
C233   C     0.82901   0.04236   0.25791   0.00000  Uiso   1.00
C234   C     0.83492   0.29100   0.24917   0.00000  Uiso   1.00
C235   C     0.98783   0.14320   0.21916   0.00000  Uiso   1.00
C236   C     0.67873   0.18989   0.28105   0.00000  Uiso   1.00
H237   H     0.97910   0.12452   0.19446   0.00000  Uiso   1.00
H238   H     0.68734   0.20840   0.30594   0.00000  Uiso   1.00
C239   C     0.70249   0.14326   0.21911   0.00000  Uiso   1.00
C240   C     0.96409   0.18981   0.28104   0.00000  Uiso   1.00
H241   H     0.73011   0.12453   0.19444   0.00000  Uiso   1.00
H242   H     0.93620   0.20793   0.30603   0.00000  Uiso   1.00
N243   N     0.71426   0.16668   0.25001   0.00000  Uiso   1.00
N244   N     0.95241   0.16666   0.24999   0.00000  Uiso   1.00
O245   O     0.75219   0.18263   0.09829   0.00000  Uiso   1.00
C246   C     0.74008   0.22498   0.10236   0.00000  Uiso   1.00
H247   H     0.72244   0.23465   0.07804   0.00000  Uiso   1.00
H248   H     0.77362   0.24434   0.09577   0.00000  Uiso   1.00
C249   C     0.70390   0.23312   0.15099   0.00000  Uiso   1.00
H250   H     0.72017   0.22486   0.17655   0.00000  Uiso   1.00
H251   H     0.69441   0.26638   0.15460   0.00000  Uiso   1.00
H252   H     0.66992   0.21442   0.15795   0.00000  Uiso   1.00
O253   O     0.91073   0.17332   0.40313   0.00000  Uiso   1.00
C254   C     0.93168   0.13354   0.39661   0.00000  Uiso   1.00
H255   H     0.95937   0.13066   0.41266   0.00000  Uiso   1.00
H256   H     0.95130   0.12946   0.35894   0.00000  Uiso   1.00
C257   C     0.89310   0.09871   0.41402   0.00000  Uiso   1.00
H258   H     0.86330   0.10343   0.40111   0.00000  Uiso   1.00
H259   H     0.91003   0.06838   0.40168   0.00000  Uiso   1.00
H260   H     0.87738   0.09777   0.45235   0.00000  Uiso   1.00
O261   O     0.89497   0.29149   0.28588   0.00000  Uiso   1.00
C262   C     0.87091   0.28634   0.33429   0.00000  Uiso   1.00
H263   H     0.85430   0.25480   0.34141   0.00000  Uiso   1.00
H264   H     0.84119   0.30892   0.35083   0.00000  Uiso   1.00
C265   C     0.90792   0.29118   0.35735   0.00000  Uiso   1.00
H266   H     0.92198   0.32363   0.35359   0.00000  Uiso   1.00
H267   H     0.89014   0.28347   0.39470   0.00000  Uiso   1.00
H268   H     0.93922   0.27037   0.34140   0.00000  Uiso   1.00
O269   O     0.75113   0.03863   0.24799   0.00000  Uiso   1.00
C270   C     0.71309   0.02921   0.29121   0.00000  Uiso   1.00
H271   H     0.72465   0.01156   0.31614   0.00000  Uiso   1.00
H272   H     0.68467   0.00994   0.28509   0.00000  Uiso   1.00
C273   C     0.68963   0.06878   0.31484   0.00000  Uiso   1.00
H274   H     0.67483   0.08615   0.29253   0.00000  Uiso   1.00
H275   H     0.99257   0.06075   0.34779   0.00000  Uiso   1.00
H276   H     0.71668   0.08846   0.32268   0.00000  Uiso   1.00
N277   N     0.89701   0.04294   0.28672   0.00000  Uiso   1.00
O278   O     0.88003   0.06586   0.32333   0.00000  Uiso   1.00
O279   O     0.94383   0.03713   0.26736   0.00000  Uiso   1.00
N280   N     0.77758   0.29264   0.20769   0.00000  Uiso   1.00
O281   O     0.80327   0.27130   0.17166   0.00000  Uiso   1.00
O282   O     0.73207   0.29979   0.21486   0.00000  Uiso   1.00
O283   O     0.12846   0.56108   0.25000   0.00000  Uiso   1.00
O284   O     0.20488   0.43892   0.24999   0.00000  Uiso   1.00
O285   O     0.20490   0.56107   0.25000   0.00000  Uiso   1.00
O286   O     0.12843   0.43893   0.25000   0.00000  Uiso   1.00
C287   C     0.16756   0.58006   0.24890   0.00000  Uiso   1.00
C288   C     0.16496   0.42000   0.25327   0.00000  Uiso   1.00
O289   O     0.10661   0.50001   0.31612   0.00000  Uiso   1.00
O290   O     0.22672   0.49999   0.18387   0.00000  Uiso   1.00
O291   O     0.18305   0.50000   0.31612   0.00000  Uiso   1.00
O292   O     0.15028   0.50000   0.18388   0.00000  Uiso   1.00
C293   C     0.13618   0.50032   0.33778   0.00000  Uiso   1.00
C294   C     0.19707   0.50061   0.16217   0.00000  Uiso   1.00
Zn295  Zn    0.11562   0.50001   0.25000   0.00000  Uiso   1.00
Zn296  Zn    0.21771   0.49999   0.25000   0.00000  Uiso   1.00
C297   C     0.11711   0.50038   0.38796   0.00000  Uiso   1.00
C298   C     0.21529   0.50609   0.11225   0.00000  Uiso   1.00
C299   C     0.05592   0.48254   0.46236   0.00000  Uiso   1.00
C300   C     0.27581   0.52992   0.03981   0.00000  Uiso   1.00
C301   C     0.07051   0.48474   0.41450   0.00000  Uiso   1.00
C302   C     0.26234   0.52162   0.08683   0.00000  Uiso   1.00
C303   C     0.14838   0.51395   0.40920   0.00000  Uiso   1.00
C304   C     0.18195   0.49993   0.09088   0.00000  Uiso   1.00
C305   C     0.13752   0.50640   0.45594   0.00000  Uiso   1.00
C306   C     0.19265   0.51259   0.04548   0.00000  Uiso   1.00
C307   C     0.08908   0.49353   0.48324   0.00000  Uiso   1.00
C308   C     0.24157   0.52441   0.01878   0.00000  Uiso   1.00
C309   C     0.17304   0.51189   0.47627   0.00000  Uiso   1.00
C310   C     0.15694   0.51045   0.02520   0.00000  Uiso   1.00
C311   C     0.10572   0.50628   0.05192   0.00000  Uiso   1.00
C312   C     0.22440   0.51594   0.44968   0.00000  Uiso   1.00
C313   C     0.07361   0.49402   0.03096   0.00000  Uiso   1.00
C314   C     0.25668   0.52685   0.47111   0.00000  Uiso   1.00
H315   H     0.03554   0.48783   0.05227   0.00000  Uiso   1.00
H316   H     0.29494   0.53263   0.45004   0.00000  Uiso   1.00
H317   H     0.14799   0.48384   0.11002   0.00000  Uiso   1.00
H318   H     0.18103   0.53077   0.38845   0.00000  Uiso   1.00
H319   H     0.28845   0.52712   0.10310   0.00000  Uiso   1.00
H320   H     0.04573   0.47433   0.39834   0.00000  Uiso   1.00
H321   H     0.01919   0.47167   0.48291   0.00000  Uiso   1.00
H322   H     0.31294   0.54024   0.01986   0.00000  Uiso   1.00
C323   C     0.19800   0.64548   0.26856   0.00000  Uiso   1.00
C324   C     0.12693   0.35352   0.24676   0.00000  Uiso   1.00
C325   C     0.19740   0.35486   0.26996   0.00000  Uiso   1.00
C326   C     0.13469   0.64551   0.23534   0.00000  Uiso   1.00
C327   C     0.16234   0.37569   0.25791   0.00000  Uiso   1.00
C328   C     0.16826   0.62433   0.24917   0.00000  Uiso   1.00
C329   C     0.32116   0.47653   0.21916   0.00000  Uiso   1.00
C330   C     0.01206   0.52323   0.28105   0.00000  Uiso   1.00
H331   H     0.31243   0.45786   0.19446   0.00000  Uiso   1.00
H332   H     0.02067   0.54173   0.30594   0.00000  Uiso   1.00
C333   C     0.03582   0.47659   0.21911   0.00000  Uiso   1.00
C334   C     0.29743   0.52314   0.28104   0.00000  Uiso   1.00
H335   H     0.06345   0.45786   0.19444   0.00000  Uiso   1.00
H336   H     0.26953   0.54127   0.30603   0.00000  Uiso   1.00
N337   N     0.04759   0.50001   0.25001   0.00000  Uiso   1.00
N338   N     0.28574   0.49999   0.24999   0.00000  Uiso   1.00
O339   O     0.08553   0.51596   0.09829   0.00000  Uiso   1.00
C340   C     0.07342   0.55831   0.10236   0.00000  Uiso   1.00
H341   H     0.05577   0.56798   0.07804   0.00000  Uiso   1.00
H342   H     0.10695   0.57767   0.09577   0.00000  Uiso   1.00
C343   C     0.03724   0.56645   0.15099   0.00000  Uiso   1.00
H344   H     0.05350   0.55820   0.17655   0.00000  Uiso   1.00
H345   H     0.02774   0.59971   0.15460   0.00000  Uiso   1.00
H346   H     0.00325   0.54775   0.15795   0.00000  Uiso   1.00
O347   O     0.24406   0.50665   0.40313   0.00000  Uiso   1.00
C348   C     0.26501   0.46688   0.39661   0.00000  Uiso   1.00
H349   H     0.29270   0.46400   0.41266   0.00000  Uiso   1.00
H350   H     0.28464   0.46280   0.35894   0.00000  Uiso   1.00
C351   C     0.22643   0.43204   0.41402   0.00000  Uiso   1.00
H352   H     0.19663   0.43677   0.40111   0.00000  Uiso   1.00
H353   H     0.24337   0.40171   0.40168   0.00000  Uiso   1.00
H354   H     0.21071   0.43110   0.45235   0.00000  Uiso   1.00
O355   O     0.22831   0.62483   0.28588   0.00000  Uiso   1.00
C356   C     0.20424   0.61967   0.33429   0.00000  Uiso   1.00
H357   H     0.18763   0.58813   0.34141   0.00000  Uiso   1.00
H358   H     0.17452   0.64225   0.35083   0.00000  Uiso   1.00
C359   C     0.24125   0.62451   0.35735   0.00000  Uiso   1.00
H360   H     0.25531   0.65696   0.35359   0.00000  Uiso   1.00
H361   H     0.22348   0.61680   0.39470   0.00000  Uiso   1.00
H362   H     0.27255   0.60370   0.34140   0.00000  Uiso   1.00
O363   O     0.08447   0.37197   0.24799   0.00000  Uiso   1.00
C364   C     0.04643   0.36254   0.29121   0.00000  Uiso   1.00
H365   H     0.05799   0.34490   0.31614   0.00000  Uiso   1.00
H366   H     0.01801   0.34327   0.28509   0.00000  Uiso   1.00
C367   C     0.02296   0.40211   0.31484   0.00000  Uiso   1.00
H368   H     0.00816   0.41949   0.29253   0.00000  Uiso   1.00
H369   H     0.32590   0.39408   0.34779   0.00000  Uiso   1.00
H370   H     0.05002   0.42180   0.32268   0.00000  Uiso   1.00
N371   N     0.23035   0.37627   0.28672   0.00000  Uiso   1.00
O372   O     0.21336   0.39919   0.32333   0.00000  Uiso   1.00
O373   O     0.27717   0.37047   0.26736   0.00000  Uiso   1.00
N374   N     0.11091   0.62598   0.20769   0.00000  Uiso   1.00
O375   O     0.13660   0.60463   0.17166   0.00000  Uiso   1.00
O376   O     0.06541   0.63312   0.21486   0.00000  Uiso   1.00
O377   O     0.46179   0.56108   0.25000   0.00000  Uiso   1.00
O378   O     0.53821   0.43892   0.24999   0.00000  Uiso   1.00
O379   O     0.53823   0.56107   0.25000   0.00000  Uiso   1.00
O380   O     0.46177   0.43893   0.25000   0.00000  Uiso   1.00
C381   C     0.50089   0.58006   0.24890   0.00000  Uiso   1.00
C382   C     0.49829   0.42000   0.25327   0.00000  Uiso   1.00
O383   O     0.43994   0.50001   0.31612   0.00000  Uiso   1.00
O384   O     0.56006   0.49999   0.18387   0.00000  Uiso   1.00
O385   O     0.51639   0.50000   0.31612   0.00000  Uiso   1.00
O386   O     0.48361   0.50000   0.18388   0.00000  Uiso   1.00
C387   C     0.46951   0.50032   0.33778   0.00000  Uiso   1.00
C388   C     0.53040   0.50061   0.16217   0.00000  Uiso   1.00
Zn389  Zn    0.44896   0.50001   0.25000   0.00000  Uiso   1.00
Zn390  Zn    0.55104   0.49999   0.25000   0.00000  Uiso   1.00
C391   C     0.45045   0.50038   0.38796   0.00000  Uiso   1.00
C392   C     0.54862   0.50609   0.11225   0.00000  Uiso   1.00
C393   C     0.38926   0.48254   0.46236   0.00000  Uiso   1.00
C394   C     0.60914   0.52992   0.03981   0.00000  Uiso   1.00
C395   C     0.40384   0.48474   0.41450   0.00000  Uiso   1.00
C396   C     0.59567   0.52162   0.08683   0.00000  Uiso   1.00
C397   C     0.48171   0.51395   0.40920   0.00000  Uiso   1.00
C398   C     0.51528   0.49993   0.09088   0.00000  Uiso   1.00
C399   C     0.47085   0.50640   0.45594   0.00000  Uiso   1.00
C400   C     0.52598   0.51259   0.04548   0.00000  Uiso   1.00
C401   C     0.42241   0.49353   0.48324   0.00000  Uiso   1.00
C402   C     0.57491   0.52441   0.01878   0.00000  Uiso   1.00
C403   C     0.50638   0.51189   0.47627   0.00000  Uiso   1.00
C404   C     0.49027   0.51045   0.02520   0.00000  Uiso   1.00
C405   C     0.43906   0.50628   0.05192   0.00000  Uiso   1.00
C406   C     0.55773   0.51594   0.44968   0.00000  Uiso   1.00
C407   C     0.40695   0.49402   0.03096   0.00000  Uiso   1.00
C408   C     0.59002   0.52685   0.47111   0.00000  Uiso   1.00
H409   H     0.36887   0.48783   0.05227   0.00000  Uiso   1.00
H410   H     0.62828   0.53263   0.45004   0.00000  Uiso   1.00
H411   H     0.48132   0.48384   0.11002   0.00000  Uiso   1.00
H412   H     0.51436   0.53077   0.38845   0.00000  Uiso   1.00
H413   H     0.62178   0.52712   0.10310   0.00000  Uiso   1.00
H414   H     0.37907   0.47433   0.39834   0.00000  Uiso   1.00
H415   H     0.35252   0.47167   0.48291   0.00000  Uiso   1.00
H416   H     0.64627   0.54024   0.01986   0.00000  Uiso   1.00
C417   C     0.53133   0.64548   0.26856   0.00000  Uiso   1.00
C418   C     0.46026   0.35352   0.24676   0.00000  Uiso   1.00
C419   C     0.53073   0.35486   0.26996   0.00000  Uiso   1.00
C420   C     0.46803   0.64551   0.23534   0.00000  Uiso   1.00
C421   C     0.49568   0.37569   0.25791   0.00000  Uiso   1.00
C422   C     0.50159   0.62433   0.24917   0.00000  Uiso   1.00
C423   C     0.65449   0.47653   0.21916   0.00000  Uiso   1.00
C424   C     0.34540   0.52323   0.28105   0.00000  Uiso   1.00
H425   H     0.64577   0.45786   0.19446   0.00000  Uiso   1.00
H426   H     0.35401   0.54173   0.30594   0.00000  Uiso   1.00
C427   C     0.36916   0.47659   0.21911   0.00000  Uiso   1.00
C428   C     0.63076   0.52314   0.28104   0.00000  Uiso   1.00
H429   H     0.39678   0.45786   0.19444   0.00000  Uiso   1.00
H430   H     0.60287   0.54127   0.30603   0.00000  Uiso   1.00
N431   N     0.38093   0.50001   0.25001   0.00000  Uiso   1.00
N432   N     0.61907   0.49999   0.24999   0.00000  Uiso   1.00
O433   O     0.41886   0.51596   0.09829   0.00000  Uiso   1.00
C434   C     0.40675   0.55831   0.10236   0.00000  Uiso   1.00
H435   H     0.38911   0.56798   0.07804   0.00000  Uiso   1.00
H436   H     0.44029   0.57767   0.09577   0.00000  Uiso   1.00
C437   C     0.37057   0.56645   0.15099   0.00000  Uiso   1.00
H438   H     0.38684   0.55820   0.17655   0.00000  Uiso   1.00
H439   H     0.36107   0.59971   0.15460   0.00000  Uiso   1.00
H440   H     0.33659   0.54775   0.15795   0.00000  Uiso   1.00
O441   O     0.57739   0.50665   0.40313   0.00000  Uiso   1.00
C442   C     0.59835   0.46688   0.39661   0.00000  Uiso   1.00
H443   H     0.62604   0.46400   0.41266   0.00000  Uiso   1.00
H444   H     0.61797   0.46280   0.35894   0.00000  Uiso   1.00
C445   C     0.55976   0.43204   0.41402   0.00000  Uiso   1.00
H446   H     0.52997   0.43677   0.40111   0.00000  Uiso   1.00
H447   H     0.57670   0.40171   0.40168   0.00000  Uiso   1.00
H448   H     0.54404   0.43110   0.45235   0.00000  Uiso   1.00
O449   O     0.56164   0.62483   0.28588   0.00000  Uiso   1.00
C450   C     0.53757   0.61967   0.33429   0.00000  Uiso   1.00
H451   H     0.52097   0.58813   0.34141   0.00000  Uiso   1.00
H452   H     0.50785   0.64225   0.35083   0.00000  Uiso   1.00
C453   C     0.57459   0.62451   0.35735   0.00000  Uiso   1.00
H454   H     0.58864   0.65696   0.35359   0.00000  Uiso   1.00
H455   H     0.55681   0.61680   0.39470   0.00000  Uiso   1.00
H456   H     0.60589   0.60370   0.34140   0.00000  Uiso   1.00
O457   O     0.41780   0.37197   0.24799   0.00000  Uiso   1.00
C458   C     0.37976   0.36254   0.29121   0.00000  Uiso   1.00
H459   H     0.39132   0.34490   0.31614   0.00000  Uiso   1.00
H460   H     0.35134   0.34327   0.28509   0.00000  Uiso   1.00
C461   C     0.35630   0.40211   0.31484   0.00000  Uiso   1.00
H462   H     0.34149   0.41949   0.29253   0.00000  Uiso   1.00
H463   H     0.65924   0.39408   0.34779   0.00000  Uiso   1.00
H464   H     0.38335   0.42180   0.32268   0.00000  Uiso   1.00
N465   N     0.56368   0.37627   0.28672   0.00000  Uiso   1.00
O466   O     0.54670   0.39919   0.32333   0.00000  Uiso   1.00
O467   O     0.61050   0.37047   0.26736   0.00000  Uiso   1.00
N468   N     0.44424   0.62598   0.20769   0.00000  Uiso   1.00
O469   O     0.46993   0.60463   0.17166   0.00000  Uiso   1.00
O470   O     0.39874   0.63312   0.21486   0.00000  Uiso   1.00
O471   O     0.79512   0.56108   0.25000   0.00000  Uiso   1.00
O472   O     0.87154   0.43892   0.24999   0.00000  Uiso   1.00
O473   O     0.87157   0.56107   0.25000   0.00000  Uiso   1.00
O474   O     0.79510   0.43893   0.25000   0.00000  Uiso   1.00
C475   C     0.83422   0.58006   0.24890   0.00000  Uiso   1.00
C476   C     0.83163   0.42000   0.25327   0.00000  Uiso   1.00
O477   O     0.77328   0.50001   0.31612   0.00000  Uiso   1.00
O478   O     0.89339   0.49999   0.18387   0.00000  Uiso   1.00
O479   O     0.84972   0.50000   0.31612   0.00000  Uiso   1.00
O480   O     0.81695   0.50000   0.18388   0.00000  Uiso   1.00
C481   C     0.80284   0.50032   0.33778   0.00000  Uiso   1.00
C482   C     0.86374   0.50061   0.16217   0.00000  Uiso   1.00
Zn483  Zn    0.78229   0.50001   0.25000   0.00000  Uiso   1.00
Zn484  Zn    0.88438   0.49999   0.25000   0.00000  Uiso   1.00
C485   C     0.78378   0.50038   0.38796   0.00000  Uiso   1.00
C486   C     0.88195   0.50609   0.11225   0.00000  Uiso   1.00
C487   C     0.72259   0.48254   0.46236   0.00000  Uiso   1.00
C488   C     0.94248   0.52992   0.03981   0.00000  Uiso   1.00
C489   C     0.73717   0.48474   0.41450   0.00000  Uiso   1.00
C490   C     0.92900   0.52162   0.08683   0.00000  Uiso   1.00
C491   C     0.81505   0.51395   0.40920   0.00000  Uiso   1.00
C492   C     0.84861   0.49993   0.09088   0.00000  Uiso   1.00
C493   C     0.80418   0.50640   0.45594   0.00000  Uiso   1.00
C494   C     0.85931   0.51259   0.04548   0.00000  Uiso   1.00
C495   C     0.75574   0.49353   0.48324   0.00000  Uiso   1.00
C496   C     0.90824   0.52441   0.01878   0.00000  Uiso   1.00
C497   C     0.83971   0.51189   0.47627   0.00000  Uiso   1.00
C498   C     0.82360   0.51045   0.02520   0.00000  Uiso   1.00
C499   C     0.77239   0.50628   0.05192   0.00000  Uiso   1.00
C500   C     0.89107   0.51594   0.44968   0.00000  Uiso   1.00
C501   C     0.74028   0.49402   0.03096   0.00000  Uiso   1.00
C502   C     0.92335   0.52685   0.47111   0.00000  Uiso   1.00
H503   H     0.70220   0.48783   0.05227   0.00000  Uiso   1.00
H504   H     0.96161   0.53263   0.45004   0.00000  Uiso   1.00
H505   H     0.81465   0.48384   0.11002   0.00000  Uiso   1.00
H506   H     0.84769   0.53077   0.38845   0.00000  Uiso   1.00
H507   H     0.95511   0.52712   0.10310   0.00000  Uiso   1.00
H508   H     0.71240   0.47433   0.39834   0.00000  Uiso   1.00
H509   H     0.68585   0.47167   0.48291   0.00000  Uiso   1.00
H510   H     0.97960   0.54024   0.01986   0.00000  Uiso   1.00
C511   C     0.86467   0.64548   0.26856   0.00000  Uiso   1.00
C512   C     0.79359   0.35352   0.24676   0.00000  Uiso   1.00
C513   C     0.86407   0.35486   0.26996   0.00000  Uiso   1.00
C514   C     0.80136   0.64551   0.23534   0.00000  Uiso   1.00
C515   C     0.82901   0.37569   0.25791   0.00000  Uiso   1.00
C516   C     0.83492   0.62433   0.24917   0.00000  Uiso   1.00
C517   C     0.98783   0.47653   0.21916   0.00000  Uiso   1.00
C518   C     0.67873   0.52323   0.28105   0.00000  Uiso   1.00
H519   H     0.97910   0.45786   0.19446   0.00000  Uiso   1.00
H520   H     0.68734   0.54173   0.30594   0.00000  Uiso   1.00
C521   C     0.70249   0.47659   0.21911   0.00000  Uiso   1.00
C522   C     0.96409   0.52314   0.28104   0.00000  Uiso   1.00
H523   H     0.73011   0.45786   0.19444   0.00000  Uiso   1.00
H524   H     0.93620   0.54127   0.30603   0.00000  Uiso   1.00
N525   N     0.71426   0.50001   0.25001   0.00000  Uiso   1.00
N526   N     0.95241   0.49999   0.24999   0.00000  Uiso   1.00
O527   O     0.75219   0.51596   0.09829   0.00000  Uiso   1.00
C528   C     0.74008   0.55831   0.10236   0.00000  Uiso   1.00
H529   H     0.72244   0.56798   0.07804   0.00000  Uiso   1.00
H530   H     0.77362   0.57767   0.09577   0.00000  Uiso   1.00
C531   C     0.70390   0.56645   0.15099   0.00000  Uiso   1.00
H532   H     0.72017   0.55820   0.17655   0.00000  Uiso   1.00
H533   H     0.69441   0.59971   0.15460   0.00000  Uiso   1.00
H534   H     0.66992   0.54775   0.15795   0.00000  Uiso   1.00
O535   O     0.91073   0.50665   0.40313   0.00000  Uiso   1.00
C536   C     0.93168   0.46688   0.39661   0.00000  Uiso   1.00
H537   H     0.95937   0.46400   0.41266   0.00000  Uiso   1.00
H538   H     0.95130   0.46280   0.35894   0.00000  Uiso   1.00
C539   C     0.89310   0.43204   0.41402   0.00000  Uiso   1.00
H540   H     0.86330   0.43677   0.40111   0.00000  Uiso   1.00
H541   H     0.91003   0.40171   0.40168   0.00000  Uiso   1.00
H542   H     0.87738   0.43110   0.45235   0.00000  Uiso   1.00
O543   O     0.89497   0.62483   0.28588   0.00000  Uiso   1.00
C544   C     0.87091   0.61967   0.33429   0.00000  Uiso   1.00
H545   H     0.85430   0.58813   0.34141   0.00000  Uiso   1.00
H546   H     0.84119   0.64225   0.35083   0.00000  Uiso   1.00
C547   C     0.90792   0.62451   0.35735   0.00000  Uiso   1.00
H548   H     0.92198   0.65696   0.35359   0.00000  Uiso   1.00
H549   H     0.89014   0.61680   0.39470   0.00000  Uiso   1.00
H550   H     0.93922   0.60370   0.34140   0.00000  Uiso   1.00
O551   O     0.75113   0.37197   0.24799   0.00000  Uiso   1.00
C552   C     0.71309   0.36254   0.29121   0.00000  Uiso   1.00
H553   H     0.72465   0.34490   0.31614   0.00000  Uiso   1.00
H554   H     0.68467   0.34327   0.28509   0.00000  Uiso   1.00
C555   C     0.68963   0.40211   0.31484   0.00000  Uiso   1.00
H556   H     0.67483   0.41949   0.29253   0.00000  Uiso   1.00
H557   H     0.99257   0.39408   0.34779   0.00000  Uiso   1.00
H558   H     0.71668   0.42180   0.32268   0.00000  Uiso   1.00
N559   N     0.89701   0.37627   0.28672   0.00000  Uiso   1.00
O560   O     0.88003   0.39919   0.32333   0.00000  Uiso   1.00
O561   O     0.94383   0.37047   0.26736   0.00000  Uiso   1.00
N562   N     0.77758   0.62598   0.20769   0.00000  Uiso   1.00
O563   O     0.80327   0.60463   0.17166   0.00000  Uiso   1.00
O564   O     0.73207   0.63312   0.21486   0.00000  Uiso   1.00
O565   O     0.12846   0.89442   0.25000   0.00000  Uiso   1.00
O566   O     0.20488   0.77225   0.24999   0.00000  Uiso   1.00
O567   O     0.20490   0.89441   0.25000   0.00000  Uiso   1.00
O568   O     0.12843   0.77226   0.25000   0.00000  Uiso   1.00
C569   C     0.16756   0.91339   0.24890   0.00000  Uiso   1.00
C570   C     0.16496   0.75334   0.25327   0.00000  Uiso   1.00
O571   O     0.10661   0.83334   0.31612   0.00000  Uiso   1.00
O572   O     0.22672   0.83333   0.18387   0.00000  Uiso   1.00
O573   O     0.18305   0.83333   0.31612   0.00000  Uiso   1.00
O574   O     0.15028   0.83334   0.18388   0.00000  Uiso   1.00
C575   C     0.13618   0.83365   0.33778   0.00000  Uiso   1.00
C576   C     0.19707   0.83395   0.16217   0.00000  Uiso   1.00
Zn577  Zn    0.11562   0.83334   0.25000   0.00000  Uiso   1.00
Zn578  Zn    0.21771   0.83333   0.25000   0.00000  Uiso   1.00
C579   C     0.11711   0.83372   0.38796   0.00000  Uiso   1.00
C580   C     0.21529   0.83942   0.11225   0.00000  Uiso   1.00
C581   C     0.05592   0.81587   0.46236   0.00000  Uiso   1.00
C582   C     0.27581   0.86325   0.03981   0.00000  Uiso   1.00
C583   C     0.07051   0.81807   0.41450   0.00000  Uiso   1.00
C584   C     0.26234   0.85496   0.08683   0.00000  Uiso   1.00
C585   C     0.14838   0.84728   0.40920   0.00000  Uiso   1.00
C586   C     0.18195   0.83326   0.09088   0.00000  Uiso   1.00
C587   C     0.13752   0.83974   0.45594   0.00000  Uiso   1.00
C588   C     0.19265   0.84592   0.04548   0.00000  Uiso   1.00
C589   C     0.08908   0.82687   0.48324   0.00000  Uiso   1.00
C590   C     0.24157   0.85774   0.01878   0.00000  Uiso   1.00
C591   C     0.17304   0.84522   0.47627   0.00000  Uiso   1.00
C592   C     0.15694   0.84379   0.02520   0.00000  Uiso   1.00
C593   C     0.10572   0.83962   0.05192   0.00000  Uiso   1.00
C594   C     0.22440   0.84927   0.44968   0.00000  Uiso   1.00
C595   C     0.07361   0.82735   0.03096   0.00000  Uiso   1.00
C596   C     0.25668   0.86018   0.47111   0.00000  Uiso   1.00
H597   H     0.03554   0.82117   0.05227   0.00000  Uiso   1.00
H598   H     0.29494   0.86596   0.45004   0.00000  Uiso   1.00
H599   H     0.14799   0.81717   0.11002   0.00000  Uiso   1.00
H600   H     0.18103   0.86411   0.38845   0.00000  Uiso   1.00
H601   H     0.28845   0.86046   0.10310   0.00000  Uiso   1.00
H602   H     0.04573   0.80767   0.39834   0.00000  Uiso   1.00
H603   H     0.01919   0.80500   0.48291   0.00000  Uiso   1.00
H604   H     0.31294   0.87358   0.01986   0.00000  Uiso   1.00
C605   C     0.19800   0.97881   0.26856   0.00000  Uiso   1.00
C606   C     0.12693   0.68686   0.24676   0.00000  Uiso   1.00
C607   C     0.19740   0.68820   0.26996   0.00000  Uiso   1.00
C608   C     0.13469   0.97884   0.23534   0.00000  Uiso   1.00
C609   C     0.16234   0.70903   0.25791   0.00000  Uiso   1.00
C610   C     0.16826   0.95766   0.24917   0.00000  Uiso   1.00
C611   C     0.32116   0.80986   0.21916   0.00000  Uiso   1.00
C612   C     0.01206   0.85656   0.28105   0.00000  Uiso   1.00
H613   H     0.31243   0.79119   0.19446   0.00000  Uiso   1.00
H614   H     0.02067   0.87507   0.30594   0.00000  Uiso   1.00
C615   C     0.03582   0.80993   0.21911   0.00000  Uiso   1.00
C616   C     0.29743   0.85647   0.28104   0.00000  Uiso   1.00
H617   H     0.06345   0.79120   0.19444   0.00000  Uiso   1.00
H618   H     0.26953   0.87460   0.30603   0.00000  Uiso   1.00
N619   N     0.04759   0.83334   0.25001   0.00000  Uiso   1.00
N620   N     0.28574   0.83332   0.24999   0.00000  Uiso   1.00
O621   O     0.08553   0.84930   0.09829   0.00000  Uiso   1.00
C622   C     0.07342   0.89164   0.10236   0.00000  Uiso   1.00
H623   H     0.05577   0.90132   0.07804   0.00000  Uiso   1.00
H624   H     0.10695   0.91100   0.09577   0.00000  Uiso   1.00
C625   C     0.03724   0.89979   0.15099   0.00000  Uiso   1.00
H626   H     0.05350   0.89153   0.17655   0.00000  Uiso   1.00
H627   H     0.02774   0.93305   0.15460   0.00000  Uiso   1.00
H628   H     0.00325   0.88108   0.15795   0.00000  Uiso   1.00
O629   O     0.24406   0.83999   0.40313   0.00000  Uiso   1.00
C630   C     0.26501   0.80021   0.39661   0.00000  Uiso   1.00
H631   H     0.29270   0.79733   0.41266   0.00000  Uiso   1.00
H632   H     0.28464   0.79613   0.35894   0.00000  Uiso   1.00
C633   C     0.22643   0.76537   0.41402   0.00000  Uiso   1.00
H634   H     0.19663   0.77010   0.40111   0.00000  Uiso   1.00
H635   H     0.24337   0.73504   0.40168   0.00000  Uiso   1.00
H636   H     0.21071   0.76444   0.45235   0.00000  Uiso   1.00
O637   O     0.22831   0.95816   0.28588   0.00000  Uiso   1.00
C638   C     0.20424   0.95301   0.33429   0.00000  Uiso   1.00
H639   H     0.18763   0.92146   0.34141   0.00000  Uiso   1.00
H640   H     0.17452   0.97558   0.35083   0.00000  Uiso   1.00
C641   C     0.24125   0.95784   0.35735   0.00000  Uiso   1.00
H642   H     0.25531   0.99030   0.35359   0.00000  Uiso   1.00
H643   H     0.22348   0.95014   0.39470   0.00000  Uiso   1.00
H644   H     0.27255   0.93703   0.34140   0.00000  Uiso   1.00
O645   O     0.08447   0.70530   0.24799   0.00000  Uiso   1.00
C646   C     0.04643   0.69587   0.29121   0.00000  Uiso   1.00
H647   H     0.05799   0.67823   0.31614   0.00000  Uiso   1.00
H648   H     0.01801   0.67661   0.28509   0.00000  Uiso   1.00
C649   C     0.02296   0.73545   0.31484   0.00000  Uiso   1.00
H650   H     0.00816   0.75282   0.29253   0.00000  Uiso   1.00
H651   H     0.32590   0.72742   0.34779   0.00000  Uiso   1.00
H652   H     0.05002   0.75513   0.32268   0.00000  Uiso   1.00
N653   N     0.23035   0.70961   0.28672   0.00000  Uiso   1.00
O654   O     0.21336   0.73253   0.32333   0.00000  Uiso   1.00
O655   O     0.27717   0.70380   0.26736   0.00000  Uiso   1.00
N656   N     0.11091   0.95931   0.20769   0.00000  Uiso   1.00
O657   O     0.13660   0.93796   0.17166   0.00000  Uiso   1.00
O658   O     0.06541   0.96645   0.21486   0.00000  Uiso   1.00
O659   O     0.46179   0.89442   0.25000   0.00000  Uiso   1.00
O660   O     0.53821   0.77225   0.24999   0.00000  Uiso   1.00
O661   O     0.53823   0.89441   0.25000   0.00000  Uiso   1.00
O662   O     0.46177   0.77226   0.25000   0.00000  Uiso   1.00
C663   C     0.50089   0.91339   0.24890   0.00000  Uiso   1.00
C664   C     0.49829   0.75334   0.25327   0.00000  Uiso   1.00
O665   O     0.43994   0.83334   0.31612   0.00000  Uiso   1.00
O666   O     0.56006   0.83333   0.18387   0.00000  Uiso   1.00
O667   O     0.51639   0.83333   0.31612   0.00000  Uiso   1.00
O668   O     0.48361   0.83334   0.18388   0.00000  Uiso   1.00
C669   C     0.46951   0.83365   0.33778   0.00000  Uiso   1.00
C670   C     0.53040   0.83395   0.16217   0.00000  Uiso   1.00
Zn671  Zn    0.44896   0.83334   0.25000   0.00000  Uiso   1.00
Zn672  Zn    0.55104   0.83333   0.25000   0.00000  Uiso   1.00
C673   C     0.45045   0.83372   0.38796   0.00000  Uiso   1.00
C674   C     0.54862   0.83942   0.11225   0.00000  Uiso   1.00
C675   C     0.38926   0.81587   0.46236   0.00000  Uiso   1.00
C676   C     0.60914   0.86325   0.03981   0.00000  Uiso   1.00
C677   C     0.40384   0.81807   0.41450   0.00000  Uiso   1.00
C678   C     0.59567   0.85496   0.08683   0.00000  Uiso   1.00
C679   C     0.48171   0.84728   0.40920   0.00000  Uiso   1.00
C680   C     0.51528   0.83326   0.09088   0.00000  Uiso   1.00
C681   C     0.47085   0.83974   0.45594   0.00000  Uiso   1.00
C682   C     0.52598   0.84592   0.04548   0.00000  Uiso   1.00
C683   C     0.42241   0.82687   0.48324   0.00000  Uiso   1.00
C684   C     0.57491   0.85774   0.01878   0.00000  Uiso   1.00
C685   C     0.50638   0.84522   0.47627   0.00000  Uiso   1.00
C686   C     0.49027   0.84379   0.02520   0.00000  Uiso   1.00
C687   C     0.43906   0.83962   0.05192   0.00000  Uiso   1.00
C688   C     0.55773   0.84927   0.44968   0.00000  Uiso   1.00
C689   C     0.40695   0.82735   0.03096   0.00000  Uiso   1.00
C690   C     0.59002   0.86018   0.47111   0.00000  Uiso   1.00
H691   H     0.36887   0.82117   0.05227   0.00000  Uiso   1.00
H692   H     0.62828   0.86596   0.45004   0.00000  Uiso   1.00
H693   H     0.48132   0.81717   0.11002   0.00000  Uiso   1.00
H694   H     0.51436   0.86411   0.38845   0.00000  Uiso   1.00
H695   H     0.62178   0.86046   0.10310   0.00000  Uiso   1.00
H696   H     0.37907   0.80767   0.39834   0.00000  Uiso   1.00
H697   H     0.35252   0.80500   0.48291   0.00000  Uiso   1.00
H698   H     0.64627   0.87358   0.01986   0.00000  Uiso   1.00
C699   C     0.53133   0.97881   0.26856   0.00000  Uiso   1.00
C700   C     0.46026   0.68686   0.24676   0.00000  Uiso   1.00
C701   C     0.53073   0.68820   0.26996   0.00000  Uiso   1.00
C702   C     0.46803   0.97884   0.23534   0.00000  Uiso   1.00
C703   C     0.49568   0.70903   0.25791   0.00000  Uiso   1.00
C704   C     0.50159   0.95766   0.24917   0.00000  Uiso   1.00
C705   C     0.65449   0.80986   0.21916   0.00000  Uiso   1.00
C706   C     0.34540   0.85656   0.28105   0.00000  Uiso   1.00
H707   H     0.64577   0.79119   0.19446   0.00000  Uiso   1.00
H708   H     0.35401   0.87507   0.30594   0.00000  Uiso   1.00
C709   C     0.36916   0.80993   0.21911   0.00000  Uiso   1.00
C710   C     0.63076   0.85647   0.28104   0.00000  Uiso   1.00
H711   H     0.39678   0.79120   0.19444   0.00000  Uiso   1.00
H712   H     0.60287   0.87460   0.30603   0.00000  Uiso   1.00
N713   N     0.38093   0.83334   0.25001   0.00000  Uiso   1.00
N714   N     0.61907   0.83332   0.24999   0.00000  Uiso   1.00
O715   O     0.41886   0.84930   0.09829   0.00000  Uiso   1.00
C716   C     0.40675   0.89164   0.10236   0.00000  Uiso   1.00
H717   H     0.38911   0.90132   0.07804   0.00000  Uiso   1.00
H718   H     0.44029   0.91100   0.09577   0.00000  Uiso   1.00
C719   C     0.37057   0.89979   0.15099   0.00000  Uiso   1.00
H720   H     0.38684   0.89153   0.17655   0.00000  Uiso   1.00
H721   H     0.36107   0.93305   0.15460   0.00000  Uiso   1.00
H722   H     0.33659   0.88108   0.15795   0.00000  Uiso   1.00
O723   O     0.57739   0.83999   0.40313   0.00000  Uiso   1.00
C724   C     0.59835   0.80021   0.39661   0.00000  Uiso   1.00
H725   H     0.62604   0.79733   0.41266   0.00000  Uiso   1.00
H726   H     0.61797   0.79613   0.35894   0.00000  Uiso   1.00
C727   C     0.55976   0.76537   0.41402   0.00000  Uiso   1.00
H728   H     0.52997   0.77010   0.40111   0.00000  Uiso   1.00
H729   H     0.57670   0.73504   0.40168   0.00000  Uiso   1.00
H730   H     0.54404   0.76444   0.45235   0.00000  Uiso   1.00
O731   O     0.56164   0.95816   0.28588   0.00000  Uiso   1.00
C732   C     0.53757   0.95301   0.33429   0.00000  Uiso   1.00
H733   H     0.52097   0.92146   0.34141   0.00000  Uiso   1.00
H734   H     0.50785   0.97558   0.35083   0.00000  Uiso   1.00
C735   C     0.57459   0.95784   0.35735   0.00000  Uiso   1.00
H736   H     0.58864   0.99030   0.35359   0.00000  Uiso   1.00
H737   H     0.55681   0.95014   0.39470   0.00000  Uiso   1.00
H738   H     0.60589   0.93703   0.34140   0.00000  Uiso   1.00
O739   O     0.41780   0.70530   0.24799   0.00000  Uiso   1.00
C740   C     0.37976   0.69587   0.29121   0.00000  Uiso   1.00
H741   H     0.39132   0.67823   0.31614   0.00000  Uiso   1.00
H742   H     0.35134   0.67661   0.28509   0.00000  Uiso   1.00
C743   C     0.35630   0.73545   0.31484   0.00000  Uiso   1.00
H744   H     0.34149   0.75282   0.29253   0.00000  Uiso   1.00
H745   H     0.65924   0.72742   0.34779   0.00000  Uiso   1.00
H746   H     0.38335   0.75513   0.32268   0.00000  Uiso   1.00
N747   N     0.56368   0.70961   0.28672   0.00000  Uiso   1.00
O748   O     0.54670   0.73253   0.32333   0.00000  Uiso   1.00
O749   O     0.61050   0.70380   0.26736   0.00000  Uiso   1.00
N750   N     0.44424   0.95931   0.20769   0.00000  Uiso   1.00
O751   O     0.46993   0.93796   0.17166   0.00000  Uiso   1.00
O752   O     0.39874   0.96645   0.21486   0.00000  Uiso   1.00
O753   O     0.79512   0.89442   0.25000   0.00000  Uiso   1.00
O754   O     0.87154   0.77225   0.24999   0.00000  Uiso   1.00
O755   O     0.87157   0.89441   0.25000   0.00000  Uiso   1.00
O756   O     0.79510   0.77226   0.25000   0.00000  Uiso   1.00
C757   C     0.83422   0.91339   0.24890   0.00000  Uiso   1.00
C758   C     0.83163   0.75334   0.25327   0.00000  Uiso   1.00
O759   O     0.77328   0.83334   0.31612   0.00000  Uiso   1.00
O760   O     0.89339   0.83333   0.18387   0.00000  Uiso   1.00
O761   O     0.84972   0.83333   0.31612   0.00000  Uiso   1.00
O762   O     0.81695   0.83334   0.18388   0.00000  Uiso   1.00
C763   C     0.80284   0.83365   0.33778   0.00000  Uiso   1.00
C764   C     0.86374   0.83395   0.16217   0.00000  Uiso   1.00
Zn765  Zn    0.78229   0.83334   0.25000   0.00000  Uiso   1.00
Zn766  Zn    0.88438   0.83333   0.25000   0.00000  Uiso   1.00
C767   C     0.78378   0.83372   0.38796   0.00000  Uiso   1.00
C768   C     0.88195   0.83942   0.11225   0.00000  Uiso   1.00
C769   C     0.72259   0.81587   0.46236   0.00000  Uiso   1.00
C770   C     0.94248   0.86325   0.03981   0.00000  Uiso   1.00
C771   C     0.73717   0.81807   0.41450   0.00000  Uiso   1.00
C772   C     0.92900   0.85496   0.08683   0.00000  Uiso   1.00
C773   C     0.81505   0.84728   0.40920   0.00000  Uiso   1.00
C774   C     0.84861   0.83326   0.09088   0.00000  Uiso   1.00
C775   C     0.80418   0.83974   0.45594   0.00000  Uiso   1.00
C776   C     0.85931   0.84592   0.04548   0.00000  Uiso   1.00
C777   C     0.75574   0.82687   0.48324   0.00000  Uiso   1.00
C778   C     0.90824   0.85774   0.01878   0.00000  Uiso   1.00
C779   C     0.83971   0.84522   0.47627   0.00000  Uiso   1.00
C780   C     0.82360   0.84379   0.02520   0.00000  Uiso   1.00
C781   C     0.77239   0.83962   0.05192   0.00000  Uiso   1.00
C782   C     0.89107   0.84927   0.44968   0.00000  Uiso   1.00
C783   C     0.74028   0.82735   0.03096   0.00000  Uiso   1.00
C784   C     0.92335   0.86018   0.47111   0.00000  Uiso   1.00
H785   H     0.70220   0.82117   0.05227   0.00000  Uiso   1.00
H786   H     0.96161   0.86596   0.45004   0.00000  Uiso   1.00
H787   H     0.81465   0.81717   0.11002   0.00000  Uiso   1.00
H788   H     0.84769   0.86411   0.38845   0.00000  Uiso   1.00
H789   H     0.95511   0.86046   0.10310   0.00000  Uiso   1.00
H790   H     0.71240   0.80767   0.39834   0.00000  Uiso   1.00
H791   H     0.68585   0.80500   0.48291   0.00000  Uiso   1.00
H792   H     0.97960   0.87358   0.01986   0.00000  Uiso   1.00
C793   C     0.86467   0.97881   0.26856   0.00000  Uiso   1.00
C794   C     0.79359   0.68686   0.24676   0.00000  Uiso   1.00
C795   C     0.86407   0.68820   0.26996   0.00000  Uiso   1.00
C796   C     0.80136   0.97884   0.23534   0.00000  Uiso   1.00
C797   C     0.82901   0.70903   0.25791   0.00000  Uiso   1.00
C798   C     0.83492   0.95766   0.24917   0.00000  Uiso   1.00
C799   C     0.98783   0.80986   0.21916   0.00000  Uiso   1.00
C800   C     0.67873   0.85656   0.28105   0.00000  Uiso   1.00
H801   H     0.97910   0.79119   0.19446   0.00000  Uiso   1.00
H802   H     0.68734   0.87507   0.30594   0.00000  Uiso   1.00
C803   C     0.70249   0.80993   0.21911   0.00000  Uiso   1.00
C804   C     0.96409   0.85647   0.28104   0.00000  Uiso   1.00
H805   H     0.73011   0.79120   0.19444   0.00000  Uiso   1.00
H806   H     0.93620   0.87460   0.30603   0.00000  Uiso   1.00
N807   N     0.71426   0.83334   0.25001   0.00000  Uiso   1.00
N808   N     0.95241   0.83332   0.24999   0.00000  Uiso   1.00
O809   O     0.75219   0.84930   0.09829   0.00000  Uiso   1.00
C810   C     0.74008   0.89164   0.10236   0.00000  Uiso   1.00
H811   H     0.72244   0.90132   0.07804   0.00000  Uiso   1.00
H812   H     0.77362   0.91100   0.09577   0.00000  Uiso   1.00
C813   C     0.70390   0.89979   0.15099   0.00000  Uiso   1.00
H814   H     0.72017   0.89153   0.17655   0.00000  Uiso   1.00
H815   H     0.69441   0.93305   0.15460   0.00000  Uiso   1.00
H816   H     0.66992   0.88108   0.15795   0.00000  Uiso   1.00
O817   O     0.91073   0.83999   0.40313   0.00000  Uiso   1.00
C818   C     0.93168   0.80021   0.39661   0.00000  Uiso   1.00
H819   H     0.95937   0.79733   0.41266   0.00000  Uiso   1.00
H820   H     0.95130   0.79613   0.35894   0.00000  Uiso   1.00
C821   C     0.89310   0.76537   0.41402   0.00000  Uiso   1.00
H822   H     0.86330   0.77010   0.40111   0.00000  Uiso   1.00
H823   H     0.91003   0.73504   0.40168   0.00000  Uiso   1.00
H824   H     0.87738   0.76444   0.45235   0.00000  Uiso   1.00
O825   O     0.89497   0.95816   0.28588   0.00000  Uiso   1.00
C826   C     0.87091   0.95301   0.33429   0.00000  Uiso   1.00
H827   H     0.85430   0.92146   0.34141   0.00000  Uiso   1.00
H828   H     0.84119   0.97558   0.35083   0.00000  Uiso   1.00
C829   C     0.90792   0.95784   0.35735   0.00000  Uiso   1.00
H830   H     0.92198   0.99030   0.35359   0.00000  Uiso   1.00
H831   H     0.89014   0.95014   0.39470   0.00000  Uiso   1.00
H832   H     0.93922   0.93703   0.34140   0.00000  Uiso   1.00
O833   O     0.75113   0.70530   0.24799   0.00000  Uiso   1.00
C834   C     0.71309   0.69587   0.29121   0.00000  Uiso   1.00
H835   H     0.72465   0.67823   0.31614   0.00000  Uiso   1.00
H836   H     0.68467   0.67661   0.28509   0.00000  Uiso   1.00
C837   C     0.68963   0.73545   0.31484   0.00000  Uiso   1.00
H838   H     0.67483   0.75282   0.29253   0.00000  Uiso   1.00
H839   H     0.99257   0.72742   0.34779   0.00000  Uiso   1.00
H840   H     0.71668   0.75513   0.32268   0.00000  Uiso   1.00
N841   N     0.89701   0.70961   0.28672   0.00000  Uiso   1.00
O842   O     0.88003   0.73253   0.32333   0.00000  Uiso   1.00
O843   O     0.94383   0.70380   0.26736   0.00000  Uiso   1.00
N844   N     0.77758   0.95931   0.20769   0.00000  Uiso   1.00
O845   O     0.80327   0.93796   0.17166   0.00000  Uiso   1.00
O846   O     0.73207   0.96645   0.21486   0.00000  Uiso   1.00
O847   O     0.12846   0.22775   0.75000   0.00000  Uiso   1.00
O848   O     0.20488   0.10558   0.74999   0.00000  Uiso   1.00
O849   O     0.20490   0.22774   0.75000   0.00000  Uiso   1.00
O850   O     0.12843   0.10559   0.75000   0.00000  Uiso   1.00
C851   C     0.16756   0.24673   0.74890   0.00000  Uiso   1.00
C852   C     0.16496   0.08667   0.75327   0.00000  Uiso   1.00
O853   O     0.10661   0.16667   0.81612   0.00000  Uiso   1.00
O854   O     0.22672   0.16666   0.68387   0.00000  Uiso   1.00
O855   O     0.18305   0.16666   0.81612   0.00000  Uiso   1.00
O856   O     0.15028   0.16667   0.68388   0.00000  Uiso   1.00
C857   C     0.13618   0.16699   0.83778   0.00000  Uiso   1.00
C858   C     0.19707   0.16728   0.66217   0.00000  Uiso   1.00
Zn859  Zn    0.11562   0.16667   0.75000   0.00000  Uiso   1.00
Zn860  Zn    0.21771   0.16666   0.75000   0.00000  Uiso   1.00
C861   C     0.11711   0.16705   0.88796   0.00000  Uiso   1.00
C862   C     0.21529   0.17275   0.61225   0.00000  Uiso   1.00
C863   C     0.05592   0.14921   0.96236   0.00000  Uiso   1.00
C864   C     0.27581   0.19659   0.53981   0.00000  Uiso   1.00
C865   C     0.07051   0.15140   0.91450   0.00000  Uiso   1.00
C866   C     0.26234   0.18829   0.58683   0.00000  Uiso   1.00
C867   C     0.14838   0.18062   0.90920   0.00000  Uiso   1.00
C868   C     0.18195   0.16659   0.59088   0.00000  Uiso   1.00
C869   C     0.13752   0.17307   0.95594   0.00000  Uiso   1.00
C870   C     0.19265   0.17925   0.54548   0.00000  Uiso   1.00
C871   C     0.08908   0.16020   0.98324   0.00000  Uiso   1.00
C872   C     0.24157   0.19107   0.51878   0.00000  Uiso   1.00
C873   C     0.17304   0.17856   0.97627   0.00000  Uiso   1.00
C874   C     0.15694   0.17712   0.52520   0.00000  Uiso   1.00
C875   C     0.10572   0.17295   0.55192   0.00000  Uiso   1.00
C876   C     0.22440   0.18260   0.94968   0.00000  Uiso   1.00
C877   C     0.07361   0.16068   0.53096   0.00000  Uiso   1.00
C878   C     0.25668   0.19351   0.97111   0.00000  Uiso   1.00
H879   H     0.03554   0.15450   0.55227   0.00000  Uiso   1.00
H880   H     0.29494   0.19930   0.95004   0.00000  Uiso   1.00
H881   H     0.14799   0.15051   0.61002   0.00000  Uiso   1.00
H882   H     0.18103   0.19744   0.88845   0.00000  Uiso   1.00
H883   H     0.28845   0.19379   0.60310   0.00000  Uiso   1.00
H884   H     0.04573   0.14100   0.89834   0.00000  Uiso   1.00
H885   H     0.01919   0.13834   0.98291   0.00000  Uiso   1.00
H886   H     0.31294   0.20691   0.51986   0.00000  Uiso   1.00
C887   C     0.19800   0.31214   0.76856   0.00000  Uiso   1.00
C888   C     0.12693   0.02019   0.74676   0.00000  Uiso   1.00
C889   C     0.19740   0.02153   0.76996   0.00000  Uiso   1.00
C890   C     0.13469   0.31218   0.73534   0.00000  Uiso   1.00
C891   C     0.16234   0.04236   0.75791   0.00000  Uiso   1.00
C892   C     0.16826   0.29100   0.74917   0.00000  Uiso   1.00
C893   C     0.32116   0.14320   0.71916   0.00000  Uiso   1.00
C894   C     0.01206   0.18989   0.78105   0.00000  Uiso   1.00
H895   H     0.31243   0.12452   0.69446   0.00000  Uiso   1.00
H896   H     0.02067   0.20840   0.80594   0.00000  Uiso   1.00
C897   C     0.03582   0.14326   0.71911   0.00000  Uiso   1.00
C898   C     0.29743   0.18981   0.78104   0.00000  Uiso   1.00
H899   H     0.06345   0.12453   0.69444   0.00000  Uiso   1.00
H900   H     0.26953   0.20793   0.80603   0.00000  Uiso   1.00
N901   N     0.04759   0.16668   0.75001   0.00000  Uiso   1.00
N902   N     0.28574   0.16666   0.74999   0.00000  Uiso   1.00
O903   O     0.08553   0.18263   0.59829   0.00000  Uiso   1.00
C904   C     0.07342   0.22498   0.60236   0.00000  Uiso   1.00
H905   H     0.05577   0.23465   0.57804   0.00000  Uiso   1.00
H906   H     0.10695   0.24434   0.59577   0.00000  Uiso   1.00
C907   C     0.03724   0.23312   0.65099   0.00000  Uiso   1.00
H908   H     0.05350   0.22486   0.67655   0.00000  Uiso   1.00
H909   H     0.02774   0.26638   0.65460   0.00000  Uiso   1.00
H910   H     0.00325   0.21442   0.65795   0.00000  Uiso   1.00
O911   O     0.24406   0.17332   0.90313   0.00000  Uiso   1.00
C912   C     0.26501   0.13354   0.89661   0.00000  Uiso   1.00
H913   H     0.29270   0.13066   0.91266   0.00000  Uiso   1.00
H914   H     0.28464   0.12946   0.85894   0.00000  Uiso   1.00
C915   C     0.22643   0.09871   0.91402   0.00000  Uiso   1.00
H916   H     0.19663   0.10343   0.90111   0.00000  Uiso   1.00
H917   H     0.24337   0.06838   0.90168   0.00000  Uiso   1.00
H918   H     0.21071   0.09777   0.95235   0.00000  Uiso   1.00
O919   O     0.22831   0.29149   0.78588   0.00000  Uiso   1.00
C920   C     0.20424   0.28634   0.83429   0.00000  Uiso   1.00
H921   H     0.18763   0.25480   0.84141   0.00000  Uiso   1.00
H922   H     0.17452   0.30892   0.85083   0.00000  Uiso   1.00
C923   C     0.24125   0.29118   0.85735   0.00000  Uiso   1.00
H924   H     0.25531   0.32363   0.85359   0.00000  Uiso   1.00
H925   H     0.22348   0.28347   0.89470   0.00000  Uiso   1.00
H926   H     0.27255   0.27037   0.84140   0.00000  Uiso   1.00
O927   O     0.08447   0.03863   0.74799   0.00000  Uiso   1.00
C928   C     0.04643   0.02921   0.79121   0.00000  Uiso   1.00
H929   H     0.05799   0.01156   0.81614   0.00000  Uiso   1.00
H930   H     0.01801   0.00994   0.78509   0.00000  Uiso   1.00
C931   C     0.02296   0.06878   0.81484   0.00000  Uiso   1.00
H932   H     0.00816   0.08615   0.79253   0.00000  Uiso   1.00
H933   H     0.32590   0.06075   0.84779   0.00000  Uiso   1.00
H934   H     0.05002   0.08846   0.82268   0.00000  Uiso   1.00
N935   N     0.23035   0.04294   0.78672   0.00000  Uiso   1.00
O936   O     0.21336   0.06586   0.82333   0.00000  Uiso   1.00
O937   O     0.27717   0.03713   0.76736   0.00000  Uiso   1.00
N938   N     0.11091   0.29264   0.70769   0.00000  Uiso   1.00
O939   O     0.13660   0.27130   0.67166   0.00000  Uiso   1.00
O940   O     0.06541   0.29979   0.71486   0.00000  Uiso   1.00
O941   O     0.46179   0.22775   0.75000   0.00000  Uiso   1.00
O942   O     0.53821   0.10558   0.74999   0.00000  Uiso   1.00
O943   O     0.53823   0.22774   0.75000   0.00000  Uiso   1.00
O944   O     0.46177   0.10559   0.75000   0.00000  Uiso   1.00
C945   C     0.50089   0.24673   0.74890   0.00000  Uiso   1.00
C946   C     0.49829   0.08667   0.75327   0.00000  Uiso   1.00
O947   O     0.43994   0.16667   0.81612   0.00000  Uiso   1.00
O948   O     0.56006   0.16666   0.68387   0.00000  Uiso   1.00
O949   O     0.51639   0.16666   0.81612   0.00000  Uiso   1.00
O950   O     0.48361   0.16667   0.68388   0.00000  Uiso   1.00
C951   C     0.46951   0.16699   0.83778   0.00000  Uiso   1.00
C952   C     0.53040   0.16728   0.66217   0.00000  Uiso   1.00
Zn953  Zn    0.44896   0.16667   0.75000   0.00000  Uiso   1.00
Zn954  Zn    0.55104   0.16666   0.75000   0.00000  Uiso   1.00
C955   C     0.45045   0.16705   0.88796   0.00000  Uiso   1.00
C956   C     0.54862   0.17275   0.61225   0.00000  Uiso   1.00
C957   C     0.38926   0.14921   0.96236   0.00000  Uiso   1.00
C958   C     0.60914   0.19659   0.53981   0.00000  Uiso   1.00
C959   C     0.40384   0.15140   0.91450   0.00000  Uiso   1.00
C960   C     0.59567   0.18829   0.58683   0.00000  Uiso   1.00
C961   C     0.48171   0.18062   0.90920   0.00000  Uiso   1.00
C962   C     0.51528   0.16659   0.59088   0.00000  Uiso   1.00
C963   C     0.47085   0.17307   0.95594   0.00000  Uiso   1.00
C964   C     0.52598   0.17925   0.54548   0.00000  Uiso   1.00
C965   C     0.42241   0.16020   0.98324   0.00000  Uiso   1.00
C966   C     0.57491   0.19107   0.51878   0.00000  Uiso   1.00
C967   C     0.50638   0.17856   0.97627   0.00000  Uiso   1.00
C968   C     0.49027   0.17712   0.52520   0.00000  Uiso   1.00
C969   C     0.43906   0.17295   0.55192   0.00000  Uiso   1.00
C970   C     0.55773   0.18260   0.94968   0.00000  Uiso   1.00
C971   C     0.40695   0.16068   0.53096   0.00000  Uiso   1.00
C972   C     0.59002   0.19351   0.97111   0.00000  Uiso   1.00
H973   H     0.36887   0.15450   0.55227   0.00000  Uiso   1.00
H974   H     0.62828   0.19930   0.95004   0.00000  Uiso   1.00
H975   H     0.48132   0.15051   0.61002   0.00000  Uiso   1.00
H976   H     0.51436   0.19744   0.88845   0.00000  Uiso   1.00
H977   H     0.62178   0.19379   0.60310   0.00000  Uiso   1.00
H978   H     0.37907   0.14100   0.89834   0.00000  Uiso   1.00
H979   H     0.35252   0.13834   0.98291   0.00000  Uiso   1.00
H980   H     0.64627   0.20691   0.51986   0.00000  Uiso   1.00
C981   C     0.53133   0.31214   0.76856   0.00000  Uiso   1.00
C982   C     0.46026   0.02019   0.74676   0.00000  Uiso   1.00
C983   C     0.53073   0.02153   0.76996   0.00000  Uiso   1.00
C984   C     0.46803   0.31218   0.73534   0.00000  Uiso   1.00
C985   C     0.49568   0.04236   0.75791   0.00000  Uiso   1.00
C986   C     0.50159   0.29100   0.74917   0.00000  Uiso   1.00
C987   C     0.65449   0.14320   0.71916   0.00000  Uiso   1.00
C988   C     0.34540   0.18989   0.78105   0.00000  Uiso   1.00
H989   H     0.64577   0.12452   0.69446   0.00000  Uiso   1.00
H990   H     0.35401   0.20840   0.80594   0.00000  Uiso   1.00
C991   C     0.36916   0.14326   0.71911   0.00000  Uiso   1.00
C992   C     0.63076   0.18981   0.78104   0.00000  Uiso   1.00
H993   H     0.39678   0.12453   0.69444   0.00000  Uiso   1.00
H994   H     0.60287   0.20793   0.80603   0.00000  Uiso   1.00
N995   N     0.38093   0.16668   0.75001   0.00000  Uiso   1.00
N996   N     0.61907   0.16666   0.74999   0.00000  Uiso   1.00
O997   O     0.41886   0.18263   0.59829   0.00000  Uiso   1.00
C998   C     0.40675   0.22498   0.60236   0.00000  Uiso   1.00
H999   H     0.38911   0.23465   0.57804   0.00000  Uiso   1.00
H1000  H     0.44029   0.24434   0.59577   0.00000  Uiso   1.00
C1001  C     0.37057   0.23312   0.65099   0.00000  Uiso   1.00
H1002  H     0.38684   0.22486   0.67655   0.00000  Uiso   1.00
H1003  H     0.36107   0.26638   0.65460   0.00000  Uiso   1.00
H1004  H     0.33659   0.21442   0.65795   0.00000  Uiso   1.00
O1005  O     0.57739   0.17332   0.90313   0.00000  Uiso   1.00
C1006  C     0.59835   0.13354   0.89661   0.00000  Uiso   1.00
H1007  H     0.62604   0.13066   0.91266   0.00000  Uiso   1.00
H1008  H     0.61797   0.12946   0.85894   0.00000  Uiso   1.00
C1009  C     0.55976   0.09871   0.91402   0.00000  Uiso   1.00
H1010  H     0.52997   0.10343   0.90111   0.00000  Uiso   1.00
H1011  H     0.57670   0.06838   0.90168   0.00000  Uiso   1.00
H1012  H     0.54404   0.09777   0.95235   0.00000  Uiso   1.00
O1013  O     0.56164   0.29149   0.78588   0.00000  Uiso   1.00
C1014  C     0.53757   0.28634   0.83429   0.00000  Uiso   1.00
H1015  H     0.52097   0.25480   0.84141   0.00000  Uiso   1.00
H1016  H     0.50785   0.30892   0.85083   0.00000  Uiso   1.00
C1017  C     0.57459   0.29118   0.85735   0.00000  Uiso   1.00
H1018  H     0.58864   0.32363   0.85359   0.00000  Uiso   1.00
H1019  H     0.55681   0.28347   0.89470   0.00000  Uiso   1.00
H1020  H     0.60589   0.27037   0.84140   0.00000  Uiso   1.00
O1021  O     0.41780   0.03863   0.74799   0.00000  Uiso   1.00
C1022  C     0.37976   0.02921   0.79121   0.00000  Uiso   1.00
H1023  H     0.39132   0.01156   0.81614   0.00000  Uiso   1.00
H1024  H     0.35134   0.00994   0.78509   0.00000  Uiso   1.00
C1025  C     0.35630   0.06878   0.81484   0.00000  Uiso   1.00
H1026  H     0.34149   0.08615   0.79253   0.00000  Uiso   1.00
H1027  H     0.65924   0.06075   0.84779   0.00000  Uiso   1.00
H1028  H     0.38335   0.08846   0.82268   0.00000  Uiso   1.00
N1029  N     0.56368   0.04294   0.78672   0.00000  Uiso   1.00
O1030  O     0.54670   0.06586   0.82333   0.00000  Uiso   1.00
O1031  O     0.61050   0.03713   0.76736   0.00000  Uiso   1.00
N1032  N     0.44424   0.29264   0.70769   0.00000  Uiso   1.00
O1033  O     0.46993   0.27130   0.67166   0.00000  Uiso   1.00
O1034  O     0.39874   0.29979   0.71486   0.00000  Uiso   1.00
O1035  O     0.79512   0.22775   0.75000   0.00000  Uiso   1.00
O1036  O     0.87154   0.10558   0.74999   0.00000  Uiso   1.00
O1037  O     0.87157   0.22774   0.75000   0.00000  Uiso   1.00
O1038  O     0.79510   0.10559   0.75000   0.00000  Uiso   1.00
C1039  C     0.83422   0.24673   0.74890   0.00000  Uiso   1.00
C1040  C     0.83163   0.08667   0.75327   0.00000  Uiso   1.00
O1041  O     0.77328   0.16667   0.81612   0.00000  Uiso   1.00
O1042  O     0.89339   0.16666   0.68387   0.00000  Uiso   1.00
O1043  O     0.84972   0.16666   0.81612   0.00000  Uiso   1.00
O1044  O     0.81695   0.16667   0.68388   0.00000  Uiso   1.00
C1045  C     0.80284   0.16699   0.83778   0.00000  Uiso   1.00
C1046  C     0.86374   0.16728   0.66217   0.00000  Uiso   1.00
Zn1047 Zn    0.78229   0.16667   0.75000   0.00000  Uiso   1.00
Zn1048 Zn    0.88438   0.16666   0.75000   0.00000  Uiso   1.00
C1049  C     0.78378   0.16705   0.88796   0.00000  Uiso   1.00
C1050  C     0.88195   0.17275   0.61225   0.00000  Uiso   1.00
C1051  C     0.72259   0.14921   0.96236   0.00000  Uiso   1.00
C1052  C     0.94248   0.19659   0.53981   0.00000  Uiso   1.00
C1053  C     0.73717   0.15140   0.91450   0.00000  Uiso   1.00
C1054  C     0.92900   0.18829   0.58683   0.00000  Uiso   1.00
C1055  C     0.81505   0.18062   0.90920   0.00000  Uiso   1.00
C1056  C     0.84861   0.16659   0.59088   0.00000  Uiso   1.00
C1057  C     0.80418   0.17307   0.95594   0.00000  Uiso   1.00
C1058  C     0.85931   0.17925   0.54548   0.00000  Uiso   1.00
C1059  C     0.75574   0.16020   0.98324   0.00000  Uiso   1.00
C1060  C     0.90824   0.19107   0.51878   0.00000  Uiso   1.00
C1061  C     0.83971   0.17856   0.97627   0.00000  Uiso   1.00
C1062  C     0.82360   0.17712   0.52520   0.00000  Uiso   1.00
C1063  C     0.77239   0.17295   0.55192   0.00000  Uiso   1.00
C1064  C     0.89107   0.18260   0.94968   0.00000  Uiso   1.00
C1065  C     0.74028   0.16068   0.53096   0.00000  Uiso   1.00
C1066  C     0.92335   0.19351   0.97111   0.00000  Uiso   1.00
H1067  H     0.70220   0.15450   0.55227   0.00000  Uiso   1.00
H1068  H     0.96161   0.19930   0.95004   0.00000  Uiso   1.00
H1069  H     0.81465   0.15051   0.61002   0.00000  Uiso   1.00
H1070  H     0.84769   0.19744   0.88845   0.00000  Uiso   1.00
H1071  H     0.95511   0.19379   0.60310   0.00000  Uiso   1.00
H1072  H     0.71240   0.14100   0.89834   0.00000  Uiso   1.00
H1073  H     0.68585   0.13834   0.98291   0.00000  Uiso   1.00
H1074  H     0.97960   0.20691   0.51986   0.00000  Uiso   1.00
C1075  C     0.86467   0.31214   0.76856   0.00000  Uiso   1.00
C1076  C     0.79359   0.02019   0.74676   0.00000  Uiso   1.00
C1077  C     0.86407   0.02153   0.76996   0.00000  Uiso   1.00
C1078  C     0.80136   0.31218   0.73534   0.00000  Uiso   1.00
C1079  C     0.82901   0.04236   0.75791   0.00000  Uiso   1.00
C1080  C     0.83492   0.29100   0.74917   0.00000  Uiso   1.00
C1081  C     0.98783   0.14320   0.71916   0.00000  Uiso   1.00
C1082  C     0.67873   0.18989   0.78105   0.00000  Uiso   1.00
H1083  H     0.97910   0.12452   0.69446   0.00000  Uiso   1.00
H1084  H     0.68734   0.20840   0.80594   0.00000  Uiso   1.00
C1085  C     0.70249   0.14326   0.71911   0.00000  Uiso   1.00
C1086  C     0.96409   0.18981   0.78104   0.00000  Uiso   1.00
H1087  H     0.73011   0.12453   0.69444   0.00000  Uiso   1.00
H1088  H     0.93620   0.20793   0.80603   0.00000  Uiso   1.00
N1089  N     0.71426   0.16668   0.75001   0.00000  Uiso   1.00
N1090  N     0.95241   0.16666   0.74999   0.00000  Uiso   1.00
O1091  O     0.75219   0.18263   0.59829   0.00000  Uiso   1.00
C1092  C     0.74008   0.22498   0.60236   0.00000  Uiso   1.00
H1093  H     0.72244   0.23465   0.57804   0.00000  Uiso   1.00
H1094  H     0.77362   0.24434   0.59577   0.00000  Uiso   1.00
C1095  C     0.70390   0.23312   0.65099   0.00000  Uiso   1.00
H1096  H     0.72017   0.22486   0.67655   0.00000  Uiso   1.00
H1097  H     0.69441   0.26638   0.65460   0.00000  Uiso   1.00
H1098  H     0.66992   0.21442   0.65795   0.00000  Uiso   1.00
O1099  O     0.91073   0.17332   0.90313   0.00000  Uiso   1.00
C1100  C     0.93168   0.13354   0.89661   0.00000  Uiso   1.00
H1101  H     0.95937   0.13066   0.91266   0.00000  Uiso   1.00
H1102  H     0.95130   0.12946   0.85894   0.00000  Uiso   1.00
C1103  C     0.89310   0.09871   0.91402   0.00000  Uiso   1.00
H1104  H     0.86330   0.10343   0.90111   0.00000  Uiso   1.00
H1105  H     0.91003   0.06838   0.90168   0.00000  Uiso   1.00
H1106  H     0.87738   0.09777   0.95235   0.00000  Uiso   1.00
O1107  O     0.89497   0.29149   0.78588   0.00000  Uiso   1.00
C1108  C     0.87091   0.28634   0.83429   0.00000  Uiso   1.00
H1109  H     0.85430   0.25480   0.84141   0.00000  Uiso   1.00
H1110  H     0.84119   0.30892   0.85083   0.00000  Uiso   1.00
C1111  C     0.90792   0.29118   0.85735   0.00000  Uiso   1.00
H1112  H     0.92198   0.32363   0.85359   0.00000  Uiso   1.00
H1113  H     0.89014   0.28347   0.89470   0.00000  Uiso   1.00
H1114  H     0.93922   0.27037   0.84140   0.00000  Uiso   1.00
O1115  O     0.75113   0.03863   0.74799   0.00000  Uiso   1.00
C1116  C     0.71309   0.02921   0.79121   0.00000  Uiso   1.00
H1117  H     0.72465   0.01156   0.81614   0.00000  Uiso   1.00
H1118  H     0.68467   0.00994   0.78509   0.00000  Uiso   1.00
C1119  C     0.68963   0.06878   0.81484   0.00000  Uiso   1.00
H1120  H     0.67483   0.08615   0.79253   0.00000  Uiso   1.00
H1121  H     0.99257   0.06075   0.84779   0.00000  Uiso   1.00
H1122  H     0.71668   0.08846   0.82268   0.00000  Uiso   1.00
N1123  N     0.89701   0.04294   0.78672   0.00000  Uiso   1.00
O1124  O     0.88003   0.06586   0.82333   0.00000  Uiso   1.00
O1125  O     0.94383   0.03713   0.76736   0.00000  Uiso   1.00
N1126  N     0.77758   0.29264   0.70769   0.00000  Uiso   1.00
O1127  O     0.80327   0.27130   0.67166   0.00000  Uiso   1.00
O1128  O     0.73207   0.29979   0.71486   0.00000  Uiso   1.00
O1129  O     0.12846   0.56108   0.75000   0.00000  Uiso   1.00
O1130  O     0.20488   0.43892   0.74999   0.00000  Uiso   1.00
O1131  O     0.20490   0.56107   0.75000   0.00000  Uiso   1.00
O1132  O     0.12843   0.43893   0.75000   0.00000  Uiso   1.00
C1133  C     0.16756   0.58006   0.74890   0.00000  Uiso   1.00
C1134  C     0.16496   0.42000   0.75327   0.00000  Uiso   1.00
O1135  O     0.10661   0.50001   0.81612   0.00000  Uiso   1.00
O1136  O     0.22672   0.49999   0.68387   0.00000  Uiso   1.00
O1137  O     0.18305   0.50000   0.81612   0.00000  Uiso   1.00
O1138  O     0.15028   0.50000   0.68388   0.00000  Uiso   1.00
C1139  C     0.13618   0.50032   0.83778   0.00000  Uiso   1.00
C1140  C     0.19707   0.50061   0.66217   0.00000  Uiso   1.00
Zn1141 Zn    0.11562   0.50001   0.75000   0.00000  Uiso   1.00
Zn1142 Zn    0.21771   0.49999   0.75000   0.00000  Uiso   1.00
C1143  C     0.11711   0.50038   0.88796   0.00000  Uiso   1.00
C1144  C     0.21529   0.50609   0.61225   0.00000  Uiso   1.00
C1145  C     0.05592   0.48254   0.96236   0.00000  Uiso   1.00
C1146  C     0.27581   0.52992   0.53981   0.00000  Uiso   1.00
C1147  C     0.07051   0.48474   0.91450   0.00000  Uiso   1.00
C1148  C     0.26234   0.52162   0.58683   0.00000  Uiso   1.00
C1149  C     0.14838   0.51395   0.90920   0.00000  Uiso   1.00
C1150  C     0.18195   0.49993   0.59088   0.00000  Uiso   1.00
C1151  C     0.13752   0.50640   0.95594   0.00000  Uiso   1.00
C1152  C     0.19265   0.51259   0.54548   0.00000  Uiso   1.00
C1153  C     0.08908   0.49353   0.98324   0.00000  Uiso   1.00
C1154  C     0.24157   0.52441   0.51878   0.00000  Uiso   1.00
C1155  C     0.17304   0.51189   0.97627   0.00000  Uiso   1.00
C1156  C     0.15694   0.51045   0.52520   0.00000  Uiso   1.00
C1157  C     0.10572   0.50628   0.55192   0.00000  Uiso   1.00
C1158  C     0.22440   0.51594   0.94968   0.00000  Uiso   1.00
C1159  C     0.07361   0.49402   0.53096   0.00000  Uiso   1.00
C1160  C     0.25668   0.52685   0.97111   0.00000  Uiso   1.00
H1161  H     0.03554   0.48783   0.55227   0.00000  Uiso   1.00
H1162  H     0.29494   0.53263   0.95004   0.00000  Uiso   1.00
H1163  H     0.14799   0.48384   0.61002   0.00000  Uiso   1.00
H1164  H     0.18103   0.53077   0.88845   0.00000  Uiso   1.00
H1165  H     0.28845   0.52712   0.60310   0.00000  Uiso   1.00
H1166  H     0.04573   0.47433   0.89834   0.00000  Uiso   1.00
H1167  H     0.01919   0.47167   0.98291   0.00000  Uiso   1.00
H1168  H     0.31294   0.54024   0.51986   0.00000  Uiso   1.00
C1169  C     0.19800   0.64548   0.76856   0.00000  Uiso   1.00
C1170  C     0.12693   0.35352   0.74676   0.00000  Uiso   1.00
C1171  C     0.19740   0.35486   0.76996   0.00000  Uiso   1.00
C1172  C     0.13469   0.64551   0.73534   0.00000  Uiso   1.00
C1173  C     0.16234   0.37569   0.75791   0.00000  Uiso   1.00
C1174  C     0.16826   0.62433   0.74917   0.00000  Uiso   1.00
C1175  C     0.32116   0.47653   0.71916   0.00000  Uiso   1.00
C1176  C     0.01206   0.52323   0.78105   0.00000  Uiso   1.00
H1177  H     0.31243   0.45786   0.69446   0.00000  Uiso   1.00
H1178  H     0.02067   0.54173   0.80594   0.00000  Uiso   1.00
C1179  C     0.03582   0.47659   0.71911   0.00000  Uiso   1.00
C1180  C     0.29743   0.52314   0.78104   0.00000  Uiso   1.00
H1181  H     0.06345   0.45786   0.69444   0.00000  Uiso   1.00
H1182  H     0.26953   0.54127   0.80603   0.00000  Uiso   1.00
N1183  N     0.04759   0.50001   0.75001   0.00000  Uiso   1.00
N1184  N     0.28574   0.49999   0.74999   0.00000  Uiso   1.00
O1185  O     0.08553   0.51596   0.59829   0.00000  Uiso   1.00
C1186  C     0.07342   0.55831   0.60236   0.00000  Uiso   1.00
H1187  H     0.05577   0.56798   0.57804   0.00000  Uiso   1.00
H1188  H     0.10695   0.57767   0.59577   0.00000  Uiso   1.00
C1189  C     0.03724   0.56645   0.65099   0.00000  Uiso   1.00
H1190  H     0.05350   0.55820   0.67655   0.00000  Uiso   1.00
H1191  H     0.02774   0.59971   0.65460   0.00000  Uiso   1.00
H1192  H     0.00325   0.54775   0.65795   0.00000  Uiso   1.00
O1193  O     0.24406   0.50665   0.90313   0.00000  Uiso   1.00
C1194  C     0.26501   0.46688   0.89661   0.00000  Uiso   1.00
H1195  H     0.29270   0.46400   0.91266   0.00000  Uiso   1.00
H1196  H     0.28464   0.46280   0.85894   0.00000  Uiso   1.00
C1197  C     0.22643   0.43204   0.91402   0.00000  Uiso   1.00
H1198  H     0.19663   0.43677   0.90111   0.00000  Uiso   1.00
H1199  H     0.24337   0.40171   0.90168   0.00000  Uiso   1.00
H1200  H     0.21071   0.43110   0.95235   0.00000  Uiso   1.00
O1201  O     0.22831   0.62483   0.78588   0.00000  Uiso   1.00
C1202  C     0.20424   0.61967   0.83429   0.00000  Uiso   1.00
H1203  H     0.18763   0.58813   0.84141   0.00000  Uiso   1.00
H1204  H     0.17452   0.64225   0.85083   0.00000  Uiso   1.00
C1205  C     0.24125   0.62451   0.85735   0.00000  Uiso   1.00
H1206  H     0.25531   0.65696   0.85359   0.00000  Uiso   1.00
H1207  H     0.22348   0.61680   0.89470   0.00000  Uiso   1.00
H1208  H     0.27255   0.60370   0.84140   0.00000  Uiso   1.00
O1209  O     0.08447   0.37197   0.74799   0.00000  Uiso   1.00
C1210  C     0.04643   0.36254   0.79121   0.00000  Uiso   1.00
H1211  H     0.05799   0.34490   0.81614   0.00000  Uiso   1.00
H1212  H     0.01801   0.34327   0.78509   0.00000  Uiso   1.00
C1213  C     0.02296   0.40211   0.81484   0.00000  Uiso   1.00
H1214  H     0.00816   0.41949   0.79253   0.00000  Uiso   1.00
H1215  H     0.32590   0.39408   0.84779   0.00000  Uiso   1.00
H1216  H     0.05002   0.42180   0.82268   0.00000  Uiso   1.00
N1217  N     0.23035   0.37627   0.78672   0.00000  Uiso   1.00
O1218  O     0.21336   0.39919   0.82333   0.00000  Uiso   1.00
O1219  O     0.27717   0.37047   0.76736   0.00000  Uiso   1.00
N1220  N     0.11091   0.62598   0.70769   0.00000  Uiso   1.00
O1221  O     0.13660   0.60463   0.67166   0.00000  Uiso   1.00
O1222  O     0.06541   0.63312   0.71486   0.00000  Uiso   1.00
O1223  O     0.46179   0.56108   0.75000   0.00000  Uiso   1.00
O1224  O     0.53821   0.43892   0.74999   0.00000  Uiso   1.00
O1225  O     0.53823   0.56107   0.75000   0.00000  Uiso   1.00
O1226  O     0.46177   0.43893   0.75000   0.00000  Uiso   1.00
C1227  C     0.50089   0.58006   0.74890   0.00000  Uiso   1.00
C1228  C     0.49829   0.42000   0.75327   0.00000  Uiso   1.00
O1229  O     0.43994   0.50001   0.81612   0.00000  Uiso   1.00
O1230  O     0.56006   0.49999   0.68387   0.00000  Uiso   1.00
O1231  O     0.51639   0.50000   0.81612   0.00000  Uiso   1.00
O1232  O     0.48361   0.50000   0.68388   0.00000  Uiso   1.00
C1233  C     0.46951   0.50032   0.83778   0.00000  Uiso   1.00
C1234  C     0.53040   0.50061   0.66217   0.00000  Uiso   1.00
Zn1235 Zn    0.44896   0.50001   0.75000   0.00000  Uiso   1.00
Zn1236 Zn    0.55104   0.49999   0.75000   0.00000  Uiso   1.00
C1237  C     0.45045   0.50038   0.88796   0.00000  Uiso   1.00
C1238  C     0.54862   0.50609   0.61225   0.00000  Uiso   1.00
C1239  C     0.38926   0.48254   0.96236   0.00000  Uiso   1.00
C1240  C     0.60914   0.52992   0.53981   0.00000  Uiso   1.00
C1241  C     0.40384   0.48474   0.91450   0.00000  Uiso   1.00
C1242  C     0.59567   0.52162   0.58683   0.00000  Uiso   1.00
C1243  C     0.48171   0.51395   0.90920   0.00000  Uiso   1.00
C1244  C     0.51528   0.49993   0.59088   0.00000  Uiso   1.00
C1245  C     0.47085   0.50640   0.95594   0.00000  Uiso   1.00
C1246  C     0.52598   0.51259   0.54548   0.00000  Uiso   1.00
C1247  C     0.42241   0.49353   0.98324   0.00000  Uiso   1.00
C1248  C     0.57491   0.52441   0.51878   0.00000  Uiso   1.00
C1249  C     0.50638   0.51189   0.97627   0.00000  Uiso   1.00
C1250  C     0.49027   0.51045   0.52520   0.00000  Uiso   1.00
C1251  C     0.43906   0.50628   0.55192   0.00000  Uiso   1.00
C1252  C     0.55773   0.51594   0.94968   0.00000  Uiso   1.00
C1253  C     0.40695   0.49402   0.53096   0.00000  Uiso   1.00
C1254  C     0.59002   0.52685   0.97111   0.00000  Uiso   1.00
H1255  H     0.36887   0.48783   0.55227   0.00000  Uiso   1.00
H1256  H     0.62828   0.53263   0.95004   0.00000  Uiso   1.00
H1257  H     0.48132   0.48384   0.61002   0.00000  Uiso   1.00
H1258  H     0.51436   0.53077   0.88845   0.00000  Uiso   1.00
H1259  H     0.62178   0.52712   0.60310   0.00000  Uiso   1.00
H1260  H     0.37907   0.47433   0.89834   0.00000  Uiso   1.00
H1261  H     0.35252   0.47167   0.98291   0.00000  Uiso   1.00
H1262  H     0.64627   0.54024   0.51986   0.00000  Uiso   1.00
C1263  C     0.53133   0.64548   0.76856   0.00000  Uiso   1.00
C1264  C     0.46026   0.35352   0.74676   0.00000  Uiso   1.00
C1265  C     0.53073   0.35486   0.76996   0.00000  Uiso   1.00
C1266  C     0.46803   0.64551   0.73534   0.00000  Uiso   1.00
C1267  C     0.49568   0.37569   0.75791   0.00000  Uiso   1.00
C1268  C     0.50159   0.62433   0.74917   0.00000  Uiso   1.00
C1269  C     0.65449   0.47653   0.71916   0.00000  Uiso   1.00
C1270  C     0.34540   0.52323   0.78105   0.00000  Uiso   1.00
H1271  H     0.64577   0.45786   0.69446   0.00000  Uiso   1.00
H1272  H     0.35401   0.54173   0.80594   0.00000  Uiso   1.00
C1273  C     0.36916   0.47659   0.71911   0.00000  Uiso   1.00
C1274  C     0.63076   0.52314   0.78104   0.00000  Uiso   1.00
H1275  H     0.39678   0.45786   0.69444   0.00000  Uiso   1.00
H1276  H     0.60287   0.54127   0.80603   0.00000  Uiso   1.00
N1277  N     0.38093   0.50001   0.75001   0.00000  Uiso   1.00
N1278  N     0.61907   0.49999   0.74999   0.00000  Uiso   1.00
O1279  O     0.41886   0.51596   0.59829   0.00000  Uiso   1.00
C1280  C     0.40675   0.55831   0.60236   0.00000  Uiso   1.00
H1281  H     0.38911   0.56798   0.57804   0.00000  Uiso   1.00
H1282  H     0.44029   0.57767   0.59577   0.00000  Uiso   1.00
C1283  C     0.37057   0.56645   0.65099   0.00000  Uiso   1.00
H1284  H     0.38684   0.55820   0.67655   0.00000  Uiso   1.00
H1285  H     0.36107   0.59971   0.65460   0.00000  Uiso   1.00
H1286  H     0.33659   0.54775   0.65795   0.00000  Uiso   1.00
O1287  O     0.57739   0.50665   0.90313   0.00000  Uiso   1.00
C1288  C     0.59835   0.46688   0.89661   0.00000  Uiso   1.00
H1289  H     0.62604   0.46400   0.91266   0.00000  Uiso   1.00
H1290  H     0.61797   0.46280   0.85894   0.00000  Uiso   1.00
C1291  C     0.55976   0.43204   0.91402   0.00000  Uiso   1.00
H1292  H     0.52997   0.43677   0.90111   0.00000  Uiso   1.00
H1293  H     0.57670   0.40171   0.90168   0.00000  Uiso   1.00
H1294  H     0.54404   0.43110   0.95235   0.00000  Uiso   1.00
O1295  O     0.56164   0.62483   0.78588   0.00000  Uiso   1.00
C1296  C     0.53757   0.61967   0.83429   0.00000  Uiso   1.00
H1297  H     0.52097   0.58813   0.84141   0.00000  Uiso   1.00
H1298  H     0.50785   0.64225   0.85083   0.00000  Uiso   1.00
C1299  C     0.57459   0.62451   0.85735   0.00000  Uiso   1.00
H1300  H     0.58864   0.65696   0.85359   0.00000  Uiso   1.00
H1301  H     0.55681   0.61680   0.89470   0.00000  Uiso   1.00
H1302  H     0.60589   0.60370   0.84140   0.00000  Uiso   1.00
O1303  O     0.41780   0.37197   0.74799   0.00000  Uiso   1.00
C1304  C     0.37976   0.36254   0.79121   0.00000  Uiso   1.00
H1305  H     0.39132   0.34490   0.81614   0.00000  Uiso   1.00
H1306  H     0.35134   0.34327   0.78509   0.00000  Uiso   1.00
C1307  C     0.35630   0.40211   0.81484   0.00000  Uiso   1.00
H1308  H     0.34149   0.41949   0.79253   0.00000  Uiso   1.00
H1309  H     0.65924   0.39408   0.84779   0.00000  Uiso   1.00
H1310  H     0.38335   0.42180   0.82268   0.00000  Uiso   1.00
N1311  N     0.56368   0.37627   0.78672   0.00000  Uiso   1.00
O1312  O     0.54670   0.39919   0.82333   0.00000  Uiso   1.00
O1313  O     0.61050   0.37047   0.76736   0.00000  Uiso   1.00
N1314  N     0.44424   0.62598   0.70769   0.00000  Uiso   1.00
O1315  O     0.46993   0.60463   0.67166   0.00000  Uiso   1.00
O1316  O     0.39874   0.63312   0.71486   0.00000  Uiso   1.00
O1317  O     0.79512   0.56108   0.75000   0.00000  Uiso   1.00
O1318  O     0.87154   0.43892   0.74999   0.00000  Uiso   1.00
O1319  O     0.87157   0.56107   0.75000   0.00000  Uiso   1.00
O1320  O     0.79510   0.43893   0.75000   0.00000  Uiso   1.00
C1321  C     0.83422   0.58006   0.74890   0.00000  Uiso   1.00
C1322  C     0.83163   0.42000   0.75327   0.00000  Uiso   1.00
O1323  O     0.77328   0.50001   0.81612   0.00000  Uiso   1.00
O1324  O     0.89339   0.49999   0.68387   0.00000  Uiso   1.00
O1325  O     0.84972   0.50000   0.81612   0.00000  Uiso   1.00
O1326  O     0.81695   0.50000   0.68388   0.00000  Uiso   1.00
C1327  C     0.80284   0.50032   0.83778   0.00000  Uiso   1.00
C1328  C     0.86374   0.50061   0.66217   0.00000  Uiso   1.00
Zn1329 Zn    0.78229   0.50001   0.75000   0.00000  Uiso   1.00
Zn1330 Zn    0.88438   0.49999   0.75000   0.00000  Uiso   1.00
C1331  C     0.78378   0.50038   0.88796   0.00000  Uiso   1.00
C1332  C     0.88195   0.50609   0.61225   0.00000  Uiso   1.00
C1333  C     0.72259   0.48254   0.96236   0.00000  Uiso   1.00
C1334  C     0.94248   0.52992   0.53981   0.00000  Uiso   1.00
C1335  C     0.73717   0.48474   0.91450   0.00000  Uiso   1.00
C1336  C     0.92900   0.52162   0.58683   0.00000  Uiso   1.00
C1337  C     0.81505   0.51395   0.90920   0.00000  Uiso   1.00
C1338  C     0.84861   0.49993   0.59088   0.00000  Uiso   1.00
C1339  C     0.80418   0.50640   0.95594   0.00000  Uiso   1.00
C1340  C     0.85931   0.51259   0.54548   0.00000  Uiso   1.00
C1341  C     0.75574   0.49353   0.98324   0.00000  Uiso   1.00
C1342  C     0.90824   0.52441   0.51878   0.00000  Uiso   1.00
C1343  C     0.83971   0.51189   0.97627   0.00000  Uiso   1.00
C1344  C     0.82360   0.51045   0.52520   0.00000  Uiso   1.00
C1345  C     0.77239   0.50628   0.55192   0.00000  Uiso   1.00
C1346  C     0.89107   0.51594   0.94968   0.00000  Uiso   1.00
C1347  C     0.74028   0.49402   0.53096   0.00000  Uiso   1.00
C1348  C     0.92335   0.52685   0.97111   0.00000  Uiso   1.00
H1349  H     0.70220   0.48783   0.55227   0.00000  Uiso   1.00
H1350  H     0.96161   0.53263   0.95004   0.00000  Uiso   1.00
H1351  H     0.81465   0.48384   0.61002   0.00000  Uiso   1.00
H1352  H     0.84769   0.53077   0.88845   0.00000  Uiso   1.00
H1353  H     0.95511   0.52712   0.60310   0.00000  Uiso   1.00
H1354  H     0.71240   0.47433   0.89834   0.00000  Uiso   1.00
H1355  H     0.68585   0.47167   0.98291   0.00000  Uiso   1.00
H1356  H     0.97960   0.54024   0.51986   0.00000  Uiso   1.00
C1357  C     0.86467   0.64548   0.76856   0.00000  Uiso   1.00
C1358  C     0.79359   0.35352   0.74676   0.00000  Uiso   1.00
C1359  C     0.86407   0.35486   0.76996   0.00000  Uiso   1.00
C1360  C     0.80136   0.64551   0.73534   0.00000  Uiso   1.00
C1361  C     0.82901   0.37569   0.75791   0.00000  Uiso   1.00
C1362  C     0.83492   0.62433   0.74917   0.00000  Uiso   1.00
C1363  C     0.98783   0.47653   0.71916   0.00000  Uiso   1.00
C1364  C     0.67873   0.52323   0.78105   0.00000  Uiso   1.00
H1365  H     0.97910   0.45786   0.69446   0.00000  Uiso   1.00
H1366  H     0.68734   0.54173   0.80594   0.00000  Uiso   1.00
C1367  C     0.70249   0.47659   0.71911   0.00000  Uiso   1.00
C1368  C     0.96409   0.52314   0.78104   0.00000  Uiso   1.00
H1369  H     0.73011   0.45786   0.69444   0.00000  Uiso   1.00
H1370  H     0.93620   0.54127   0.80603   0.00000  Uiso   1.00
N1371  N     0.71426   0.50001   0.75001   0.00000  Uiso   1.00
N1372  N     0.95241   0.49999   0.74999   0.00000  Uiso   1.00
O1373  O     0.75219   0.51596   0.59829   0.00000  Uiso   1.00
C1374  C     0.74008   0.55831   0.60236   0.00000  Uiso   1.00
H1375  H     0.72244   0.56798   0.57804   0.00000  Uiso   1.00
H1376  H     0.77362   0.57767   0.59577   0.00000  Uiso   1.00
C1377  C     0.70390   0.56645   0.65099   0.00000  Uiso   1.00
H1378  H     0.72017   0.55820   0.67655   0.00000  Uiso   1.00
H1379  H     0.69441   0.59971   0.65460   0.00000  Uiso   1.00
H1380  H     0.66992   0.54775   0.65795   0.00000  Uiso   1.00
O1381  O     0.91073   0.50665   0.90313   0.00000  Uiso   1.00
C1382  C     0.93168   0.46688   0.89661   0.00000  Uiso   1.00
H1383  H     0.95937   0.46400   0.91266   0.00000  Uiso   1.00
H1384  H     0.95130   0.46280   0.85894   0.00000  Uiso   1.00
C1385  C     0.89310   0.43204   0.91402   0.00000  Uiso   1.00
H1386  H     0.86330   0.43677   0.90111   0.00000  Uiso   1.00
H1387  H     0.91003   0.40171   0.90168   0.00000  Uiso   1.00
H1388  H     0.87738   0.43110   0.95235   0.00000  Uiso   1.00
O1389  O     0.89497   0.62483   0.78588   0.00000  Uiso   1.00
C1390  C     0.87091   0.61967   0.83429   0.00000  Uiso   1.00
H1391  H     0.85430   0.58813   0.84141   0.00000  Uiso   1.00
H1392  H     0.84119   0.64225   0.85083   0.00000  Uiso   1.00
C1393  C     0.90792   0.62451   0.85735   0.00000  Uiso   1.00
H1394  H     0.92198   0.65696   0.85359   0.00000  Uiso   1.00
H1395  H     0.89014   0.61680   0.89470   0.00000  Uiso   1.00
H1396  H     0.93922   0.60370   0.84140   0.00000  Uiso   1.00
O1397  O     0.75113   0.37197   0.74799   0.00000  Uiso   1.00
C1398  C     0.71309   0.36254   0.79121   0.00000  Uiso   1.00
H1399  H     0.72465   0.34490   0.81614   0.00000  Uiso   1.00
H1400  H     0.68467   0.34327   0.78509   0.00000  Uiso   1.00
C1401  C     0.68963   0.40211   0.81484   0.00000  Uiso   1.00
H1402  H     0.67483   0.41949   0.79253   0.00000  Uiso   1.00
H1403  H     0.99257   0.39408   0.84779   0.00000  Uiso   1.00
H1404  H     0.71668   0.42180   0.82268   0.00000  Uiso   1.00
N1405  N     0.89701   0.37627   0.78672   0.00000  Uiso   1.00
O1406  O     0.88003   0.39919   0.82333   0.00000  Uiso   1.00
O1407  O     0.94383   0.37047   0.76736   0.00000  Uiso   1.00
N1408  N     0.77758   0.62598   0.70769   0.00000  Uiso   1.00
O1409  O     0.80327   0.60463   0.67166   0.00000  Uiso   1.00
O1410  O     0.73207   0.63312   0.71486   0.00000  Uiso   1.00
O1411  O     0.12846   0.89442   0.75000   0.00000  Uiso   1.00
O1412  O     0.20488   0.77225   0.74999   0.00000  Uiso   1.00
O1413  O     0.20490   0.89441   0.75000   0.00000  Uiso   1.00
O1414  O     0.12843   0.77226   0.75000   0.00000  Uiso   1.00
C1415  C     0.16756   0.91339   0.74890   0.00000  Uiso   1.00
C1416  C     0.16496   0.75334   0.75327   0.00000  Uiso   1.00
O1417  O     0.10661   0.83334   0.81612   0.00000  Uiso   1.00
O1418  O     0.22672   0.83333   0.68387   0.00000  Uiso   1.00
O1419  O     0.18305   0.83333   0.81612   0.00000  Uiso   1.00
O1420  O     0.15028   0.83334   0.68388   0.00000  Uiso   1.00
C1421  C     0.13618   0.83365   0.83778   0.00000  Uiso   1.00
C1422  C     0.19707   0.83395   0.66217   0.00000  Uiso   1.00
Zn1423 Zn    0.11562   0.83334   0.75000   0.00000  Uiso   1.00
Zn1424 Zn    0.21771   0.83333   0.75000   0.00000  Uiso   1.00
C1425  C     0.11711   0.83372   0.88796   0.00000  Uiso   1.00
C1426  C     0.21529   0.83942   0.61225   0.00000  Uiso   1.00
C1427  C     0.05592   0.81587   0.96236   0.00000  Uiso   1.00
C1428  C     0.27581   0.86325   0.53981   0.00000  Uiso   1.00
C1429  C     0.07051   0.81807   0.91450   0.00000  Uiso   1.00
C1430  C     0.26234   0.85496   0.58683   0.00000  Uiso   1.00
C1431  C     0.14838   0.84728   0.90920   0.00000  Uiso   1.00
C1432  C     0.18195   0.83326   0.59088   0.00000  Uiso   1.00
C1433  C     0.13752   0.83974   0.95594   0.00000  Uiso   1.00
C1434  C     0.19265   0.84592   0.54548   0.00000  Uiso   1.00
C1435  C     0.08908   0.82687   0.98324   0.00000  Uiso   1.00
C1436  C     0.24157   0.85774   0.51878   0.00000  Uiso   1.00
C1437  C     0.17304   0.84522   0.97627   0.00000  Uiso   1.00
C1438  C     0.15694   0.84379   0.52520   0.00000  Uiso   1.00
C1439  C     0.10572   0.83962   0.55192   0.00000  Uiso   1.00
C1440  C     0.22440   0.84927   0.94968   0.00000  Uiso   1.00
C1441  C     0.07361   0.82735   0.53096   0.00000  Uiso   1.00
C1442  C     0.25668   0.86018   0.97111   0.00000  Uiso   1.00
H1443  H     0.03554   0.82117   0.55227   0.00000  Uiso   1.00
H1444  H     0.29494   0.86596   0.95004   0.00000  Uiso   1.00
H1445  H     0.14799   0.81717   0.61002   0.00000  Uiso   1.00
H1446  H     0.18103   0.86411   0.88845   0.00000  Uiso   1.00
H1447  H     0.28845   0.86046   0.60310   0.00000  Uiso   1.00
H1448  H     0.04573   0.80767   0.89834   0.00000  Uiso   1.00
H1449  H     0.01919   0.80500   0.98291   0.00000  Uiso   1.00
H1450  H     0.31294   0.87358   0.51986   0.00000  Uiso   1.00
C1451  C     0.19800   0.97881   0.76856   0.00000  Uiso   1.00
C1452  C     0.12693   0.68686   0.74676   0.00000  Uiso   1.00
C1453  C     0.19740   0.68820   0.76996   0.00000  Uiso   1.00
C1454  C     0.13469   0.97884   0.73534   0.00000  Uiso   1.00
C1455  C     0.16234   0.70903   0.75791   0.00000  Uiso   1.00
C1456  C     0.16826   0.95766   0.74917   0.00000  Uiso   1.00
C1457  C     0.32116   0.80986   0.71916   0.00000  Uiso   1.00
C1458  C     0.01206   0.85656   0.78105   0.00000  Uiso   1.00
H1459  H     0.31243   0.79119   0.69446   0.00000  Uiso   1.00
H1460  H     0.02067   0.87507   0.80594   0.00000  Uiso   1.00
C1461  C     0.03582   0.80993   0.71911   0.00000  Uiso   1.00
C1462  C     0.29743   0.85647   0.78104   0.00000  Uiso   1.00
H1463  H     0.06345   0.79120   0.69444   0.00000  Uiso   1.00
H1464  H     0.26953   0.87460   0.80603   0.00000  Uiso   1.00
N1465  N     0.04759   0.83334   0.75001   0.00000  Uiso   1.00
N1466  N     0.28574   0.83332   0.74999   0.00000  Uiso   1.00
O1467  O     0.08553   0.84930   0.59829   0.00000  Uiso   1.00
C1468  C     0.07342   0.89164   0.60236   0.00000  Uiso   1.00
H1469  H     0.05577   0.90132   0.57804   0.00000  Uiso   1.00
H1470  H     0.10695   0.91100   0.59577   0.00000  Uiso   1.00
C1471  C     0.03724   0.89979   0.65099   0.00000  Uiso   1.00
H1472  H     0.05350   0.89153   0.67655   0.00000  Uiso   1.00
H1473  H     0.02774   0.93305   0.65460   0.00000  Uiso   1.00
H1474  H     0.00325   0.88108   0.65795   0.00000  Uiso   1.00
O1475  O     0.24406   0.83999   0.90313   0.00000  Uiso   1.00
C1476  C     0.26501   0.80021   0.89661   0.00000  Uiso   1.00
H1477  H     0.29270   0.79733   0.91266   0.00000  Uiso   1.00
H1478  H     0.28464   0.79613   0.85894   0.00000  Uiso   1.00
C1479  C     0.22643   0.76537   0.91402   0.00000  Uiso   1.00
H1480  H     0.19663   0.77010   0.90111   0.00000  Uiso   1.00
H1481  H     0.24337   0.73504   0.90168   0.00000  Uiso   1.00
H1482  H     0.21071   0.76444   0.95235   0.00000  Uiso   1.00
O1483  O     0.22831   0.95816   0.78588   0.00000  Uiso   1.00
C1484  C     0.20424   0.95301   0.83429   0.00000  Uiso   1.00
H1485  H     0.18763   0.92146   0.84141   0.00000  Uiso   1.00
H1486  H     0.17452   0.97558   0.85083   0.00000  Uiso   1.00
C1487  C     0.24125   0.95784   0.85735   0.00000  Uiso   1.00
H1488  H     0.25531   0.99030   0.85359   0.00000  Uiso   1.00
H1489  H     0.22348   0.95014   0.89470   0.00000  Uiso   1.00
H1490  H     0.27255   0.93703   0.84140   0.00000  Uiso   1.00
O1491  O     0.08447   0.70530   0.74799   0.00000  Uiso   1.00
C1492  C     0.04643   0.69587   0.79121   0.00000  Uiso   1.00
H1493  H     0.05799   0.67823   0.81614   0.00000  Uiso   1.00
H1494  H     0.01801   0.67661   0.78509   0.00000  Uiso   1.00
C1495  C     0.02296   0.73545   0.81484   0.00000  Uiso   1.00
H1496  H     0.00816   0.75282   0.79253   0.00000  Uiso   1.00
H1497  H     0.32590   0.72742   0.84779   0.00000  Uiso   1.00
H1498  H     0.05002   0.75513   0.82268   0.00000  Uiso   1.00
N1499  N     0.23035   0.70961   0.78672   0.00000  Uiso   1.00
O1500  O     0.21336   0.73253   0.82333   0.00000  Uiso   1.00
O1501  O     0.27717   0.70380   0.76736   0.00000  Uiso   1.00
N1502  N     0.11091   0.95931   0.70769   0.00000  Uiso   1.00
O1503  O     0.13660   0.93796   0.67166   0.00000  Uiso   1.00
O1504  O     0.06541   0.96645   0.71486   0.00000  Uiso   1.00
O1505  O     0.46179   0.89442   0.75000   0.00000  Uiso   1.00
O1506  O     0.53821   0.77225   0.74999   0.00000  Uiso   1.00
O1507  O     0.53823   0.89441   0.75000   0.00000  Uiso   1.00
O1508  O     0.46177   0.77226   0.75000   0.00000  Uiso   1.00
C1509  C     0.50089   0.91339   0.74890   0.00000  Uiso   1.00
C1510  C     0.49829   0.75334   0.75327   0.00000  Uiso   1.00
O1511  O     0.43994   0.83334   0.81612   0.00000  Uiso   1.00
O1512  O     0.56006   0.83333   0.68387   0.00000  Uiso   1.00
O1513  O     0.51639   0.83333   0.81612   0.00000  Uiso   1.00
O1514  O     0.48361   0.83334   0.68388   0.00000  Uiso   1.00
C1515  C     0.46951   0.83365   0.83778   0.00000  Uiso   1.00
C1516  C     0.53040   0.83395   0.66217   0.00000  Uiso   1.00
Zn1517 Zn    0.44896   0.83334   0.75000   0.00000  Uiso   1.00
Zn1518 Zn    0.55104   0.83333   0.75000   0.00000  Uiso   1.00
C1519  C     0.45045   0.83372   0.88796   0.00000  Uiso   1.00
C1520  C     0.54862   0.83942   0.61225   0.00000  Uiso   1.00
C1521  C     0.38926   0.81587   0.96236   0.00000  Uiso   1.00
C1522  C     0.60914   0.86325   0.53981   0.00000  Uiso   1.00
C1523  C     0.40384   0.81807   0.91450   0.00000  Uiso   1.00
C1524  C     0.59567   0.85496   0.58683   0.00000  Uiso   1.00
C1525  C     0.48171   0.84728   0.90920   0.00000  Uiso   1.00
C1526  C     0.51528   0.83326   0.59088   0.00000  Uiso   1.00
C1527  C     0.47085   0.83974   0.95594   0.00000  Uiso   1.00
C1528  C     0.52598   0.84592   0.54548   0.00000  Uiso   1.00
C1529  C     0.42241   0.82687   0.98324   0.00000  Uiso   1.00
C1530  C     0.57491   0.85774   0.51878   0.00000  Uiso   1.00
C1531  C     0.50638   0.84522   0.97627   0.00000  Uiso   1.00
C1532  C     0.49027   0.84379   0.52520   0.00000  Uiso   1.00
C1533  C     0.43906   0.83962   0.55192   0.00000  Uiso   1.00
C1534  C     0.55773   0.84927   0.94968   0.00000  Uiso   1.00
C1535  C     0.40695   0.82735   0.53096   0.00000  Uiso   1.00
C1536  C     0.59002   0.86018   0.97111   0.00000  Uiso   1.00
H1537  H     0.36887   0.82117   0.55227   0.00000  Uiso   1.00
H1538  H     0.62828   0.86596   0.95004   0.00000  Uiso   1.00
H1539  H     0.48132   0.81717   0.61002   0.00000  Uiso   1.00
H1540  H     0.51436   0.86411   0.88845   0.00000  Uiso   1.00
H1541  H     0.62178   0.86046   0.60310   0.00000  Uiso   1.00
H1542  H     0.37907   0.80767   0.89834   0.00000  Uiso   1.00
H1543  H     0.35252   0.80500   0.98291   0.00000  Uiso   1.00
H1544  H     0.64627   0.87358   0.51986   0.00000  Uiso   1.00
C1545  C     0.53133   0.97881   0.76856   0.00000  Uiso   1.00
C1546  C     0.46026   0.68686   0.74676   0.00000  Uiso   1.00
C1547  C     0.53073   0.68820   0.76996   0.00000  Uiso   1.00
C1548  C     0.46803   0.97884   0.73534   0.00000  Uiso   1.00
C1549  C     0.49568   0.70903   0.75791   0.00000  Uiso   1.00
C1550  C     0.50159   0.95766   0.74917   0.00000  Uiso   1.00
C1551  C     0.65449   0.80986   0.71916   0.00000  Uiso   1.00
C1552  C     0.34540   0.85656   0.78105   0.00000  Uiso   1.00
H1553  H     0.64577   0.79119   0.69446   0.00000  Uiso   1.00
H1554  H     0.35401   0.87507   0.80594   0.00000  Uiso   1.00
C1555  C     0.36916   0.80993   0.71911   0.00000  Uiso   1.00
C1556  C     0.63076   0.85647   0.78104   0.00000  Uiso   1.00
H1557  H     0.39678   0.79120   0.69444   0.00000  Uiso   1.00
H1558  H     0.60287   0.87460   0.80603   0.00000  Uiso   1.00
N1559  N     0.38093   0.83334   0.75001   0.00000  Uiso   1.00
N1560  N     0.61907   0.83332   0.74999   0.00000  Uiso   1.00
O1561  O     0.41886   0.84930   0.59829   0.00000  Uiso   1.00
C1562  C     0.40675   0.89164   0.60236   0.00000  Uiso   1.00
H1563  H     0.38911   0.90132   0.57804   0.00000  Uiso   1.00
H1564  H     0.44029   0.91100   0.59577   0.00000  Uiso   1.00
C1565  C     0.37057   0.89979   0.65099   0.00000  Uiso   1.00
H1566  H     0.38684   0.89153   0.67655   0.00000  Uiso   1.00
H1567  H     0.36107   0.93305   0.65460   0.00000  Uiso   1.00
H1568  H     0.33659   0.88108   0.65795   0.00000  Uiso   1.00
O1569  O     0.57739   0.83999   0.90313   0.00000  Uiso   1.00
C1570  C     0.59835   0.80021   0.89661   0.00000  Uiso   1.00
H1571  H     0.62604   0.79733   0.91266   0.00000  Uiso   1.00
H1572  H     0.61797   0.79613   0.85894   0.00000  Uiso   1.00
C1573  C     0.55976   0.76537   0.91402   0.00000  Uiso   1.00
H1574  H     0.52997   0.77010   0.90111   0.00000  Uiso   1.00
H1575  H     0.57670   0.73504   0.90168   0.00000  Uiso   1.00
H1576  H     0.54404   0.76444   0.95235   0.00000  Uiso   1.00
O1577  O     0.56164   0.95816   0.78588   0.00000  Uiso   1.00
C1578  C     0.53757   0.95301   0.83429   0.00000  Uiso   1.00
H1579  H     0.52097   0.92146   0.84141   0.00000  Uiso   1.00
H1580  H     0.50785   0.97558   0.85083   0.00000  Uiso   1.00
C1581  C     0.57459   0.95784   0.85735   0.00000  Uiso   1.00
H1582  H     0.58864   0.99030   0.85359   0.00000  Uiso   1.00
H1583  H     0.55681   0.95014   0.89470   0.00000  Uiso   1.00
H1584  H     0.60589   0.93703   0.84140   0.00000  Uiso   1.00
O1585  O     0.41780   0.70530   0.74799   0.00000  Uiso   1.00
C1586  C     0.37976   0.69587   0.79121   0.00000  Uiso   1.00
H1587  H     0.39132   0.67823   0.81614   0.00000  Uiso   1.00
H1588  H     0.35134   0.67661   0.78509   0.00000  Uiso   1.00
C1589  C     0.35630   0.73545   0.81484   0.00000  Uiso   1.00
H1590  H     0.34149   0.75282   0.79253   0.00000  Uiso   1.00
H1591  H     0.65924   0.72742   0.84779   0.00000  Uiso   1.00
H1592  H     0.38335   0.75513   0.82268   0.00000  Uiso   1.00
N1593  N     0.56368   0.70961   0.78672   0.00000  Uiso   1.00
O1594  O     0.54670   0.73253   0.82333   0.00000  Uiso   1.00
O1595  O     0.61050   0.70380   0.76736   0.00000  Uiso   1.00
N1596  N     0.44424   0.95931   0.70769   0.00000  Uiso   1.00
O1597  O     0.46993   0.93796   0.67166   0.00000  Uiso   1.00
O1598  O     0.39874   0.96645   0.71486   0.00000  Uiso   1.00
O1599  O     0.79512   0.89442   0.75000   0.00000  Uiso   1.00
O1600  O     0.87154   0.77225   0.74999   0.00000  Uiso   1.00
O1601  O     0.87157   0.89441   0.75000   0.00000  Uiso   1.00
O1602  O     0.79510   0.77226   0.75000   0.00000  Uiso   1.00
C1603  C     0.83422   0.91339   0.74890   0.00000  Uiso   1.00
C1604  C     0.83163   0.75334   0.75327   0.00000  Uiso   1.00
O1605  O     0.77328   0.83334   0.81612   0.00000  Uiso   1.00
O1606  O     0.89339   0.83333   0.68387   0.00000  Uiso   1.00
O1607  O     0.84972   0.83333   0.81612   0.00000  Uiso   1.00
O1608  O     0.81695   0.83334   0.68388   0.00000  Uiso   1.00
C1609  C     0.80284   0.83365   0.83778   0.00000  Uiso   1.00
C1610  C     0.86374   0.83395   0.66217   0.00000  Uiso   1.00
Zn1611 Zn    0.78229   0.83334   0.75000   0.00000  Uiso   1.00
Zn1612 Zn    0.88438   0.83333   0.75000   0.00000  Uiso   1.00
C1613  C     0.78378   0.83372   0.88796   0.00000  Uiso   1.00
C1614  C     0.88195   0.83942   0.61225   0.00000  Uiso   1.00
C1615  C     0.72259   0.81587   0.96236   0.00000  Uiso   1.00
C1616  C     0.94248   0.86325   0.53981   0.00000  Uiso   1.00
C1617  C     0.73717   0.81807   0.91450   0.00000  Uiso   1.00
C1618  C     0.92900   0.85496   0.58683   0.00000  Uiso   1.00
C1619  C     0.81505   0.84728   0.90920   0.00000  Uiso   1.00
C1620  C     0.84861   0.83326   0.59088   0.00000  Uiso   1.00
C1621  C     0.80418   0.83974   0.95594   0.00000  Uiso   1.00
C1622  C     0.85931   0.84592   0.54548   0.00000  Uiso   1.00
C1623  C     0.75574   0.82687   0.98324   0.00000  Uiso   1.00
C1624  C     0.90824   0.85774   0.51878   0.00000  Uiso   1.00
C1625  C     0.83971   0.84522   0.97627   0.00000  Uiso   1.00
C1626  C     0.82360   0.84379   0.52520   0.00000  Uiso   1.00
C1627  C     0.77239   0.83962   0.55192   0.00000  Uiso   1.00
C1628  C     0.89107   0.84927   0.94968   0.00000  Uiso   1.00
C1629  C     0.74028   0.82735   0.53096   0.00000  Uiso   1.00
C1630  C     0.92335   0.86018   0.97111   0.00000  Uiso   1.00
H1631  H     0.70220   0.82117   0.55227   0.00000  Uiso   1.00
H1632  H     0.96161   0.86596   0.95004   0.00000  Uiso   1.00
H1633  H     0.81465   0.81717   0.61002   0.00000  Uiso   1.00
H1634  H     0.84769   0.86411   0.88845   0.00000  Uiso   1.00
H1635  H     0.95511   0.86046   0.60310   0.00000  Uiso   1.00
H1636  H     0.71240   0.80767   0.89834   0.00000  Uiso   1.00
H1637  H     0.68585   0.80500   0.98291   0.00000  Uiso   1.00
H1638  H     0.97960   0.87358   0.51986   0.00000  Uiso   1.00
C1639  C     0.86467   0.97881   0.76856   0.00000  Uiso   1.00
C1640  C     0.79359   0.68686   0.74676   0.00000  Uiso   1.00
C1641  C     0.86407   0.68820   0.76996   0.00000  Uiso   1.00
C1642  C     0.80136   0.97884   0.73534   0.00000  Uiso   1.00
C1643  C     0.82901   0.70903   0.75791   0.00000  Uiso   1.00
C1644  C     0.83492   0.95766   0.74917   0.00000  Uiso   1.00
C1645  C     0.98783   0.80986   0.71916   0.00000  Uiso   1.00
C1646  C     0.67873   0.85656   0.78105   0.00000  Uiso   1.00
H1647  H     0.97910   0.79119   0.69446   0.00000  Uiso   1.00
H1648  H     0.68734   0.87507   0.80594   0.00000  Uiso   1.00
C1649  C     0.70249   0.80993   0.71911   0.00000  Uiso   1.00
C1650  C     0.96409   0.85647   0.78104   0.00000  Uiso   1.00
H1651  H     0.73011   0.79120   0.69444   0.00000  Uiso   1.00
H1652  H     0.93620   0.87460   0.80603   0.00000  Uiso   1.00
N1653  N     0.71426   0.83334   0.75001   0.00000  Uiso   1.00
N1654  N     0.95241   0.83332   0.74999   0.00000  Uiso   1.00
O1655  O     0.75219   0.84930   0.59829   0.00000  Uiso   1.00
C1656  C     0.74008   0.89164   0.60236   0.00000  Uiso   1.00
H1657  H     0.72244   0.90132   0.57804   0.00000  Uiso   1.00
H1658  H     0.77362   0.91100   0.59577   0.00000  Uiso   1.00
C1659  C     0.70390   0.89979   0.65099   0.00000  Uiso   1.00
H1660  H     0.72017   0.89153   0.67655   0.00000  Uiso   1.00
H1661  H     0.69441   0.93305   0.65460   0.00000  Uiso   1.00
H1662  H     0.66992   0.88108   0.65795   0.00000  Uiso   1.00
O1663  O     0.91073   0.83999   0.90313   0.00000  Uiso   1.00
C1664  C     0.93168   0.80021   0.89661   0.00000  Uiso   1.00
H1665  H     0.95937   0.79733   0.91266   0.00000  Uiso   1.00
H1666  H     0.95130   0.79613   0.85894   0.00000  Uiso   1.00
C1667  C     0.89310   0.76537   0.91402   0.00000  Uiso   1.00
H1668  H     0.86330   0.77010   0.90111   0.00000  Uiso   1.00
H1669  H     0.91003   0.73504   0.90168   0.00000  Uiso   1.00
H1670  H     0.87738   0.76444   0.95235   0.00000  Uiso   1.00
O1671  O     0.89497   0.95816   0.78588   0.00000  Uiso   1.00
C1672  C     0.87091   0.95301   0.83429   0.00000  Uiso   1.00
H1673  H     0.85430   0.92146   0.84141   0.00000  Uiso   1.00
H1674  H     0.84119   0.97558   0.85083   0.00000  Uiso   1.00
C1675  C     0.90792   0.95784   0.85735   0.00000  Uiso   1.00
H1676  H     0.92198   0.99030   0.85359   0.00000  Uiso   1.00
H1677  H     0.89014   0.95014   0.89470   0.00000  Uiso   1.00
H1678  H     0.93922   0.93703   0.84140   0.00000  Uiso   1.00
O1679  O     0.75113   0.70530   0.74799   0.00000  Uiso   1.00
C1680  C     0.71309   0.69587   0.79121   0.00000  Uiso   1.00
H1681  H     0.72465   0.67823   0.81614   0.00000  Uiso   1.00
H1682  H     0.68467   0.67661   0.78509   0.00000  Uiso   1.00
C1683  C     0.68963   0.73545   0.81484   0.00000  Uiso   1.00
H1684  H     0.67483   0.75282   0.79253   0.00000  Uiso   1.00
H1685  H     0.99257   0.72742   0.84779   0.00000  Uiso   1.00
H1686  H     0.71668   0.75513   0.82268   0.00000  Uiso   1.00
N1687  N     0.89701   0.70961   0.78672   0.00000  Uiso   1.00
O1688  O     0.88003   0.73253   0.82333   0.00000  Uiso   1.00
O1689  O     0.94383   0.70380   0.76736   0.00000  Uiso   1.00
N1690  N     0.77758   0.95931   0.70769   0.00000  Uiso   1.00
O1691  O     0.80327   0.93796   0.67166   0.00000  Uiso   1.00
O1692  O     0.73207   0.96645   0.71486   0.00000  Uiso   1.00
loop_
_geom_bond_atom_site_label_1
_geom_bond_atom_site_label_2
_geom_bond_distance
_geom_bond_site_symmetry_2
_ccdc_geom_bond_type
O1     C5      1.286   .     A
O1     Zn13    2.003   .     S
O2     C6      1.287   .     A
O2     Zn14    2.003   .     S
O3     Zn14    2.015   .     S
O3     C5      1.282   .     A
O4     Zn13    2.015   .     S
O4     C6      1.285   .     A
C5     C46     1.430   .     S
C6     C45     1.436   .     S
O7     C11     1.289   .     A
O7     Zn13    1.981   .     S
O8     Zn14    1.981   .     S
O8     C12     1.293   .     A
O9     Zn14    1.930   .     S
O9     C11     1.292   .     A
O10    C12     1.289   .     A
O10    Zn13    1.930   .     S
C11    C15     1.453   .     S
C12    C16     1.455   .     S
Zn13   N55     2.007   .     S
Zn14   N56     2.007   .     S
C15    C19     1.397   .     A
C15    C21     1.389   .     A
C16    C20     1.399   .     A
C16    C22     1.393   .     A
C17    H39     1.084   .     S
C17    C25     1.406   .     A
C17    C19     1.393   .     A
C18    C26     1.406   .     A
C18    H40     1.083   .     S
C18    C20     1.394   .     A
C19    H38     1.082   .     S
C20    H37     1.083   .     S
C21    H36     1.075   .     S
C21    C23     1.393   .     A
C22    H35     1.078   .     S
C22    C24     1.392   .     A
C23    C27     1.424   .     A
C23    C25     1.416   .     A
C24    C26     1.415   .     A
C24    C28     1.420   .     A
C25    C877    1.386   .     S
C26    C878    1.386   1_554 S
C27    C30     1.432   .     A
C27    C874    1.420   .     S
C28    C29     1.429   .     A
C28    C873    1.420   1_554 S
C29    O57     1.382   .     S
C29    C31     1.392   .     A
C30    C32     1.395   .     A
C30    O65     1.383   .     S
C31    H33     1.084   .     S
C31    C871    1.386   1_554 S
C32    H34     1.085   .     S
C32    C872    1.386   .     S
C41    C46     1.408   .     A
C41    O73     1.386   .     S
C41    C325    1.381   .     S
C42    O81     1.384   .     S
C42    C45     1.405   .     A
C42    C608    1.383   1_545 S
C43    N89     1.434   .     S
C43    C45     1.407   .     A
C43    C605    1.381   1_545 S
C44    C46     1.407   .     A
C44    N92     1.441   .     S
C44    C324    1.383   .     S
C47    H49     1.082   .     S
C47    N56     1.366   .     A
C47    C145    1.415   .     S
C48    N55     1.366   .     A
C48    H50     1.082   .     S
C48    C240    1.415   1_455 S
C51    H53     1.082   .     S
C51    N55     1.367   .     A
C51    C235    1.415   1_455 S
C52    H54     1.079   .     S
C52    N56     1.365   .     A
C52    C142    1.415   .     S
O57    C58     1.413   .     S
C58    H60     1.113   .     S
C58    C61     1.519   .     S
C58    H59     1.117   .     S
C61    H63     1.110   .     S
C61    H64     1.110   .     S
C61    H62     1.109   .     S
O65    C66     1.417   .     S
C66    H68     1.108   .     S
C66    C69     1.532   .     S
C66    H67     1.112   .     S
C69    H72     1.110   .     S
C69    H70     1.109   .     S
C69    H71     1.109   .     S
O73    C74     1.417   .     S
C74    H76     1.118   .     S
C74    C77     1.523   .     S
C74    H75     1.108   .     S
C77    H78     1.110   .     S
C77    H79     1.111   .     S
C77    H80     1.109   .     S
O81    C82     1.423   .     S
C82    H84     1.109   .     S
C82    C85     1.519   .     S
C82    H83     1.119   .     S
C85    H86     1.108   .     S
C85    H88     1.109   .     S
C85    H275    1.108   1_455 S
H87    C179    1.108   .     S
N89    O91     1.300   .     A
N89    O90     1.300   .     A
N92    O94     1.300   .     A
N92    O93     1.302   .     A
O95    C99     1.286   .     A
O95    Zn107   2.003   .     S
O96    C100    1.287   .     A
O96    Zn108   2.003   .     S
O97    Zn108   2.015   .     S
O97    C99     1.282   .     A
O98    Zn107   2.015   .     S
O98    C100    1.285   .     A
C99    C140    1.430   .     S
C100   C139    1.436   .     S
O101   C105    1.289   .     A
O101   Zn107   1.981   .     S
O102   Zn108   1.981   .     S
O102   C106    1.293   .     A
O103   Zn108   1.930   .     S
O103   C105    1.292   .     A
O104   C106    1.289   .     A
O104   Zn107   1.930   .     S
C105   C109    1.453   .     S
C106   C110    1.455   .     S
Zn107  N149    2.007   .     S
Zn108  N150    2.007   .     S
C109   C113    1.397   .     A
C109   C115    1.389   .     A
C110   C114    1.399   .     A
C110   C116    1.393   .     A
C111   H133    1.084   .     S
C111   C119    1.406   .     A
C111   C113    1.393   .     A
C112   C120    1.406   .     A
C112   H134    1.083   .     S
C112   C114    1.394   .     A
C113   H132    1.082   .     S
C114   H131    1.083   .     S
C115   H130    1.075   .     S
C115   C117    1.393   .     A
C116   H129    1.078   .     S
C116   C118    1.392   .     A
C117   C121    1.424   .     A
C117   C119    1.416   .     A
C118   C120    1.415   .     A
C118   C122    1.420   .     A
C119   C971    1.386   .     S
C120   C972    1.386   1_554 S
C121   C124    1.432   .     A
C121   C968    1.420   .     S
C122   C123    1.429   .     A
C122   C967    1.420   1_554 S
C123   O151    1.382   .     S
C123   C125    1.392   .     A
C124   C126    1.395   .     A
C124   O159    1.383   .     S
C125   H127    1.084   .     S
C125   C965    1.386   1_554 S
C126   H128    1.085   .     S
C126   C966    1.386   .     S
C135   C140    1.408   .     A
C135   O167    1.386   .     S
C135   C419    1.381   .     S
C136   O175    1.384   .     S
C136   C139    1.405   .     A
C136   C702    1.383   1_545 S
C137   N183    1.434   .     S
C137   C139    1.407   .     A
C137   C699    1.381   1_545 S
C138   C140    1.407   .     A
C138   N186    1.441   .     S
C138   C418    1.383   .     S
C141   H143    1.082   .     S
C141   N150    1.366   .     A
C141   C239    1.415   .     S
C142   N149    1.366   .     A
C142   H144    1.082   .     S
C145   H147    1.082   .     S
C145   N149    1.367   .     A
C146   H148    1.079   .     S
C146   N150    1.365   .     A
C146   C236    1.415   .     S
O151   C152    1.413   .     S
C152   H154    1.113   .     S
C152   C155    1.519   .     S
C152   H153    1.117   .     S
C155   H157    1.110   .     S
C155   H158    1.110   .     S
C155   H156    1.109   .     S
O159   C160    1.417   .     S
C160   H162    1.108   .     S
C160   C163    1.532   .     S
C160   H161    1.112   .     S
C163   H166    1.110   .     S
C163   H164    1.109   .     S
C163   H165    1.109   .     S
O167   C168    1.417   .     S
C168   H170    1.118   .     S
C168   C171    1.523   .     S
C168   H169    1.108   .     S
C171   H172    1.110   .     S
C171   H173    1.111   .     S
C171   H174    1.109   .     S
O175   C176    1.423   .     S
C176   H178    1.109   .     S
C176   C179    1.519   .     S
C176   H177    1.119   .     S
C179   H180    1.108   .     S
C179   H182    1.109   .     S
H181   C273    1.108   .     S
N183   O185    1.300   .     A
N183   O184    1.300   .     A
N186   O188    1.300   .     A
N186   O187    1.302   .     A
O189   C193    1.286   .     A
O189   Zn201   2.003   .     S
O190   C194    1.287   .     A
O190   Zn202   2.003   .     S
O191   Zn202   2.015   .     S
O191   C193    1.282   .     A
O192   Zn201   2.015   .     S
O192   C194    1.285   .     A
C193   C234    1.430   .     S
C194   C233    1.436   .     S
O195   C199    1.289   .     A
O195   Zn201   1.981   .     S
O196   Zn202   1.981   .     S
O196   C200    1.293   .     A
O197   Zn202   1.930   .     S
O197   C199    1.292   .     A
O198   C200    1.289   .     A
O198   Zn201   1.930   .     S
C199   C203    1.453   .     S
C200   C204    1.455   .     S
Zn201  N243    2.007   .     S
Zn202  N244    2.007   .     S
C203   C207    1.397   .     A
C203   C209    1.389   .     A
C204   C208    1.399   .     A
C204   C210    1.393   .     A
C205   H227    1.084   .     S
C205   C213    1.406   .     A
C205   C207    1.393   .     A
C206   C214    1.406   .     A
C206   H228    1.083   .     S
C206   C208    1.394   .     A
C207   H226    1.082   .     S
C208   H225    1.083   .     S
C209   H224    1.075   .     S
C209   C211    1.393   .     A
C210   H223    1.078   .     S
C210   C212    1.392   .     A
C211   C215    1.424   .     A
C211   C213    1.416   .     A
C212   C214    1.415   .     A
C212   C216    1.420   .     A
C213   C1065   1.386   .     S
C214   C1066   1.386   1_554 S
C215   C218    1.432   .     A
C215   C1062   1.420   .     S
C216   C217    1.429   .     A
C216   C1061   1.420   1_554 S
C217   O245    1.382   .     S
C217   C219    1.392   .     A
C218   C220    1.395   .     A
C218   O253    1.383   .     S
C219   H221    1.084   .     S
C219   C1059   1.386   1_554 S
C220   H222    1.085   .     S
C220   C1060   1.386   .     S
C229   C234    1.408   .     A
C229   O261    1.386   .     S
C229   C513    1.381   .     S
C230   O269    1.384   .     S
C230   C233    1.405   .     A
C230   C796    1.383   1_545 S
C231   N277    1.434   .     S
C231   C233    1.407   .     A
C231   C793    1.381   1_545 S
C232   C234    1.407   .     A
C232   N280    1.441   .     S
C232   C512    1.383   .     S
C235   H237    1.082   .     S
C235   N244    1.366   .     A
C235   C51     1.415   1_655 S
C236   N243    1.366   .     A
C236   H238    1.082   .     S
C239   H241    1.082   .     S
C239   N243    1.367   .     A
C240   H242    1.079   .     S
C240   N244    1.365   .     A
C240   C48     1.415   1_655 S
O245   C246    1.413   .     S
C246   H248    1.113   .     S
C246   C249    1.519   .     S
C246   H247    1.117   .     S
C249   H251    1.110   .     S
C249   H252    1.110   .     S
C249   H250    1.109   .     S
O253   C254    1.417   .     S
C254   H256    1.108   .     S
C254   C257    1.532   .     S
C254   H255    1.112   .     S
C257   H260    1.110   .     S
C257   H258    1.109   .     S
C257   H259    1.109   .     S
O261   C262    1.417   .     S
C262   H264    1.118   .     S
C262   C265    1.523   .     S
C262   H263    1.108   .     S
C265   H266    1.110   .     S
C265   H267    1.111   .     S
C265   H268    1.109   .     S
O269   C270    1.423   .     S
C270   H272    1.109   .     S
C270   C273    1.519   .     S
C270   H271    1.119   .     S
C273   H274    1.108   .     S
C273   H276    1.109   .     S
H275   C85     1.108   1_655 S
N277   O279    1.300   .     A
N277   O278    1.300   .     A
N280   O282    1.300   .     A
N280   O281    1.302   .     A
O283   C287    1.286   .     A
O283   Zn295   2.003   .     S
O284   C288    1.287   .     A
O284   Zn296   2.003   .     S
O285   Zn296   2.015   .     S
O285   C287    1.282   .     A
O286   Zn295   2.015   .     S
O286   C288    1.285   .     A
C287   C328    1.430   .     S
C288   C327    1.436   .     S
O289   C293    1.289   .     A
O289   Zn295   1.981   .     S
O290   Zn296   1.981   .     S
O290   C294    1.293   .     A
O291   Zn296   1.930   .     S
O291   C293    1.292   .     A
O292   C294    1.289   .     A
O292   Zn295   1.930   .     S
C293   C297    1.453   .     S
C294   C298    1.455   .     S
Zn295  N337    2.007   .     S
Zn296  N338    2.007   .     S
C297   C301    1.397   .     A
C297   C303    1.389   .     A
C298   C302    1.399   .     A
C298   C304    1.393   .     A
C299   H321    1.084   .     S
C299   C307    1.406   .     A
C299   C301    1.393   .     A
C300   C308    1.406   .     A
C300   H322    1.083   .     S
C300   C302    1.394   .     A
C301   H320    1.082   .     S
C302   H319    1.083   .     S
C303   H318    1.075   .     S
C303   C305    1.393   .     A
C304   H317    1.078   .     S
C304   C306    1.392   .     A
C305   C309    1.424   .     A
C305   C307    1.416   .     A
C306   C308    1.415   .     A
C306   C310    1.420   .     A
C307   C1159   1.386   .     S
C308   C1160   1.386   1_554 S
C309   C312    1.432   .     A
C309   C1156   1.420   .     S
C310   C311    1.429   .     A
C310   C1155   1.420   1_554 S
C311   O339    1.382   .     S
C311   C313    1.392   .     A
C312   C314    1.395   .     A
C312   O347    1.383   .     S
C313   H315    1.084   .     S
C313   C1153   1.386   1_554 S
C314   H316    1.085   .     S
C314   C1154   1.386   .     S
C323   C328    1.408   .     A
C323   O355    1.386   .     S
C323   C607    1.381   .     S
C324   O363    1.384   .     S
C324   C327    1.405   .     A
C325   N371    1.434   .     S
C325   C327    1.407   .     A
C326   C328    1.407   .     A
C326   N374    1.441   .     S
C326   C606    1.383   .     S
C329   H331    1.082   .     S
C329   N338    1.366   .     A
C329   C427    1.415   .     S
C330   N337    1.366   .     A
C330   H332    1.082   .     S
C330   C522    1.415   1_455 S
C333   H335    1.082   .     S
C333   N337    1.367   .     A
C333   C517    1.415   1_455 S
C334   H336    1.079   .     S
C334   N338    1.365   .     A
C334   C424    1.415   .     S
O339   C340    1.413   .     S
C340   H342    1.113   .     S
C340   C343    1.519   .     S
C340   H341    1.117   .     S
C343   H345    1.110   .     S
C343   H346    1.110   .     S
C343   H344    1.109   .     S
O347   C348    1.417   .     S
C348   H350    1.108   .     S
C348   C351    1.532   .     S
C348   H349    1.112   .     S
C351   H354    1.110   .     S
C351   H352    1.109   .     S
C351   H353    1.109   .     S
O355   C356    1.417   .     S
C356   H358    1.118   .     S
C356   C359    1.523   .     S
C356   H357    1.108   .     S
C359   H360    1.110   .     S
C359   H361    1.111   .     S
C359   H362    1.109   .     S
O363   C364    1.423   .     S
C364   H366    1.109   .     S
C364   C367    1.519   .     S
C364   H365    1.119   .     S
C367   H368    1.108   .     S
C367   H370    1.109   .     S
C367   H557    1.108   1_455 S
H369   C461    1.108   .     S
N371   O373    1.300   .     A
N371   O372    1.300   .     A
N374   O376    1.300   .     A
N374   O375    1.302   .     A
O377   C381    1.286   .     A
O377   Zn389   2.003   .     S
O378   C382    1.287   .     A
O378   Zn390   2.003   .     S
O379   Zn390   2.015   .     S
O379   C381    1.282   .     A
O380   Zn389   2.015   .     S
O380   C382    1.285   .     A
C381   C422    1.430   .     S
C382   C421    1.436   .     S
O383   C387    1.289   .     A
O383   Zn389   1.981   .     S
O384   Zn390   1.981   .     S
O384   C388    1.293   .     A
O385   Zn390   1.930   .     S
O385   C387    1.292   .     A
O386   C388    1.289   .     A
O386   Zn389   1.930   .     S
C387   C391    1.453   .     S
C388   C392    1.455   .     S
Zn389  N431    2.007   .     S
Zn390  N432    2.007   .     S
C391   C395    1.397   .     A
C391   C397    1.389   .     A
C392   C396    1.399   .     A
C392   C398    1.393   .     A
C393   H415    1.084   .     S
C393   C401    1.406   .     A
C393   C395    1.393   .     A
C394   C402    1.406   .     A
C394   H416    1.083   .     S
C394   C396    1.394   .     A
C395   H414    1.082   .     S
C396   H413    1.083   .     S
C397   H412    1.075   .     S
C397   C399    1.393   .     A
C398   H411    1.078   .     S
C398   C400    1.392   .     A
C399   C403    1.424   .     A
C399   C401    1.416   .     A
C400   C402    1.415   .     A
C400   C404    1.420   .     A
C401   C1253   1.386   .     S
C402   C1254   1.386   1_554 S
C403   C406    1.432   .     A
C403   C1250   1.420   .     S
C404   C405    1.429   .     A
C404   C1249   1.420   1_554 S
C405   O433    1.382   .     S
C405   C407    1.392   .     A
C406   C408    1.395   .     A
C406   O441    1.383   .     S
C407   H409    1.084   .     S
C407   C1247   1.386   1_554 S
C408   H410    1.085   .     S
C408   C1248   1.386   .     S
C417   C422    1.408   .     A
C417   O449    1.386   .     S
C417   C701    1.381   .     S
C418   O457    1.384   .     S
C418   C421    1.405   .     A
C419   N465    1.434   .     S
C419   C421    1.407   .     A
C420   C422    1.407   .     A
C420   N468    1.441   .     S
C420   C700    1.383   .     S
C423   H425    1.082   .     S
C423   N432    1.366   .     A
C423   C521    1.415   .     S
C424   N431    1.366   .     A
C424   H426    1.082   .     S
C427   H429    1.082   .     S
C427   N431    1.367   .     A
C428   H430    1.079   .     S
C428   N432    1.365   .     A
C428   C518    1.415   .     S
O433   C434    1.413   .     S
C434   H436    1.113   .     S
C434   C437    1.519   .     S
C434   H435    1.117   .     S
C437   H439    1.110   .     S
C437   H440    1.110   .     S
C437   H438    1.109   .     S
O441   C442    1.417   .     S
C442   H444    1.108   .     S
C442   C445    1.532   .     S
C442   H443    1.112   .     S
C445   H448    1.110   .     S
C445   H446    1.109   .     S
C445   H447    1.109   .     S
O449   C450    1.417   .     S
C450   H452    1.118   .     S
C450   C453    1.523   .     S
C450   H451    1.108   .     S
C453   H454    1.110   .     S
C453   H455    1.111   .     S
C453   H456    1.109   .     S
O457   C458    1.423   .     S
C458   H460    1.109   .     S
C458   C461    1.519   .     S
C458   H459    1.119   .     S
C461   H462    1.108   .     S
C461   H464    1.109   .     S
H463   C555    1.108   .     S
N465   O467    1.300   .     A
N465   O466    1.300   .     A
N468   O470    1.300   .     A
N468   O469    1.302   .     A
O471   C475    1.286   .     A
O471   Zn483   2.003   .     S
O472   C476    1.287   .     A
O472   Zn484   2.003   .     S
O473   Zn484   2.015   .     S
O473   C475    1.282   .     A
O474   Zn483   2.015   .     S
O474   C476    1.285   .     A
C475   C516    1.430   .     S
C476   C515    1.436   .     S
O477   C481    1.289   .     A
O477   Zn483   1.981   .     S
O478   Zn484   1.981   .     S
O478   C482    1.293   .     A
O479   Zn484   1.930   .     S
O479   C481    1.292   .     A
O480   C482    1.289   .     A
O480   Zn483   1.930   .     S
C481   C485    1.453   .     S
C482   C486    1.455   .     S
Zn483  N525    2.007   .     S
Zn484  N526    2.007   .     S
C485   C489    1.397   .     A
C485   C491    1.389   .     A
C486   C490    1.399   .     A
C486   C492    1.393   .     A
C487   H509    1.084   .     S
C487   C495    1.406   .     A
C487   C489    1.393   .     A
C488   C496    1.406   .     A
C488   H510    1.083   .     S
C488   C490    1.394   .     A
C489   H508    1.082   .     S
C490   H507    1.083   .     S
C491   H506    1.075   .     S
C491   C493    1.393   .     A
C492   H505    1.078   .     S
C492   C494    1.392   .     A
C493   C497    1.424   .     A
C493   C495    1.416   .     A
C494   C496    1.415   .     A
C494   C498    1.420   .     A
C495   C1347   1.386   .     S
C496   C1348   1.386   1_554 S
C497   C500    1.432   .     A
C497   C1344   1.420   .     S
C498   C499    1.429   .     A
C498   C1343   1.420   1_554 S
C499   O527    1.382   .     S
C499   C501    1.392   .     A
C500   C502    1.395   .     A
C500   O535    1.383   .     S
C501   H503    1.084   .     S
C501   C1341   1.386   1_554 S
C502   H504    1.085   .     S
C502   C1342   1.386   .     S
C511   C516    1.408   .     A
C511   O543    1.386   .     S
C511   C795    1.381   .     S
C512   O551    1.384   .     S
C512   C515    1.405   .     A
C513   N559    1.434   .     S
C513   C515    1.407   .     A
C514   C516    1.407   .     A
C514   N562    1.441   .     S
C514   C794    1.383   .     S
C517   H519    1.082   .     S
C517   N526    1.366   .     A
C517   C333    1.415   1_655 S
C518   N525    1.366   .     A
C518   H520    1.082   .     S
C521   H523    1.082   .     S
C521   N525    1.367   .     A
C522   H524    1.079   .     S
C522   N526    1.365   .     A
C522   C330    1.415   1_655 S
O527   C528    1.413   .     S
C528   H530    1.113   .     S
C528   C531    1.519   .     S
C528   H529    1.117   .     S
C531   H533    1.110   .     S
C531   H534    1.110   .     S
C531   H532    1.109   .     S
O535   C536    1.417   .     S
C536   H538    1.108   .     S
C536   C539    1.532   .     S
C536   H537    1.112   .     S
C539   H542    1.110   .     S
C539   H540    1.109   .     S
C539   H541    1.109   .     S
O543   C544    1.417   .     S
C544   H546    1.118   .     S
C544   C547    1.523   .     S
C544   H545    1.108   .     S
C547   H548    1.110   .     S
C547   H549    1.111   .     S
C547   H550    1.109   .     S
O551   C552    1.423   .     S
C552   H554    1.109   .     S
C552   C555    1.519   .     S
C552   H553    1.119   .     S
C555   H556    1.108   .     S
C555   H558    1.109   .     S
H557   C367    1.108   1_655 S
N559   O561    1.300   .     A
N559   O560    1.300   .     A
N562   O564    1.300   .     A
N562   O563    1.302   .     A
O565   C569    1.286   .     A
O565   Zn577   2.003   .     S
O566   C570    1.287   .     A
O566   Zn578   2.003   .     S
O567   Zn578   2.015   .     S
O567   C569    1.282   .     A
O568   Zn577   2.015   .     S
O568   C570    1.285   .     A
C569   C610    1.430   .     S
C570   C609    1.436   .     S
O571   C575    1.289   .     A
O571   Zn577   1.981   .     S
O572   Zn578   1.981   .     S
O572   C576    1.293   .     A
O573   Zn578   1.930   .     S
O573   C575    1.292   .     A
O574   C576    1.289   .     A
O574   Zn577   1.930   .     S
C575   C579    1.453   .     S
C576   C580    1.455   .     S
Zn577  N619    2.007   .     S
Zn578  N620    2.007   .     S
C579   C583    1.397   .     A
C579   C585    1.389   .     A
C580   C584    1.399   .     A
C580   C586    1.393   .     A
C581   H603    1.084   .     S
C581   C589    1.406   .     A
C581   C583    1.393   .     A
C582   C590    1.406   .     A
C582   H604    1.083   .     S
C582   C584    1.394   .     A
C583   H602    1.082   .     S
C584   H601    1.083   .     S
C585   H600    1.075   .     S
C585   C587    1.393   .     A
C586   H599    1.078   .     S
C586   C588    1.392   .     A
C587   C591    1.424   .     A
C587   C589    1.416   .     A
C588   C590    1.415   .     A
C588   C592    1.420   .     A
C589   C1441   1.386   .     S
C590   C1442   1.386   1_554 S
C591   C594    1.432   .     A
C591   C1438   1.420   .     S
C592   C593    1.429   .     A
C592   C1437   1.420   1_554 S
C593   O621    1.382   .     S
C593   C595    1.392   .     A
C594   C596    1.395   .     A
C594   O629    1.383   .     S
C595   H597    1.084   .     S
C595   C1435   1.386   1_554 S
C596   H598    1.085   .     S
C596   C1436   1.386   .     S
C605   C610    1.408   .     A
C605   O637    1.386   .     S
C605   C43     1.381   1_565 S
C606   O645    1.384   .     S
C606   C609    1.405   .     A
C607   N653    1.434   .     S
C607   C609    1.407   .     A
C608   C610    1.407   .     A
C608   N656    1.441   .     S
C608   C42     1.383   1_565 S
C611   H613    1.082   .     S
C611   N620    1.366   .     A
C611   C709    1.415   .     S
C612   N619    1.366   .     A
C612   H614    1.082   .     S
C612   C804    1.415   1_455 S
C615   H617    1.082   .     S
C615   N619    1.367   .     A
C615   C799    1.415   1_455 S
C616   H618    1.079   .     S
C616   N620    1.365   .     A
C616   C706    1.415   .     S
O621   C622    1.413   .     S
C622   H624    1.113   .     S
C622   C625    1.519   .     S
C622   H623    1.117   .     S
C625   H627    1.110   .     S
C625   H628    1.110   .     S
C625   H626    1.109   .     S
O629   C630    1.417   .     S
C630   H632    1.108   .     S
C630   C633    1.532   .     S
C630   H631    1.112   .     S
C633   H636    1.110   .     S
C633   H634    1.109   .     S
C633   H635    1.109   .     S
O637   C638    1.417   .     S
C638   H640    1.118   .     S
C638   C641    1.523   .     S
C638   H639    1.108   .     S
C641   H642    1.110   .     S
C641   H643    1.111   .     S
C641   H644    1.109   .     S
O645   C646    1.423   .     S
C646   H648    1.109   .     S
C646   C649    1.519   .     S
C646   H647    1.119   .     S
C649   H650    1.108   .     S
C649   H652    1.109   .     S
C649   H839    1.108   1_455 S
H651   C743    1.108   .     S
N653   O655    1.300   .     A
N653   O654    1.300   .     A
N656   O658    1.300   .     A
N656   O657    1.302   .     A
O659   C663    1.286   .     A
O659   Zn671   2.003   .     S
O660   C664    1.287   .     A
O660   Zn672   2.003   .     S
O661   Zn672   2.015   .     S
O661   C663    1.282   .     A
O662   Zn671   2.015   .     S
O662   C664    1.285   .     A
C663   C704    1.430   .     S
C664   C703    1.436   .     S
O665   C669    1.289   .     A
O665   Zn671   1.981   .     S
O666   Zn672   1.981   .     S
O666   C670    1.293   .     A
O667   Zn672   1.930   .     S
O667   C669    1.292   .     A
O668   C670    1.289   .     A
O668   Zn671   1.930   .     S
C669   C673    1.453   .     S
C670   C674    1.455   .     S
Zn671  N713    2.007   .     S
Zn672  N714    2.007   .     S
C673   C677    1.397   .     A
C673   C679    1.389   .     A
C674   C678    1.399   .     A
C674   C680    1.393   .     A
C675   H697    1.084   .     S
C675   C683    1.406   .     A
C675   C677    1.393   .     A
C676   C684    1.406   .     A
C676   H698    1.083   .     S
C676   C678    1.394   .     A
C677   H696    1.082   .     S
C678   H695    1.083   .     S
C679   H694    1.075   .     S
C679   C681    1.393   .     A
C680   H693    1.078   .     S
C680   C682    1.392   .     A
C681   C685    1.424   .     A
C681   C683    1.416   .     A
C682   C684    1.415   .     A
C682   C686    1.420   .     A
C683   C1535   1.386   .     S
C684   C1536   1.386   1_554 S
C685   C688    1.432   .     A
C685   C1532   1.420   .     S
C686   C687    1.429   .     A
C686   C1531   1.420   1_554 S
C687   O715    1.382   .     S
C687   C689    1.392   .     A
C688   C690    1.395   .     A
C688   O723    1.383   .     S
C689   H691    1.084   .     S
C689   C1529   1.386   1_554 S
C690   H692    1.085   .     S
C690   C1530   1.386   .     S
C699   C704    1.408   .     A
C699   O731    1.386   .     S
C699   C137    1.381   1_565 S
C700   O739    1.384   .     S
C700   C703    1.405   .     A
C701   N747    1.434   .     S
C701   C703    1.407   .     A
C702   C704    1.407   .     A
C702   N750    1.441   .     S
C702   C136    1.383   1_565 S
C705   H707    1.082   .     S
C705   N714    1.366   .     A
C705   C803    1.415   .     S
C706   N713    1.366   .     A
C706   H708    1.082   .     S
C709   H711    1.082   .     S
C709   N713    1.367   .     A
C710   H712    1.079   .     S
C710   N714    1.365   .     A
C710   C800    1.415   .     S
O715   C716    1.413   .     S
C716   H718    1.113   .     S
C716   C719    1.519   .     S
C716   H717    1.117   .     S
C719   H721    1.110   .     S
C719   H722    1.110   .     S
C719   H720    1.109   .     S
O723   C724    1.417   .     S
C724   H726    1.108   .     S
C724   C727    1.532   .     S
C724   H725    1.112   .     S
C727   H730    1.110   .     S
C727   H728    1.109   .     S
C727   H729    1.109   .     S
O731   C732    1.417   .     S
C732   H734    1.118   .     S
C732   C735    1.523   .     S
C732   H733    1.108   .     S
C735   H736    1.110   .     S
C735   H737    1.111   .     S
C735   H738    1.109   .     S
O739   C740    1.423   .     S
C740   H742    1.109   .     S
C740   C743    1.519   .     S
C740   H741    1.119   .     S
C743   H744    1.108   .     S
C743   H746    1.109   .     S
H745   C837    1.108   .     S
N747   O749    1.300   .     A
N747   O748    1.300   .     A
N750   O752    1.300   .     A
N750   O751    1.302   .     A
O753   C757    1.286   .     A
O753   Zn765   2.003   .     S
O754   C758    1.287   .     A
O754   Zn766   2.003   .     S
O755   Zn766   2.015   .     S
O755   C757    1.282   .     A
O756   Zn765   2.015   .     S
O756   C758    1.285   .     A
C757   C798    1.430   .     S
C758   C797    1.436   .     S
O759   C763    1.289   .     A
O759   Zn765   1.981   .     S
O760   Zn766   1.981   .     S
O760   C764    1.293   .     A
O761   Zn766   1.930   .     S
O761   C763    1.292   .     A
O762   C764    1.289   .     A
O762   Zn765   1.930   .     S
C763   C767    1.453   .     S
C764   C768    1.455   .     S
Zn765  N807    2.007   .     S
Zn766  N808    2.007   .     S
C767   C771    1.397   .     A
C767   C773    1.389   .     A
C768   C772    1.399   .     A
C768   C774    1.393   .     A
C769   H791    1.084   .     S
C769   C777    1.406   .     A
C769   C771    1.393   .     A
C770   C778    1.406   .     A
C770   H792    1.083   .     S
C770   C772    1.394   .     A
C771   H790    1.082   .     S
C772   H789    1.083   .     S
C773   H788    1.075   .     S
C773   C775    1.393   .     A
C774   H787    1.078   .     S
C774   C776    1.392   .     A
C775   C779    1.424   .     A
C775   C777    1.416   .     A
C776   C778    1.415   .     A
C776   C780    1.420   .     A
C777   C1629   1.386   .     S
C778   C1630   1.386   1_554 S
C779   C782    1.432   .     A
C779   C1626   1.420   .     S
C780   C781    1.429   .     A
C780   C1625   1.420   1_554 S
C781   O809    1.382   .     S
C781   C783    1.392   .     A
C782   C784    1.395   .     A
C782   O817    1.383   .     S
C783   H785    1.084   .     S
C783   C1623   1.386   1_554 S
C784   H786    1.085   .     S
C784   C1624   1.386   .     S
C793   C798    1.408   .     A
C793   O825    1.386   .     S
C793   C231    1.381   1_565 S
C794   O833    1.384   .     S
C794   C797    1.405   .     A
C795   N841    1.434   .     S
C795   C797    1.407   .     A
C796   C798    1.407   .     A
C796   N844    1.441   .     S
C796   C230    1.383   1_565 S
C799   H801    1.082   .     S
C799   N808    1.366   .     A
C799   C615    1.415   1_655 S
C800   N807    1.366   .     A
C800   H802    1.082   .     S
C803   H805    1.082   .     S
C803   N807    1.367   .     A
C804   H806    1.079   .     S
C804   N808    1.365   .     A
C804   C612    1.415   1_655 S
O809   C810    1.413   .     S
C810   H812    1.113   .     S
C810   C813    1.519   .     S
C810   H811    1.117   .     S
C813   H815    1.110   .     S
C813   H816    1.110   .     S
C813   H814    1.109   .     S
O817   C818    1.417   .     S
C818   H820    1.108   .     S
C818   C821    1.532   .     S
C818   H819    1.112   .     S
C821   H824    1.110   .     S
C821   H822    1.109   .     S
C821   H823    1.109   .     S
O825   C826    1.417   .     S
C826   H828    1.118   .     S
C826   C829    1.523   .     S
C826   H827    1.108   .     S
C829   H830    1.110   .     S
C829   H831    1.111   .     S
C829   H832    1.109   .     S
O833   C834    1.423   .     S
C834   H836    1.109   .     S
C834   C837    1.519   .     S
C834   H835    1.119   .     S
C837   H838    1.108   .     S
C837   H840    1.109   .     S
H839   C649    1.108   1_655 S
N841   O843    1.300   .     A
N841   O842    1.300   .     A
N844   O846    1.300   .     A
N844   O845    1.302   .     A
O847   C851    1.286   .     A
O847   Zn859   2.003   .     S
O848   C852    1.287   .     A
O848   Zn860   2.003   .     S
O849   Zn860   2.015   .     S
O849   C851    1.282   .     A
O850   Zn859   2.015   .     S
O850   C852    1.285   .     A
C851   C892    1.430   .     S
C852   C891    1.436   .     S
O853   C857    1.289   .     A
O853   Zn859   1.981   .     S
O854   Zn860   1.981   .     S
O854   C858    1.293   .     A
O855   Zn860   1.930   .     S
O855   C857    1.292   .     A
O856   C858    1.289   .     A
O856   Zn859   1.930   .     S
C857   C861    1.453   .     S
C858   C862    1.455   .     S
Zn859  N901    2.007   .     S
Zn860  N902    2.007   .     S
C861   C865    1.397   .     A
C861   C867    1.389   .     A
C862   C866    1.399   .     A
C862   C868    1.393   .     A
C863   H885    1.084   .     S
C863   C871    1.406   .     A
C863   C865    1.393   .     A
C864   C872    1.406   .     A
C864   H886    1.083   .     S
C864   C866    1.394   .     A
C865   H884    1.082   .     S
C866   H883    1.083   .     S
C867   H882    1.075   .     S
C867   C869    1.393   .     A
C868   H881    1.078   .     S
C868   C870    1.392   .     A
C869   C873    1.424   .     A
C869   C871    1.416   .     A
C870   C872    1.415   .     A
C870   C874    1.420   .     A
C871   C31     1.386   1_556 S
C873   C876    1.432   .     A
C873   C28     1.420   1_556 S
C874   C875    1.429   .     A
C875   O903    1.382   .     S
C875   C877    1.392   .     A
C876   C878    1.395   .     A
C876   O911    1.383   .     S
C877   H879    1.084   .     S
C878   H880    1.085   .     S
C878   C26     1.386   1_556 S
C887   C892    1.408   .     A
C887   O919    1.386   .     S
C887   C1171   1.381   .     S
C888   O927    1.384   .     S
C888   C891    1.405   .     A
C888   C1454   1.383   1_545 S
C889   N935    1.434   .     S
C889   C891    1.407   .     A
C889   C1451   1.381   1_545 S
C890   C892    1.407   .     A
C890   N938    1.441   .     S
C890   C1170   1.383   .     S
C893   H895    1.082   .     S
C893   N902    1.366   .     A
C893   C991    1.415   .     S
C894   N901    1.366   .     A
C894   H896    1.082   .     S
C894   C1086   1.415   1_455 S
C897   H899    1.082   .     S
C897   N901    1.367   .     A
C897   C1081   1.415   1_455 S
C898   H900    1.079   .     S
C898   N902    1.365   .     A
C898   C988    1.415   .     S
O903   C904    1.413   .     S
C904   H906    1.113   .     S
C904   C907    1.519   .     S
C904   H905    1.117   .     S
C907   H909    1.110   .     S
C907   H910    1.110   .     S
C907   H908    1.109   .     S
O911   C912    1.417   .     S
C912   H914    1.108   .     S
C912   C915    1.532   .     S
C912   H913    1.112   .     S
C915   H918    1.110   .     S
C915   H916    1.109   .     S
C915   H917    1.109   .     S
O919   C920    1.417   .     S
C920   H922    1.118   .     S
C920   C923    1.523   .     S
C920   H921    1.108   .     S
C923   H924    1.110   .     S
C923   H925    1.111   .     S
C923   H926    1.109   .     S
O927   C928    1.423   .     S
C928   H930    1.109   .     S
C928   C931    1.519   .     S
C928   H929    1.119   .     S
C931   H932    1.108   .     S
C931   H934    1.109   .     S
C931   H1121   1.108   1_455 S
H933   C1025   1.108   .     S
N935   O937    1.300   .     A
N935   O936    1.300   .     A
N938   O940    1.300   .     A
N938   O939    1.302   .     A
O941   C945    1.286   .     A
O941   Zn953   2.003   .     S
O942   C946    1.287   .     A
O942   Zn954   2.003   .     S
O943   Zn954   2.015   .     S
O943   C945    1.282   .     A
O944   Zn953   2.015   .     S
O944   C946    1.285   .     A
C945   C986    1.430   .     S
C946   C985    1.436   .     S
O947   C951    1.289   .     A
O947   Zn953   1.981   .     S
O948   Zn954   1.981   .     S
O948   C952    1.293   .     A
O949   Zn954   1.930   .     S
O949   C951    1.292   .     A
O950   C952    1.289   .     A
O950   Zn953   1.930   .     S
C951   C955    1.453   .     S
C952   C956    1.455   .     S
Zn953  N995    2.007   .     S
Zn954  N996    2.007   .     S
C955   C959    1.397   .     A
C955   C961    1.389   .     A
C956   C960    1.399   .     A
C956   C962    1.393   .     A
C957   H979    1.084   .     S
C957   C965    1.406   .     A
C957   C959    1.393   .     A
C958   C966    1.406   .     A
C958   H980    1.083   .     S
C958   C960    1.394   .     A
C959   H978    1.082   .     S
C960   H977    1.083   .     S
C961   H976    1.075   .     S
C961   C963    1.393   .     A
C962   H975    1.078   .     S
C962   C964    1.392   .     A
C963   C967    1.424   .     A
C963   C965    1.416   .     A
C964   C966    1.415   .     A
C964   C968    1.420   .     A
C965   C125    1.386   1_556 S
C967   C970    1.432   .     A
C967   C122    1.420   1_556 S
C968   C969    1.429   .     A
C969   O997    1.382   .     S
C969   C971    1.392   .     A
C970   C972    1.395   .     A
C970   O1005   1.383   .     S
C971   H973    1.084   .     S
C972   H974    1.085   .     S
C972   C120    1.386   1_556 S
C981   C986    1.408   .     A
C981   O1013   1.386   .     S
C981   C1265   1.381   .     S
C982   O1021   1.384   .     S
C982   C985    1.405   .     A
C982   C1548   1.383   1_545 S
C983   N1029   1.434   .     S
C983   C985    1.407   .     A
C983   C1545   1.381   1_545 S
C984   C986    1.407   .     A
C984   N1032   1.441   .     S
C984   C1264   1.383   .     S
C987   H989    1.082   .     S
C987   N996    1.366   .     A
C987   C1085   1.415   .     S
C988   N995    1.366   .     A
C988   H990    1.082   .     S
C991   H993    1.082   .     S
C991   N995    1.367   .     A
C992   H994    1.079   .     S
C992   N996    1.365   .     A
C992   C1082   1.415   .     S
O997   C998    1.413   .     S
C998   H1000   1.113   .     S
C998   C1001   1.519   .     S
C998   H999    1.117   .     S
C1001  H1003   1.110   .     S
C1001  H1004   1.110   .     S
C1001  H1002   1.109   .     S
O1005  C1006   1.417   .     S
C1006  H1008   1.108   .     S
C1006  C1009   1.532   .     S
C1006  H1007   1.112   .     S
C1009  H1012   1.110   .     S
C1009  H1010   1.109   .     S
C1009  H1011   1.109   .     S
O1013  C1014   1.417   .     S
C1014  H1016   1.118   .     S
C1014  C1017   1.523   .     S
C1014  H1015   1.108   .     S
C1017  H1018   1.110   .     S
C1017  H1019   1.111   .     S
C1017  H1020   1.109   .     S
O1021  C1022   1.423   .     S
C1022  H1024   1.109   .     S
C1022  C1025   1.519   .     S
C1022  H1023   1.119   .     S
C1025  H1026   1.108   .     S
C1025  H1028   1.109   .     S
H1027  C1119   1.108   .     S
N1029  O1031   1.300   .     A
N1029  O1030   1.300   .     A
N1032  O1034   1.300   .     A
N1032  O1033   1.302   .     A
O1035  C1039   1.286   .     A
O1035  Zn1047  2.003   .     S
O1036  C1040   1.287   .     A
O1036  Zn1048  2.003   .     S
O1037  Zn1048  2.015   .     S
O1037  C1039   1.282   .     A
O1038  Zn1047  2.015   .     S
O1038  C1040   1.285   .     A
C1039  C1080   1.430   .     S
C1040  C1079   1.436   .     S
O1041  C1045   1.289   .     A
O1041  Zn1047  1.981   .     S
O1042  Zn1048  1.981   .     S
O1042  C1046   1.293   .     A
O1043  Zn1048  1.930   .     S
O1043  C1045   1.292   .     A
O1044  C1046   1.289   .     A
O1044  Zn1047  1.930   .     S
C1045  C1049   1.453   .     S
C1046  C1050   1.455   .     S
Zn1047 N1089   2.007   .     S
Zn1048 N1090   2.007   .     S
C1049  C1053   1.397   .     A
C1049  C1055   1.389   .     A
C1050  C1054   1.399   .     A
C1050  C1056   1.393   .     A
C1051  H1073   1.084   .     S
C1051  C1059   1.406   .     A
C1051  C1053   1.393   .     A
C1052  C1060   1.406   .     A
C1052  H1074   1.083   .     S
C1052  C1054   1.394   .     A
C1053  H1072   1.082   .     S
C1054  H1071   1.083   .     S
C1055  H1070   1.075   .     S
C1055  C1057   1.393   .     A
C1056  H1069   1.078   .     S
C1056  C1058   1.392   .     A
C1057  C1061   1.424   .     A
C1057  C1059   1.416   .     A
C1058  C1060   1.415   .     A
C1058  C1062   1.420   .     A
C1059  C219    1.386   1_556 S
C1061  C1064   1.432   .     A
C1061  C216    1.420   1_556 S
C1062  C1063   1.429   .     A
C1063  O1091   1.382   .     S
C1063  C1065   1.392   .     A
C1064  C1066   1.395   .     A
C1064  O1099   1.383   .     S
C1065  H1067   1.084   .     S
C1066  H1068   1.085   .     S
C1066  C214    1.386   1_556 S
C1075  C1080   1.408   .     A
C1075  O1107   1.386   .     S
C1075  C1359   1.381   .     S
C1076  O1115   1.384   .     S
C1076  C1079   1.405   .     A
C1076  C1642   1.383   1_545 S
C1077  N1123   1.434   .     S
C1077  C1079   1.407   .     A
C1077  C1639   1.381   1_545 S
C1078  C1080   1.407   .     A
C1078  N1126   1.441   .     S
C1078  C1358   1.383   .     S
C1081  H1083   1.082   .     S
C1081  N1090   1.366   .     A
C1081  C897    1.415   1_655 S
C1082  N1089   1.366   .     A
C1082  H1084   1.082   .     S
C1085  H1087   1.082   .     S
C1085  N1089   1.367   .     A
C1086  H1088   1.079   .     S
C1086  N1090   1.365   .     A
C1086  C894    1.415   1_655 S
O1091  C1092   1.413   .     S
C1092  H1094   1.113   .     S
C1092  C1095   1.519   .     S
C1092  H1093   1.117   .     S
C1095  H1097   1.110   .     S
C1095  H1098   1.110   .     S
C1095  H1096   1.109   .     S
O1099  C1100   1.417   .     S
C1100  H1102   1.108   .     S
C1100  C1103   1.532   .     S
C1100  H1101   1.112   .     S
C1103  H1106   1.110   .     S
C1103  H1104   1.109   .     S
C1103  H1105   1.109   .     S
O1107  C1108   1.417   .     S
C1108  H1110   1.118   .     S
C1108  C1111   1.523   .     S
C1108  H1109   1.108   .     S
C1111  H1112   1.110   .     S
C1111  H1113   1.111   .     S
C1111  H1114   1.109   .     S
O1115  C1116   1.423   .     S
C1116  H1118   1.109   .     S
C1116  C1119   1.519   .     S
C1116  H1117   1.119   .     S
C1119  H1120   1.108   .     S
C1119  H1122   1.109   .     S
H1121  C931    1.108   1_655 S
N1123  O1125   1.300   .     A
N1123  O1124   1.300   .     A
N1126  O1128   1.300   .     A
N1126  O1127   1.302   .     A
O1129  C1133   1.286   .     A
O1129  Zn1141  2.003   .     S
O1130  C1134   1.287   .     A
O1130  Zn1142  2.003   .     S
O1131  Zn1142  2.015   .     S
O1131  C1133   1.282   .     A
O1132  Zn1141  2.015   .     S
O1132  C1134   1.285   .     A
C1133  C1174   1.430   .     S
C1134  C1173   1.436   .     S
O1135  C1139   1.289   .     A
O1135  Zn1141  1.981   .     S
O1136  Zn1142  1.981   .     S
O1136  C1140   1.293   .     A
O1137  Zn1142  1.930   .     S
O1137  C1139   1.292   .     A
O1138  C1140   1.289   .     A
O1138  Zn1141  1.930   .     S
C1139  C1143   1.453   .     S
C1140  C1144   1.455   .     S
Zn1141 N1183   2.007   .     S
Zn1142 N1184   2.007   .     S
C1143  C1147   1.397   .     A
C1143  C1149   1.389   .     A
C1144  C1148   1.399   .     A
C1144  C1150   1.393   .     A
C1145  H1167   1.084   .     S
C1145  C1153   1.406   .     A
C1145  C1147   1.393   .     A
C1146  C1154   1.406   .     A
C1146  H1168   1.083   .     S
C1146  C1148   1.394   .     A
C1147  H1166   1.082   .     S
C1148  H1165   1.083   .     S
C1149  H1164   1.075   .     S
C1149  C1151   1.393   .     A
C1150  H1163   1.078   .     S
C1150  C1152   1.392   .     A
C1151  C1155   1.424   .     A
C1151  C1153   1.416   .     A
C1152  C1154   1.415   .     A
C1152  C1156   1.420   .     A
C1153  C313    1.386   1_556 S
C1155  C1158   1.432   .     A
C1155  C310    1.420   1_556 S
C1156  C1157   1.429   .     A
C1157  O1185   1.382   .     S
C1157  C1159   1.392   .     A
C1158  C1160   1.395   .     A
C1158  O1193   1.383   .     S
C1159  H1161   1.084   .     S
C1160  H1162   1.085   .     S
C1160  C308    1.386   1_556 S
C1169  C1174   1.408   .     A
C1169  O1201   1.386   .     S
C1169  C1453   1.381   .     S
C1170  O1209   1.384   .     S
C1170  C1173   1.405   .     A
C1171  N1217   1.434   .     S
C1171  C1173   1.407   .     A
C1172  C1174   1.407   .     A
C1172  N1220   1.441   .     S
C1172  C1452   1.383   .     S
C1175  H1177   1.082   .     S
C1175  N1184   1.366   .     A
C1175  C1273   1.415   .     S
C1176  N1183   1.366   .     A
C1176  H1178   1.082   .     S
C1176  C1368   1.415   1_455 S
C1179  H1181   1.082   .     S
C1179  N1183   1.367   .     A
C1179  C1363   1.415   1_455 S
C1180  H1182   1.079   .     S
C1180  N1184   1.365   .     A
C1180  C1270   1.415   .     S
O1185  C1186   1.413   .     S
C1186  H1188   1.113   .     S
C1186  C1189   1.519   .     S
C1186  H1187   1.117   .     S
C1189  H1191   1.110   .     S
C1189  H1192   1.110   .     S
C1189  H1190   1.109   .     S
O1193  C1194   1.417   .     S
C1194  H1196   1.108   .     S
C1194  C1197   1.532   .     S
C1194  H1195   1.112   .     S
C1197  H1200   1.110   .     S
C1197  H1198   1.109   .     S
C1197  H1199   1.109   .     S
O1201  C1202   1.417   .     S
C1202  H1204   1.118   .     S
C1202  C1205   1.523   .     S
C1202  H1203   1.108   .     S
C1205  H1206   1.110   .     S
C1205  H1207   1.111   .     S
C1205  H1208   1.109   .     S
O1209  C1210   1.423   .     S
C1210  H1212   1.109   .     S
C1210  C1213   1.519   .     S
C1210  H1211   1.119   .     S
C1213  H1214   1.108   .     S
C1213  H1216   1.109   .     S
C1213  H1403   1.108   1_455 S
H1215  C1307   1.108   .     S
N1217  O1219   1.300   .     A
N1217  O1218   1.300   .     A
N1220  O1222   1.300   .     A
N1220  O1221   1.302   .     A
O1223  C1227   1.286   .     A
O1223  Zn1235  2.003   .     S
O1224  C1228   1.287   .     A
O1224  Zn1236  2.003   .     S
O1225  Zn1236  2.015   .     S
O1225  C1227   1.282   .     A
O1226  Zn1235  2.015   .     S
O1226  C1228   1.285   .     A
C1227  C1268   1.430   .     S
C1228  C1267   1.436   .     S
O1229  C1233   1.289   .     A
O1229  Zn1235  1.981   .     S
O1230  Zn1236  1.981   .     S
O1230  C1234   1.293   .     A
O1231  Zn1236  1.930   .     S
O1231  C1233   1.292   .     A
O1232  C1234   1.289   .     A
O1232  Zn1235  1.930   .     S
C1233  C1237   1.453   .     S
C1234  C1238   1.455   .     S
Zn1235 N1277   2.007   .     S
Zn1236 N1278   2.007   .     S
C1237  C1241   1.397   .     A
C1237  C1243   1.389   .     A
C1238  C1242   1.399   .     A
C1238  C1244   1.393   .     A
C1239  H1261   1.084   .     S
C1239  C1247   1.406   .     A
C1239  C1241   1.393   .     A
C1240  C1248   1.406   .     A
C1240  H1262   1.083   .     S
C1240  C1242   1.394   .     A
C1241  H1260   1.082   .     S
C1242  H1259   1.083   .     S
C1243  H1258   1.075   .     S
C1243  C1245   1.393   .     A
C1244  H1257   1.078   .     S
C1244  C1246   1.392   .     A
C1245  C1249   1.424   .     A
C1245  C1247   1.416   .     A
C1246  C1248   1.415   .     A
C1246  C1250   1.420   .     A
C1247  C407    1.386   1_556 S
C1249  C1252   1.432   .     A
C1249  C404    1.420   1_556 S
C1250  C1251   1.429   .     A
C1251  O1279   1.382   .     S
C1251  C1253   1.392   .     A
C1252  C1254   1.395   .     A
C1252  O1287   1.383   .     S
C1253  H1255   1.084   .     S
C1254  H1256   1.085   .     S
C1254  C402    1.386   1_556 S
C1263  C1268   1.408   .     A
C1263  O1295   1.386   .     S
C1263  C1547   1.381   .     S
C1264  O1303   1.384   .     S
C1264  C1267   1.405   .     A
C1265  N1311   1.434   .     S
C1265  C1267   1.407   .     A
C1266  C1268   1.407   .     A
C1266  N1314   1.441   .     S
C1266  C1546   1.383   .     S
C1269  H1271   1.082   .     S
C1269  N1278   1.366   .     A
C1269  C1367   1.415   .     S
C1270  N1277   1.366   .     A
C1270  H1272   1.082   .     S
C1273  H1275   1.082   .     S
C1273  N1277   1.367   .     A
C1274  H1276   1.079   .     S
C1274  N1278   1.365   .     A
C1274  C1364   1.415   .     S
O1279  C1280   1.413   .     S
C1280  H1282   1.113   .     S
C1280  C1283   1.519   .     S
C1280  H1281   1.117   .     S
C1283  H1285   1.110   .     S
C1283  H1286   1.110   .     S
C1283  H1284   1.109   .     S
O1287  C1288   1.417   .     S
C1288  H1290   1.108   .     S
C1288  C1291   1.532   .     S
C1288  H1289   1.112   .     S
C1291  H1294   1.110   .     S
C1291  H1292   1.109   .     S
C1291  H1293   1.109   .     S
O1295  C1296   1.417   .     S
C1296  H1298   1.118   .     S
C1296  C1299   1.523   .     S
C1296  H1297   1.108   .     S
C1299  H1300   1.110   .     S
C1299  H1301   1.111   .     S
C1299  H1302   1.109   .     S
O1303  C1304   1.423   .     S
C1304  H1306   1.109   .     S
C1304  C1307   1.519   .     S
C1304  H1305   1.119   .     S
C1307  H1308   1.108   .     S
C1307  H1310   1.109   .     S
H1309  C1401   1.108   .     S
N1311  O1313   1.300   .     A
N1311  O1312   1.300   .     A
N1314  O1316   1.300   .     A
N1314  O1315   1.302   .     A
O1317  C1321   1.286   .     A
O1317  Zn1329  2.003   .     S
O1318  C1322   1.287   .     A
O1318  Zn1330  2.003   .     S
O1319  Zn1330  2.015   .     S
O1319  C1321   1.282   .     A
O1320  Zn1329  2.015   .     S
O1320  C1322   1.285   .     A
C1321  C1362   1.430   .     S
C1322  C1361   1.436   .     S
O1323  C1327   1.289   .     A
O1323  Zn1329  1.981   .     S
O1324  Zn1330  1.981   .     S
O1324  C1328   1.293   .     A
O1325  Zn1330  1.930   .     S
O1325  C1327   1.292   .     A
O1326  C1328   1.289   .     A
O1326  Zn1329  1.930   .     S
C1327  C1331   1.453   .     S
C1328  C1332   1.455   .     S
Zn1329 N1371   2.007   .     S
Zn1330 N1372   2.007   .     S
C1331  C1335   1.397   .     A
C1331  C1337   1.389   .     A
C1332  C1336   1.399   .     A
C1332  C1338   1.393   .     A
C1333  H1355   1.084   .     S
C1333  C1341   1.406   .     A
C1333  C1335   1.393   .     A
C1334  C1342   1.406   .     A
C1334  H1356   1.083   .     S
C1334  C1336   1.394   .     A
C1335  H1354   1.082   .     S
C1336  H1353   1.083   .     S
C1337  H1352   1.075   .     S
C1337  C1339   1.393   .     A
C1338  H1351   1.078   .     S
C1338  C1340   1.392   .     A
C1339  C1343   1.424   .     A
C1339  C1341   1.416   .     A
C1340  C1342   1.415   .     A
C1340  C1344   1.420   .     A
C1341  C501    1.386   1_556 S
C1343  C1346   1.432   .     A
C1343  C498    1.420   1_556 S
C1344  C1345   1.429   .     A
C1345  O1373   1.382   .     S
C1345  C1347   1.392   .     A
C1346  C1348   1.395   .     A
C1346  O1381   1.383   .     S
C1347  H1349   1.084   .     S
C1348  H1350   1.085   .     S
C1348  C496    1.386   1_556 S
C1357  C1362   1.408   .     A
C1357  O1389   1.386   .     S
C1357  C1641   1.381   .     S
C1358  O1397   1.384   .     S
C1358  C1361   1.405   .     A
C1359  N1405   1.434   .     S
C1359  C1361   1.407   .     A
C1360  C1362   1.407   .     A
C1360  N1408   1.441   .     S
C1360  C1640   1.383   .     S
C1363  H1365   1.082   .     S
C1363  N1372   1.366   .     A
C1363  C1179   1.415   1_655 S
C1364  N1371   1.366   .     A
C1364  H1366   1.082   .     S
C1367  H1369   1.082   .     S
C1367  N1371   1.367   .     A
C1368  H1370   1.079   .     S
C1368  N1372   1.365   .     A
C1368  C1176   1.415   1_655 S
O1373  C1374   1.413   .     S
C1374  H1376   1.113   .     S
C1374  C1377   1.519   .     S
C1374  H1375   1.117   .     S
C1377  H1379   1.110   .     S
C1377  H1380   1.110   .     S
C1377  H1378   1.109   .     S
O1381  C1382   1.417   .     S
C1382  H1384   1.108   .     S
C1382  C1385   1.532   .     S
C1382  H1383   1.112   .     S
C1385  H1388   1.110   .     S
C1385  H1386   1.109   .     S
C1385  H1387   1.109   .     S
O1389  C1390   1.417   .     S
C1390  H1392   1.118   .     S
C1390  C1393   1.523   .     S
C1390  H1391   1.108   .     S
C1393  H1394   1.110   .     S
C1393  H1395   1.111   .     S
C1393  H1396   1.109   .     S
O1397  C1398   1.423   .     S
C1398  H1400   1.109   .     S
C1398  C1401   1.519   .     S
C1398  H1399   1.119   .     S
C1401  H1402   1.108   .     S
C1401  H1404   1.109   .     S
H1403  C1213   1.108   1_655 S
N1405  O1407   1.300   .     A
N1405  O1406   1.300   .     A
N1408  O1410   1.300   .     A
N1408  O1409   1.302   .     A
O1411  C1415   1.286   .     A
O1411  Zn1423  2.003   .     S
O1412  C1416   1.287   .     A
O1412  Zn1424  2.003   .     S
O1413  Zn1424  2.015   .     S
O1413  C1415   1.282   .     A
O1414  Zn1423  2.015   .     S
O1414  C1416   1.285   .     A
C1415  C1456   1.430   .     S
C1416  C1455   1.436   .     S
O1417  C1421   1.289   .     A
O1417  Zn1423  1.981   .     S
O1418  Zn1424  1.981   .     S
O1418  C1422   1.293   .     A
O1419  Zn1424  1.930   .     S
O1419  C1421   1.292   .     A
O1420  C1422   1.289   .     A
O1420  Zn1423  1.930   .     S
C1421  C1425   1.453   .     S
C1422  C1426   1.455   .     S
Zn1423 N1465   2.007   .     S
Zn1424 N1466   2.007   .     S
C1425  C1429   1.397   .     A
C1425  C1431   1.389   .     A
C1426  C1430   1.399   .     A
C1426  C1432   1.393   .     A
C1427  H1449   1.084   .     S
C1427  C1435   1.406   .     A
C1427  C1429   1.393   .     A
C1428  C1436   1.406   .     A
C1428  H1450   1.083   .     S
C1428  C1430   1.394   .     A
C1429  H1448   1.082   .     S
C1430  H1447   1.083   .     S
C1431  H1446   1.075   .     S
C1431  C1433   1.393   .     A
C1432  H1445   1.078   .     S
C1432  C1434   1.392   .     A
C1433  C1437   1.424   .     A
C1433  C1435   1.416   .     A
C1434  C1436   1.415   .     A
C1434  C1438   1.420   .     A
C1435  C595    1.386   1_556 S
C1437  C1440   1.432   .     A
C1437  C592    1.420   1_556 S
C1438  C1439   1.429   .     A
C1439  O1467   1.382   .     S
C1439  C1441   1.392   .     A
C1440  C1442   1.395   .     A
C1440  O1475   1.383   .     S
C1441  H1443   1.084   .     S
C1442  H1444   1.085   .     S
C1442  C590    1.386   1_556 S
C1451  C1456   1.408   .     A
C1451  O1483   1.386   .     S
C1451  C889    1.381   1_565 S
C1452  O1491   1.384   .     S
C1452  C1455   1.405   .     A
C1453  N1499   1.434   .     S
C1453  C1455   1.407   .     A
C1454  C1456   1.407   .     A
C1454  N1502   1.441   .     S
C1454  C888    1.383   1_565 S
C1457  H1459   1.082   .     S
C1457  N1466   1.366   .     A
C1457  C1555   1.415   .     S
C1458  N1465   1.366   .     A
C1458  H1460   1.082   .     S
C1458  C1650   1.415   1_455 S
C1461  H1463   1.082   .     S
C1461  N1465   1.367   .     A
C1461  C1645   1.415   1_455 S
C1462  H1464   1.079   .     S
C1462  N1466   1.365   .     A
C1462  C1552   1.415   .     S
O1467  C1468   1.413   .     S
C1468  H1470   1.113   .     S
C1468  C1471   1.519   .     S
C1468  H1469   1.117   .     S
C1471  H1473   1.110   .     S
C1471  H1474   1.110   .     S
C1471  H1472   1.109   .     S
O1475  C1476   1.417   .     S
C1476  H1478   1.108   .     S
C1476  C1479   1.532   .     S
C1476  H1477   1.112   .     S
C1479  H1482   1.110   .     S
C1479  H1480   1.109   .     S
C1479  H1481   1.109   .     S
O1483  C1484   1.417   .     S
C1484  H1486   1.118   .     S
C1484  C1487   1.523   .     S
C1484  H1485   1.108   .     S
C1487  H1488   1.110   .     S
C1487  H1489   1.111   .     S
C1487  H1490   1.109   .     S
O1491  C1492   1.423   .     S
C1492  H1494   1.109   .     S
C1492  C1495   1.519   .     S
C1492  H1493   1.119   .     S
C1495  H1496   1.108   .     S
C1495  H1498   1.109   .     S
C1495  H1685   1.108   1_455 S
H1497  C1589   1.108   .     S
N1499  O1501   1.300   .     A
N1499  O1500   1.300   .     A
N1502  O1504   1.300   .     A
N1502  O1503   1.302   .     A
O1505  C1509   1.286   .     A
O1505  Zn1517  2.003   .     S
O1506  C1510   1.287   .     A
O1506  Zn1518  2.003   .     S
O1507  Zn1518  2.015   .     S
O1507  C1509   1.282   .     A
O1508  Zn1517  2.015   .     S
O1508  C1510   1.285   .     A
C1509  C1550   1.430   .     S
C1510  C1549   1.436   .     S
O1511  C1515   1.289   .     A
O1511  Zn1517  1.981   .     S
O1512  Zn1518  1.981   .     S
O1512  C1516   1.293   .     A
O1513  Zn1518  1.930   .     S
O1513  C1515   1.292   .     A
O1514  C1516   1.289   .     A
O1514  Zn1517  1.930   .     S
C1515  C1519   1.453   .     S
C1516  C1520   1.455   .     S
Zn1517 N1559   2.007   .     S
Zn1518 N1560   2.007   .     S
C1519  C1523   1.397   .     A
C1519  C1525   1.389   .     A
C1520  C1524   1.399   .     A
C1520  C1526   1.393   .     A
C1521  H1543   1.084   .     S
C1521  C1529   1.406   .     A
C1521  C1523   1.393   .     A
C1522  C1530   1.406   .     A
C1522  H1544   1.083   .     S
C1522  C1524   1.394   .     A
C1523  H1542   1.082   .     S
C1524  H1541   1.083   .     S
C1525  H1540   1.075   .     S
C1525  C1527   1.393   .     A
C1526  H1539   1.078   .     S
C1526  C1528   1.392   .     A
C1527  C1531   1.424   .     A
C1527  C1529   1.416   .     A
C1528  C1530   1.415   .     A
C1528  C1532   1.420   .     A
C1529  C689    1.386   1_556 S
C1531  C1534   1.432   .     A
C1531  C686    1.420   1_556 S
C1532  C1533   1.429   .     A
C1533  O1561   1.382   .     S
C1533  C1535   1.392   .     A
C1534  C1536   1.395   .     A
C1534  O1569   1.383   .     S
C1535  H1537   1.084   .     S
C1536  H1538   1.085   .     S
C1536  C684    1.386   1_556 S
C1545  C1550   1.408   .     A
C1545  O1577   1.386   .     S
C1545  C983    1.381   1_565 S
C1546  O1585   1.384   .     S
C1546  C1549   1.405   .     A
C1547  N1593   1.434   .     S
C1547  C1549   1.407   .     A
C1548  C1550   1.407   .     A
C1548  N1596   1.441   .     S
C1548  C982    1.383   1_565 S
C1551  H1553   1.082   .     S
C1551  N1560   1.366   .     A
C1551  C1649   1.415   .     S
C1552  N1559   1.366   .     A
C1552  H1554   1.082   .     S
C1555  H1557   1.082   .     S
C1555  N1559   1.367   .     A
C1556  H1558   1.079   .     S
C1556  N1560   1.365   .     A
C1556  C1646   1.415   .     S
O1561  C1562   1.413   .     S
C1562  H1564   1.113   .     S
C1562  C1565   1.519   .     S
C1562  H1563   1.117   .     S
C1565  H1567   1.110   .     S
C1565  H1568   1.110   .     S
C1565  H1566   1.109   .     S
O1569  C1570   1.417   .     S
C1570  H1572   1.108   .     S
C1570  C1573   1.532   .     S
C1570  H1571   1.112   .     S
C1573  H1576   1.110   .     S
C1573  H1574   1.109   .     S
C1573  H1575   1.109   .     S
O1577  C1578   1.417   .     S
C1578  H1580   1.118   .     S
C1578  C1581   1.523   .     S
C1578  H1579   1.108   .     S
C1581  H1582   1.110   .     S
C1581  H1583   1.111   .     S
C1581  H1584   1.109   .     S
O1585  C1586   1.423   .     S
C1586  H1588   1.109   .     S
C1586  C1589   1.519   .     S
C1586  H1587   1.119   .     S
C1589  H1590   1.108   .     S
C1589  H1592   1.109   .     S
H1591  C1683   1.108   .     S
N1593  O1595   1.300   .     A
N1593  O1594   1.300   .     A
N1596  O1598   1.300   .     A
N1596  O1597   1.302   .     A
O1599  C1603   1.286   .     A
O1599  Zn1611  2.003   .     S
O1600  C1604   1.287   .     A
O1600  Zn1612  2.003   .     S
O1601  Zn1612  2.015   .     S
O1601  C1603   1.282   .     A
O1602  Zn1611  2.015   .     S
O1602  C1604   1.285   .     A
C1603  C1644   1.430   .     S
C1604  C1643   1.436   .     S
O1605  C1609   1.289   .     A
O1605  Zn1611  1.981   .     S
O1606  Zn1612  1.981   .     S
O1606  C1610   1.293   .     A
O1607  Zn1612  1.930   .     S
O1607  C1609   1.292   .     A
O1608  C1610   1.289   .     A
O1608  Zn1611  1.930   .     S
C1609  C1613   1.453   .     S
C1610  C1614   1.455   .     S
Zn1611 N1653   2.007   .     S
Zn1612 N1654   2.007   .     S
C1613  C1617   1.397   .     A
C1613  C1619   1.389   .     A
C1614  C1618   1.399   .     A
C1614  C1620   1.393   .     A
C1615  H1637   1.084   .     S
C1615  C1623   1.406   .     A
C1615  C1617   1.393   .     A
C1616  C1624   1.406   .     A
C1616  H1638   1.083   .     S
C1616  C1618   1.394   .     A
C1617  H1636   1.082   .     S
C1618  H1635   1.083   .     S
C1619  H1634   1.075   .     S
C1619  C1621   1.393   .     A
C1620  H1633   1.078   .     S
C1620  C1622   1.392   .     A
C1621  C1625   1.424   .     A
C1621  C1623   1.416   .     A
C1622  C1624   1.415   .     A
C1622  C1626   1.420   .     A
C1623  C783    1.386   1_556 S
C1625  C1628   1.432   .     A
C1625  C780    1.420   1_556 S
C1626  C1627   1.429   .     A
C1627  O1655   1.382   .     S
C1627  C1629   1.392   .     A
C1628  C1630   1.395   .     A
C1628  O1663   1.383   .     S
C1629  H1631   1.084   .     S
C1630  H1632   1.085   .     S
C1630  C778    1.386   1_556 S
C1639  C1644   1.408   .     A
C1639  O1671   1.386   .     S
C1639  C1077   1.381   1_565 S
C1640  O1679   1.384   .     S
C1640  C1643   1.405   .     A
C1641  N1687   1.434   .     S
C1641  C1643   1.407   .     A
C1642  C1644   1.407   .     A
C1642  N1690   1.441   .     S
C1642  C1076   1.383   1_565 S
C1645  H1647   1.082   .     S
C1645  N1654   1.366   .     A
C1645  C1461   1.415   1_655 S
C1646  N1653   1.366   .     A
C1646  H1648   1.082   .     S
C1649  H1651   1.082   .     S
C1649  N1653   1.367   .     A
C1650  H1652   1.079   .     S
C1650  N1654   1.365   .     A
C1650  C1458   1.415   1_655 S
O1655  C1656   1.413   .     S
C1656  H1658   1.113   .     S
C1656  C1659   1.519   .     S
C1656  H1657   1.117   .     S
C1659  H1661   1.110   .     S
C1659  H1662   1.110   .     S
C1659  H1660   1.109   .     S
O1663  C1664   1.417   .     S
C1664  H1666   1.108   .     S
C1664  C1667   1.532   .     S
C1664  H1665   1.112   .     S
C1667  H1670   1.110   .     S
C1667  H1668   1.109   .     S
C1667  H1669   1.109   .     S
O1671  C1672   1.417   .     S
C1672  H1674   1.118   .     S
C1672  C1675   1.523   .     S
C1672  H1673   1.108   .     S
C1675  H1676   1.110   .     S
C1675  H1677   1.111   .     S
C1675  H1678   1.109   .     S
O1679  C1680   1.423   .     S
C1680  H1682   1.109   .     S
C1680  C1683   1.519   .     S
C1680  H1681   1.119   .     S
C1683  H1684   1.108   .     S
C1683  H1686   1.109   .     S
H1685  C1495   1.108   1_655 S
N1687  O1689   1.300   .     A
N1687  O1688   1.300   .     A
N1690  O1692   1.300   .     A
N1690  O1691   1.302   .     A
