data_str_m3_o2_o10_pcu_sym.93
_audit_creation_date              2020-01-03
_audit_creation_method            'Materials Studio'
_symmetry_space_group_name_H-M    'P1'
_symmetry_Int_Tables_number       1
_symmetry_cell_setting            triclinic
loop_
_symmetry_equiv_pos_as_xyz
  x,y,z
_cell_length_a                    25.3259
_cell_length_b                    29.8852
_cell_length_c                    28.3725
_cell_angle_alpha                 88.5597
_cell_angle_beta                  98.6212
_cell_angle_gamma                 89.1901
loop_
_atom_site_label
_atom_site_type_symbol
_atom_site_fract_x
_atom_site_fract_y
_atom_site_fract_z
_atom_site_U_iso_or_equiv
_atom_site_adp_type
_atom_site_occupancy
C1     C     0.16682   0.16394   0.25063   0.00000  Uiso   1.00
C2     C     0.15498   0.21145   0.44696   0.00000  Uiso   1.00
C3     C     0.16407   0.24949   0.02609   0.00000  Uiso   1.00
C4     C     0.16494   0.25063   0.47290   0.00000  Uiso   1.00
C5     C     0.06749   0.25784   0.23747   0.00000  Uiso   1.00
C6     C     0.26569   0.25777   0.26197   0.00000  Uiso   1.00
C7     C     0.01311   0.27532   0.22994   0.00000  Uiso   1.00
C8     C     0.31941   0.27555   0.26759   0.00000  Uiso   1.00
C9     C     0.14804   0.04352   0.27859   0.00000  Uiso   1.00
C10    C     0.17352   0.45946   0.21481   0.00000  Uiso   1.00
C11    C     0.13735   0.08918   0.27449   0.00000  Uiso   1.00
C12    C     0.16721   0.33672   0.24961   0.00000  Uiso   1.00
C13    C     0.16366   0.41423   0.21003   0.00000  Uiso   1.00
C14    C     0.17294   0.11615   0.25332   0.00000  Uiso   1.00
C15    C     0.17417   0.38542   0.25086   0.00000  Uiso   1.00
C16    C     0.21702   0.09769   0.23580   0.00000  Uiso   1.00
C17    C     0.19369   0.40352   0.29535   0.00000  Uiso   1.00
C18    C     0.22662   0.05167   0.23826   0.00000  Uiso   1.00
C19    C     0.20305   0.44911   0.30010   0.00000  Uiso   1.00
C20    C     0.19201   0.02490   0.26117   0.00000  Uiso   1.00
C21    C     0.19297   0.47679   0.25886   0.00000  Uiso   1.00
C22    C     0.32248   0.29154   0.17968   0.00000  Uiso   1.00
C23    C     0.11608   0.25152   0.04618   0.00000  Uiso   1.00
C24    C     0.02061   0.32996   0.16142   0.00000  Uiso   1.00
C25    C     0.32875   0.34700   0.11186   0.00000  Uiso   1.00
C26    C     0.00982   0.29558   0.31497   0.00000  Uiso   1.00
C27    C     0.30812   0.33421   0.32848   0.00000  Uiso   1.00
C28    C     0.00668   0.36548   0.36337   0.00000  Uiso   1.00
C29    C     0.08540   0.10698   0.28827   0.00000  Uiso   1.00
C30    C     0.08180   0.09747   0.34113   0.00000  Uiso   1.00
C31    C     0.03273   0.12052   0.35561   0.00000  Uiso   1.00
C32    C     0.14193   0.39952   0.16084   0.00000  Uiso   1.00
C33    C     0.18782   0.38856   0.13375   0.00000  Uiso   1.00
C34    C     0.17608   0.29028   0.44773   0.00000  Uiso   1.00
C35    C     0.16676   0.37131   0.08493   0.00000  Uiso   1.00
C36    C     0.27000   0.03252   0.21223   0.00000  Uiso   1.00
C37    C     0.31419   0.00639   0.24503   0.00000  Uiso   1.00
C38    C     0.02590   0.49212   0.21807   0.00000  Uiso   1.00
C39    C     0.22030   0.46714   0.34952   0.00000  Uiso   1.00
C40    C     0.27572   0.48814   0.35525   0.00000  Uiso   1.00
C41    C     0.29551   0.49862   0.40719   0.00000  Uiso   1.00
C42    C     0.06181   0.24948   0.01575   0.00000  Uiso   1.00
C43    C     0.04375   0.29490   0.49229   0.00000  Uiso   1.00
C44    C     0.32100   0.29232   0.46424   0.00000  Uiso   1.00
C45    C     0.11893   0.25266   0.09647   0.00000  Uiso   1.00
C46    C     0.18606   0.33341   0.47460   0.00000  Uiso   1.00
C47    C     0.19299   0.37573   0.44436   0.00000  Uiso   1.00
C48    C     0.19987   0.41696   0.47530   0.00000  Uiso   1.00
C49    C     0.17696   0.28852   0.39790   0.00000  Uiso   1.00
C50    C     0.21237   0.24357   0.10729   0.00000  Uiso   1.00
C51    C     0.15571   0.21191   0.39752   0.00000  Uiso   1.00
C52    C     0.21224   0.24464   0.05768   0.00000  Uiso   1.00
H53    H     0.32180   0.31882   0.08700   0.00000  Uiso   1.00
H54    H     0.31227   0.38824   0.37849   0.00000  Uiso   1.00
H55    H     0.29122   0.35424   0.29603   0.00000  Uiso   1.00
H56    H     0.27466   0.32045   0.34519   0.00000  Uiso   1.00
H57    H     0.01483   0.26915   0.34363   0.00000  Uiso   1.00
H58    H     0.04962   0.30986   0.31250   0.00000  Uiso   1.00
H59    H     0.12008   0.02171   0.29283   0.00000  Uiso   1.00
H60    H     0.16386   0.48199   0.18400   0.00000  Uiso   1.00
H61    H     0.32910   0.10867   0.33366   0.00000  Uiso   1.00
H62    H     0.03067   0.11247   0.39370   0.00000  Uiso   1.00
H63    H     0.03516   0.15743   0.35092   0.00000  Uiso   1.00
H64    H     0.29040   0.36451   0.11366   0.00000  Uiso   1.00
H65    H     0.07891   0.06088   0.34794   0.00000  Uiso   1.00
H66    H     0.11824   0.10933   0.36372   0.00000  Uiso   1.00
H67    H     0.07976   0.14341   0.28041   0.00000  Uiso   1.00
H68    H     0.05167   0.09068   0.26597   0.00000  Uiso   1.00
H69    H     0.14346   0.34061   0.08813   0.00000  Uiso   1.00
H70    H     0.14074   0.39705   0.06374   0.00000  Uiso   1.00
H71    H     0.20126   0.36339   0.06680   0.00000  Uiso   1.00
H72    H     0.21147   0.41910   0.12951   0.00000  Uiso   1.00
H73    H     0.21460   0.36267   0.15383   0.00000  Uiso   1.00
H74    H     0.11580   0.37092   0.16238   0.00000  Uiso   1.00
H75    H     0.02255   0.37107   0.09769   0.00000  Uiso   1.00
H76    H     0.11611   0.42639   0.14108   0.00000  Uiso   1.00
H77    H     0.24331   0.11945   0.21925   0.00000  Uiso   1.00
H78    H     0.20169   0.38202   0.32695   0.00000  Uiso   1.00
H79    H     0.01011   0.47129   0.18740   0.00000  Uiso   1.00
H80    H     0.04553   0.02196   0.20486   0.00000  Uiso   1.00
H81    H     0.05623   0.47195   0.24227   0.00000  Uiso   1.00
H82    H     0.33094   0.02736   0.27521   0.00000  Uiso   1.00
H83    H     0.29776   0.47560   0.25930   0.00000  Uiso   1.00
H84    H     0.25162   0.01047   0.18364   0.00000  Uiso   1.00
H85    H     0.28896   0.06001   0.19399   0.00000  Uiso   1.00
H86    H     0.02345   0.35802   0.18665   0.00000  Uiso   1.00
H87    H     0.26688   0.02159   0.42097   0.00000  Uiso   1.00
H88    H     0.30031   0.46729   0.42946   0.00000  Uiso   1.00
H89    H     0.00153   0.01505   0.40985   0.00000  Uiso   1.00
H90    H     0.30487   0.46484   0.34273   0.00000  Uiso   1.00
H91    H     0.27396   0.01993   0.33406   0.00000  Uiso   1.00
H92    H     0.19031   0.49197   0.35794   0.00000  Uiso   1.00
H93    H     0.22150   0.43947   0.37633   0.00000  Uiso   1.00
H94    H     0.32108   0.27045   0.43316   0.00000  Uiso   1.00
H95    H     0.29300   0.27878   0.48724   0.00000  Uiso   1.00
H96    H     0.30682   0.32630   0.45125   0.00000  Uiso   1.00
H97    H     0.06107   0.31753   0.15829   0.00000  Uiso   1.00
H98    H     0.04403   0.32050   0.02006   0.00000  Uiso   1.00
H99    H     0.07116   0.30543   0.46730   0.00000  Uiso   1.00
H100   H     0.06248   0.22391   0.48810   0.00000  Uiso   1.00
H101   H     0.03171   0.23829   0.03815   0.00000  Uiso   1.00
H102   H     0.16315   0.42336   0.49118   0.00000  Uiso   1.00
H103   H     0.23462   0.41224   0.00401   0.00000  Uiso   1.00
H104   H     0.20670   0.44697   0.45345   0.00000  Uiso   1.00
H105   H     0.22891   0.37183   0.42659   0.00000  Uiso   1.00
H106   H     0.15725   0.38127   0.41676   0.00000  Uiso   1.00
H107   H     0.15161   0.33950   0.49366   0.00000  Uiso   1.00
H108   H     0.32420   0.26322   0.15552   0.00000  Uiso   1.00
H109   H     0.22246   0.32831   0.00139   0.00000  Uiso   1.00
H110   H     0.08244   0.25486   0.11173   0.00000  Uiso   1.00
H111   H     0.18574   0.31785   0.37796   0.00000  Uiso   1.00
H112   H     0.24879   0.23594   0.13060   0.00000  Uiso   1.00
H113   H     0.14751   0.18162   0.37810   0.00000  Uiso   1.00
H114   H     0.24960   0.24028   0.04407   0.00000  Uiso   1.00
H115   H     0.14642   0.18057   0.46491   0.00000  Uiso   1.00
H116   H     0.28095   0.30433   0.17792   0.00000  Uiso   1.00
H117   H     0.03097   0.34609   0.39296   0.00000  Uiso   1.00
H118   H     0.03387   0.38593   0.34466   0.00000  Uiso   1.00
N119   N     0.16667   0.24999   0.12623   0.00000  Uiso   1.00
N120   N     0.16667   0.25001   0.37376   0.00000  Uiso   1.00
O121   O     0.16667   0.18453   0.28974   0.00000  Uiso   1.00
O122   O     0.16666   0.31546   0.21026   0.00000  Uiso   1.00
O123   O     0.16667   0.18453   0.21026   0.00000  Uiso   1.00
O124   O     0.16666   0.31547   0.28974   0.00000  Uiso   1.00
O125   O     0.09058   0.25000   0.28044   0.00000  Uiso   1.00
O126   O     0.24275   0.25000   0.21955   0.00000  Uiso   1.00
O127   O     0.09058   0.24999   0.20096   0.00000  Uiso   1.00
O128   O     0.24275   0.25000   0.29903   0.00000  Uiso   1.00
Zn129  Zn    0.16667   0.25000   0.30307   0.00000  Uiso   1.00
Zn130  Zn    0.16667   0.24999   0.19693   0.00000  Uiso   1.00
C131   C     0.50015   0.16394   0.25063   0.00000  Uiso   1.00
C132   C     0.48831   0.21145   0.44696   0.00000  Uiso   1.00
C133   C     0.49740   0.24949   0.02609   0.00000  Uiso   1.00
C134   C     0.49828   0.25063   0.47290   0.00000  Uiso   1.00
C135   C     0.40083   0.25784   0.23747   0.00000  Uiso   1.00
C136   C     0.59902   0.25777   0.26197   0.00000  Uiso   1.00
C137   C     0.34644   0.27532   0.22994   0.00000  Uiso   1.00
C138   C     0.65274   0.27555   0.26759   0.00000  Uiso   1.00
C139   C     0.48138   0.04352   0.27859   0.00000  Uiso   1.00
C140   C     0.50686   0.45946   0.21481   0.00000  Uiso   1.00
C141   C     0.47069   0.08918   0.27449   0.00000  Uiso   1.00
C142   C     0.50055   0.33672   0.24961   0.00000  Uiso   1.00
C143   C     0.49699   0.41423   0.21003   0.00000  Uiso   1.00
C144   C     0.50628   0.11615   0.25332   0.00000  Uiso   1.00
C145   C     0.50750   0.38542   0.25086   0.00000  Uiso   1.00
C146   C     0.55035   0.09769   0.23580   0.00000  Uiso   1.00
C147   C     0.52702   0.40352   0.29535   0.00000  Uiso   1.00
C148   C     0.55996   0.05167   0.23826   0.00000  Uiso   1.00
C149   C     0.53639   0.44911   0.30010   0.00000  Uiso   1.00
C150   C     0.52534   0.02490   0.26117   0.00000  Uiso   1.00
C151   C     0.52630   0.47679   0.25886   0.00000  Uiso   1.00
C152   C     0.65581   0.29154   0.17968   0.00000  Uiso   1.00
C153   C     0.44941   0.25152   0.04618   0.00000  Uiso   1.00
C154   C     0.35395   0.32996   0.16142   0.00000  Uiso   1.00
C155   C     0.66208   0.34700   0.11186   0.00000  Uiso   1.00
C156   C     0.34316   0.29558   0.31497   0.00000  Uiso   1.00
C157   C     0.64146   0.33421   0.32848   0.00000  Uiso   1.00
C158   C     0.34002   0.36548   0.36337   0.00000  Uiso   1.00
C159   C     0.41874   0.10698   0.28827   0.00000  Uiso   1.00
C160   C     0.41513   0.09747   0.34113   0.00000  Uiso   1.00
C161   C     0.36606   0.12052   0.35561   0.00000  Uiso   1.00
C162   C     0.47527   0.39952   0.16084   0.00000  Uiso   1.00
C163   C     0.52115   0.38856   0.13375   0.00000  Uiso   1.00
C164   C     0.50941   0.29028   0.44773   0.00000  Uiso   1.00
C165   C     0.50009   0.37131   0.08493   0.00000  Uiso   1.00
C166   C     0.60334   0.03252   0.21223   0.00000  Uiso   1.00
C167   C     0.64752   0.00639   0.24503   0.00000  Uiso   1.00
C168   C     0.35924   0.49212   0.21807   0.00000  Uiso   1.00
C169   C     0.55364   0.46714   0.34952   0.00000  Uiso   1.00
C170   C     0.60905   0.48814   0.35525   0.00000  Uiso   1.00
C171   C     0.62884   0.49862   0.40719   0.00000  Uiso   1.00
C172   C     0.39514   0.24948   0.01575   0.00000  Uiso   1.00
C173   C     0.37709   0.29490   0.49229   0.00000  Uiso   1.00
C174   C     0.65433   0.29232   0.46424   0.00000  Uiso   1.00
C175   C     0.45226   0.25266   0.09647   0.00000  Uiso   1.00
C176   C     0.51939   0.33341   0.47460   0.00000  Uiso   1.00
C177   C     0.52633   0.37573   0.44436   0.00000  Uiso   1.00
C178   C     0.53320   0.41696   0.47530   0.00000  Uiso   1.00
C179   C     0.51029   0.28852   0.39790   0.00000  Uiso   1.00
C180   C     0.54570   0.24357   0.10729   0.00000  Uiso   1.00
C181   C     0.48904   0.21191   0.39752   0.00000  Uiso   1.00
C182   C     0.54557   0.24464   0.05768   0.00000  Uiso   1.00
H183   H     0.65513   0.31882   0.08700   0.00000  Uiso   1.00
H184   H     0.64560   0.38824   0.37849   0.00000  Uiso   1.00
H185   H     0.62455   0.35424   0.29603   0.00000  Uiso   1.00
H186   H     0.60799   0.32045   0.34519   0.00000  Uiso   1.00
H187   H     0.34816   0.26915   0.34363   0.00000  Uiso   1.00
H188   H     0.38295   0.30986   0.31250   0.00000  Uiso   1.00
H189   H     0.45341   0.02171   0.29283   0.00000  Uiso   1.00
H190   H     0.49719   0.48199   0.18400   0.00000  Uiso   1.00
H191   H     0.66243   0.10867   0.33366   0.00000  Uiso   1.00
H192   H     0.36400   0.11247   0.39370   0.00000  Uiso   1.00
H193   H     0.36850   0.15743   0.35092   0.00000  Uiso   1.00
H194   H     0.62373   0.36451   0.11366   0.00000  Uiso   1.00
H195   H     0.41224   0.06088   0.34794   0.00000  Uiso   1.00
H196   H     0.45157   0.10933   0.36372   0.00000  Uiso   1.00
H197   H     0.41309   0.14341   0.28041   0.00000  Uiso   1.00
H198   H     0.38500   0.09068   0.26597   0.00000  Uiso   1.00
H199   H     0.47680   0.34061   0.08813   0.00000  Uiso   1.00
H200   H     0.47407   0.39705   0.06374   0.00000  Uiso   1.00
H201   H     0.53460   0.36339   0.06680   0.00000  Uiso   1.00
H202   H     0.54480   0.41910   0.12951   0.00000  Uiso   1.00
H203   H     0.54793   0.36267   0.15383   0.00000  Uiso   1.00
H204   H     0.44914   0.37092   0.16238   0.00000  Uiso   1.00
H205   H     0.35588   0.37107   0.09769   0.00000  Uiso   1.00
H206   H     0.44944   0.42639   0.14108   0.00000  Uiso   1.00
H207   H     0.57664   0.11945   0.21925   0.00000  Uiso   1.00
H208   H     0.53502   0.38202   0.32695   0.00000  Uiso   1.00
H209   H     0.34344   0.47129   0.18740   0.00000  Uiso   1.00
H210   H     0.37886   0.02196   0.20486   0.00000  Uiso   1.00
H211   H     0.38957   0.47195   0.24227   0.00000  Uiso   1.00
H212   H     0.66428   0.02736   0.27521   0.00000  Uiso   1.00
H213   H     0.63109   0.47560   0.25930   0.00000  Uiso   1.00
H214   H     0.58496   0.01047   0.18364   0.00000  Uiso   1.00
H215   H     0.62229   0.06001   0.19399   0.00000  Uiso   1.00
H216   H     0.35678   0.35802   0.18665   0.00000  Uiso   1.00
H217   H     0.60022   0.02159   0.42097   0.00000  Uiso   1.00
H218   H     0.63364   0.46729   0.42946   0.00000  Uiso   1.00
H219   H     0.33486   0.01505   0.40985   0.00000  Uiso   1.00
H220   H     0.63821   0.46484   0.34273   0.00000  Uiso   1.00
H221   H     0.60730   0.01993   0.33406   0.00000  Uiso   1.00
H222   H     0.52364   0.49197   0.35794   0.00000  Uiso   1.00
H223   H     0.55483   0.43947   0.37633   0.00000  Uiso   1.00
H224   H     0.65441   0.27045   0.43316   0.00000  Uiso   1.00
H225   H     0.62633   0.27878   0.48724   0.00000  Uiso   1.00
H226   H     0.64015   0.32630   0.45125   0.00000  Uiso   1.00
H227   H     0.39440   0.31753   0.15829   0.00000  Uiso   1.00
H228   H     0.37737   0.32050   0.02006   0.00000  Uiso   1.00
H229   H     0.40450   0.30543   0.46730   0.00000  Uiso   1.00
H230   H     0.39582   0.22391   0.48810   0.00000  Uiso   1.00
H231   H     0.36505   0.23829   0.03815   0.00000  Uiso   1.00
H232   H     0.49649   0.42336   0.49118   0.00000  Uiso   1.00
H233   H     0.56795   0.41224   0.00401   0.00000  Uiso   1.00
H234   H     0.54004   0.44697   0.45345   0.00000  Uiso   1.00
H235   H     0.56225   0.37183   0.42659   0.00000  Uiso   1.00
H236   H     0.49058   0.38127   0.41676   0.00000  Uiso   1.00
H237   H     0.48494   0.33950   0.49366   0.00000  Uiso   1.00
H238   H     0.65753   0.26322   0.15552   0.00000  Uiso   1.00
H239   H     0.55579   0.32831   0.00139   0.00000  Uiso   1.00
H240   H     0.41577   0.25486   0.11173   0.00000  Uiso   1.00
H241   H     0.51907   0.31785   0.37796   0.00000  Uiso   1.00
H242   H     0.58212   0.23594   0.13060   0.00000  Uiso   1.00
H243   H     0.48085   0.18162   0.37810   0.00000  Uiso   1.00
H244   H     0.58293   0.24028   0.04407   0.00000  Uiso   1.00
H245   H     0.47976   0.18057   0.46491   0.00000  Uiso   1.00
H246   H     0.61428   0.30433   0.17792   0.00000  Uiso   1.00
H247   H     0.36431   0.34609   0.39296   0.00000  Uiso   1.00
H248   H     0.36720   0.38593   0.34466   0.00000  Uiso   1.00
N249   N     0.50000   0.24999   0.12623   0.00000  Uiso   1.00
N250   N     0.50000   0.25001   0.37376   0.00000  Uiso   1.00
O251   O     0.50000   0.18453   0.28974   0.00000  Uiso   1.00
O252   O     0.50000   0.31546   0.21026   0.00000  Uiso   1.00
O253   O     0.50000   0.18453   0.21026   0.00000  Uiso   1.00
O254   O     0.50000   0.31547   0.28974   0.00000  Uiso   1.00
O255   O     0.42392   0.25000   0.28044   0.00000  Uiso   1.00
O256   O     0.57608   0.25000   0.21955   0.00000  Uiso   1.00
O257   O     0.42392   0.24999   0.20096   0.00000  Uiso   1.00
O258   O     0.57608   0.25000   0.29903   0.00000  Uiso   1.00
Zn259  Zn    0.50000   0.25000   0.30307   0.00000  Uiso   1.00
Zn260  Zn    0.50000   0.24999   0.19693   0.00000  Uiso   1.00
C261   C     0.83349   0.16394   0.25063   0.00000  Uiso   1.00
C262   C     0.82164   0.21145   0.44696   0.00000  Uiso   1.00
C263   C     0.83074   0.24949   0.02609   0.00000  Uiso   1.00
C264   C     0.83161   0.25063   0.47290   0.00000  Uiso   1.00
C265   C     0.73416   0.25784   0.23747   0.00000  Uiso   1.00
C266   C     0.93236   0.25777   0.26197   0.00000  Uiso   1.00
C267   C     0.67977   0.27532   0.22994   0.00000  Uiso   1.00
C268   C     0.98607   0.27555   0.26759   0.00000  Uiso   1.00
C269   C     0.81471   0.04352   0.27859   0.00000  Uiso   1.00
C270   C     0.84019   0.45946   0.21481   0.00000  Uiso   1.00
C271   C     0.80402   0.08918   0.27449   0.00000  Uiso   1.00
C272   C     0.83388   0.33672   0.24961   0.00000  Uiso   1.00
C273   C     0.83033   0.41423   0.21003   0.00000  Uiso   1.00
C274   C     0.83961   0.11615   0.25332   0.00000  Uiso   1.00
C275   C     0.84083   0.38542   0.25086   0.00000  Uiso   1.00
C276   C     0.88368   0.09769   0.23580   0.00000  Uiso   1.00
C277   C     0.86035   0.40352   0.29535   0.00000  Uiso   1.00
C278   C     0.89329   0.05167   0.23826   0.00000  Uiso   1.00
C279   C     0.86972   0.44911   0.30010   0.00000  Uiso   1.00
C280   C     0.85867   0.02490   0.26117   0.00000  Uiso   1.00
C281   C     0.85963   0.47679   0.25886   0.00000  Uiso   1.00
C282   C     0.98914   0.29154   0.17968   0.00000  Uiso   1.00
C283   C     0.78274   0.25152   0.04618   0.00000  Uiso   1.00
C284   C     0.68728   0.32996   0.16142   0.00000  Uiso   1.00
C285   C     0.99542   0.34700   0.11186   0.00000  Uiso   1.00
C286   C     0.67649   0.29558   0.31497   0.00000  Uiso   1.00
C287   C     0.97479   0.33421   0.32848   0.00000  Uiso   1.00
C288   C     0.67335   0.36548   0.36337   0.00000  Uiso   1.00
C289   C     0.75207   0.10698   0.28827   0.00000  Uiso   1.00
C290   C     0.74846   0.09747   0.34113   0.00000  Uiso   1.00
C291   C     0.69940   0.12052   0.35561   0.00000  Uiso   1.00
C292   C     0.80860   0.39952   0.16084   0.00000  Uiso   1.00
C293   C     0.85448   0.38856   0.13375   0.00000  Uiso   1.00
C294   C     0.84275   0.29028   0.44773   0.00000  Uiso   1.00
C295   C     0.83342   0.37131   0.08493   0.00000  Uiso   1.00
C296   C     0.93667   0.03252   0.21223   0.00000  Uiso   1.00
C297   C     0.98085   0.00639   0.24503   0.00000  Uiso   1.00
C298   C     0.69257   0.49212   0.21807   0.00000  Uiso   1.00
C299   C     0.88697   0.46714   0.34952   0.00000  Uiso   1.00
C300   C     0.94238   0.48814   0.35525   0.00000  Uiso   1.00
C301   C     0.96217   0.49862   0.40719   0.00000  Uiso   1.00
C302   C     0.72847   0.24948   0.01575   0.00000  Uiso   1.00
C303   C     0.71042   0.29490   0.49229   0.00000  Uiso   1.00
C304   C     0.98767   0.29232   0.46424   0.00000  Uiso   1.00
C305   C     0.78560   0.25266   0.09647   0.00000  Uiso   1.00
C306   C     0.85273   0.33341   0.47460   0.00000  Uiso   1.00
C307   C     0.85966   0.37573   0.44436   0.00000  Uiso   1.00
C308   C     0.86654   0.41696   0.47530   0.00000  Uiso   1.00
C309   C     0.84362   0.28852   0.39790   0.00000  Uiso   1.00
C310   C     0.87903   0.24357   0.10729   0.00000  Uiso   1.00
C311   C     0.82237   0.21191   0.39752   0.00000  Uiso   1.00
C312   C     0.87891   0.24464   0.05768   0.00000  Uiso   1.00
H313   H     0.98847   0.31882   0.08700   0.00000  Uiso   1.00
H314   H     0.97894   0.38824   0.37849   0.00000  Uiso   1.00
H315   H     0.95788   0.35424   0.29603   0.00000  Uiso   1.00
H316   H     0.94133   0.32045   0.34519   0.00000  Uiso   1.00
H317   H     0.68150   0.26915   0.34363   0.00000  Uiso   1.00
H318   H     0.71628   0.30986   0.31250   0.00000  Uiso   1.00
H319   H     0.78674   0.02171   0.29283   0.00000  Uiso   1.00
H320   H     0.83053   0.48199   0.18400   0.00000  Uiso   1.00
H321   H     0.99577   0.10867   0.33366   0.00000  Uiso   1.00
H322   H     0.69734   0.11247   0.39370   0.00000  Uiso   1.00
H323   H     0.70183   0.15743   0.35092   0.00000  Uiso   1.00
H324   H     0.95706   0.36451   0.11366   0.00000  Uiso   1.00
H325   H     0.74558   0.06088   0.34794   0.00000  Uiso   1.00
H326   H     0.78491   0.10933   0.36372   0.00000  Uiso   1.00
H327   H     0.74642   0.14341   0.28041   0.00000  Uiso   1.00
H328   H     0.71833   0.09068   0.26597   0.00000  Uiso   1.00
H329   H     0.81013   0.34061   0.08813   0.00000  Uiso   1.00
H330   H     0.80741   0.39705   0.06374   0.00000  Uiso   1.00
H331   H     0.86793   0.36339   0.06680   0.00000  Uiso   1.00
H332   H     0.87813   0.41910   0.12951   0.00000  Uiso   1.00
H333   H     0.88127   0.36267   0.15383   0.00000  Uiso   1.00
H334   H     0.78247   0.37092   0.16238   0.00000  Uiso   1.00
H335   H     0.68921   0.37107   0.09769   0.00000  Uiso   1.00
H336   H     0.78278   0.42639   0.14108   0.00000  Uiso   1.00
H337   H     0.90998   0.11945   0.21925   0.00000  Uiso   1.00
H338   H     0.86836   0.38202   0.32695   0.00000  Uiso   1.00
H339   H     0.67677   0.47129   0.18740   0.00000  Uiso   1.00
H340   H     0.71220   0.02196   0.20486   0.00000  Uiso   1.00
H341   H     0.72290   0.47195   0.24227   0.00000  Uiso   1.00
H342   H     0.99761   0.02736   0.27521   0.00000  Uiso   1.00
H343   H     0.96443   0.47560   0.25930   0.00000  Uiso   1.00
H344   H     0.91829   0.01047   0.18364   0.00000  Uiso   1.00
H345   H     0.95563   0.06001   0.19399   0.00000  Uiso   1.00
H346   H     0.69011   0.35802   0.18665   0.00000  Uiso   1.00
H347   H     0.93355   0.02159   0.42097   0.00000  Uiso   1.00
H348   H     0.96698   0.46729   0.42946   0.00000  Uiso   1.00
H349   H     0.66820   0.01505   0.40985   0.00000  Uiso   1.00
H350   H     0.97154   0.46484   0.34273   0.00000  Uiso   1.00
H351   H     0.94063   0.01993   0.33406   0.00000  Uiso   1.00
H352   H     0.85698   0.49197   0.35794   0.00000  Uiso   1.00
H353   H     0.88817   0.43947   0.37633   0.00000  Uiso   1.00
H354   H     0.98774   0.27045   0.43316   0.00000  Uiso   1.00
H355   H     0.95966   0.27878   0.48724   0.00000  Uiso   1.00
H356   H     0.97348   0.32630   0.45125   0.00000  Uiso   1.00
H357   H     0.72774   0.31753   0.15829   0.00000  Uiso   1.00
H358   H     0.71070   0.32050   0.02006   0.00000  Uiso   1.00
H359   H     0.73783   0.30543   0.46730   0.00000  Uiso   1.00
H360   H     0.72915   0.22391   0.48810   0.00000  Uiso   1.00
H361   H     0.69838   0.23829   0.03815   0.00000  Uiso   1.00
H362   H     0.82982   0.42336   0.49118   0.00000  Uiso   1.00
H363   H     0.90129   0.41224   0.00401   0.00000  Uiso   1.00
H364   H     0.87337   0.44697   0.45345   0.00000  Uiso   1.00
H365   H     0.89558   0.37183   0.42659   0.00000  Uiso   1.00
H366   H     0.82392   0.38127   0.41676   0.00000  Uiso   1.00
H367   H     0.81828   0.33950   0.49366   0.00000  Uiso   1.00
H368   H     0.99086   0.26322   0.15552   0.00000  Uiso   1.00
H369   H     0.88913   0.32831   0.00139   0.00000  Uiso   1.00
H370   H     0.74910   0.25486   0.11173   0.00000  Uiso   1.00
H371   H     0.85240   0.31785   0.37796   0.00000  Uiso   1.00
H372   H     0.91546   0.23594   0.13060   0.00000  Uiso   1.00
H373   H     0.81418   0.18162   0.37810   0.00000  Uiso   1.00
H374   H     0.91626   0.24028   0.04407   0.00000  Uiso   1.00
H375   H     0.81309   0.18057   0.46491   0.00000  Uiso   1.00
H376   H     0.94761   0.30433   0.17792   0.00000  Uiso   1.00
H377   H     0.69764   0.34609   0.39296   0.00000  Uiso   1.00
H378   H     0.70054   0.38593   0.34466   0.00000  Uiso   1.00
N379   N     0.83333   0.24999   0.12623   0.00000  Uiso   1.00
N380   N     0.83333   0.25001   0.37376   0.00000  Uiso   1.00
O381   O     0.83334   0.18453   0.28974   0.00000  Uiso   1.00
O382   O     0.83333   0.31546   0.21026   0.00000  Uiso   1.00
O383   O     0.83334   0.18453   0.21026   0.00000  Uiso   1.00
O384   O     0.83333   0.31547   0.28974   0.00000  Uiso   1.00
O385   O     0.75725   0.25000   0.28044   0.00000  Uiso   1.00
O386   O     0.90942   0.25000   0.21955   0.00000  Uiso   1.00
O387   O     0.75725   0.24999   0.20096   0.00000  Uiso   1.00
O388   O     0.90942   0.25000   0.29903   0.00000  Uiso   1.00
Zn389  Zn    0.83333   0.25000   0.30307   0.00000  Uiso   1.00
Zn390  Zn    0.83333   0.24999   0.19693   0.00000  Uiso   1.00
C391   C     0.16682   0.66394   0.25063   0.00000  Uiso   1.00
C392   C     0.15498   0.71145   0.44696   0.00000  Uiso   1.00
C393   C     0.16407   0.74949   0.02609   0.00000  Uiso   1.00
C394   C     0.16494   0.75063   0.47290   0.00000  Uiso   1.00
C395   C     0.06749   0.75784   0.23747   0.00000  Uiso   1.00
C396   C     0.26569   0.75777   0.26197   0.00000  Uiso   1.00
C397   C     0.01311   0.77532   0.22994   0.00000  Uiso   1.00
C398   C     0.31941   0.77555   0.26759   0.00000  Uiso   1.00
C399   C     0.14804   0.54352   0.27859   0.00000  Uiso   1.00
C400   C     0.17352   0.95946   0.21481   0.00000  Uiso   1.00
C401   C     0.13735   0.58918   0.27449   0.00000  Uiso   1.00
C402   C     0.16721   0.83672   0.24961   0.00000  Uiso   1.00
C403   C     0.16366   0.91423   0.21003   0.00000  Uiso   1.00
C404   C     0.17294   0.61615   0.25332   0.00000  Uiso   1.00
C405   C     0.17417   0.88542   0.25086   0.00000  Uiso   1.00
C406   C     0.21702   0.59769   0.23580   0.00000  Uiso   1.00
C407   C     0.19369   0.90352   0.29535   0.00000  Uiso   1.00
C408   C     0.22662   0.55167   0.23826   0.00000  Uiso   1.00
C409   C     0.20305   0.94911   0.30010   0.00000  Uiso   1.00
C410   C     0.19201   0.52490   0.26117   0.00000  Uiso   1.00
C411   C     0.19297   0.97679   0.25886   0.00000  Uiso   1.00
C412   C     0.32248   0.79154   0.17968   0.00000  Uiso   1.00
C413   C     0.11608   0.75152   0.04618   0.00000  Uiso   1.00
C414   C     0.02061   0.82996   0.16142   0.00000  Uiso   1.00
C415   C     0.32875   0.84700   0.11186   0.00000  Uiso   1.00
C416   C     0.00982   0.79558   0.31497   0.00000  Uiso   1.00
C417   C     0.30812   0.83421   0.32848   0.00000  Uiso   1.00
C418   C     0.00668   0.86548   0.36337   0.00000  Uiso   1.00
C419   C     0.08540   0.60698   0.28827   0.00000  Uiso   1.00
C420   C     0.08180   0.59747   0.34113   0.00000  Uiso   1.00
C421   C     0.03273   0.62052   0.35561   0.00000  Uiso   1.00
C422   C     0.14193   0.89952   0.16084   0.00000  Uiso   1.00
C423   C     0.18782   0.88856   0.13375   0.00000  Uiso   1.00
C424   C     0.17608   0.79028   0.44773   0.00000  Uiso   1.00
C425   C     0.16676   0.87131   0.08493   0.00000  Uiso   1.00
C426   C     0.27000   0.53252   0.21223   0.00000  Uiso   1.00
C427   C     0.31419   0.50639   0.24503   0.00000  Uiso   1.00
C428   C     0.02590   0.99212   0.21807   0.00000  Uiso   1.00
C429   C     0.22030   0.96714   0.34952   0.00000  Uiso   1.00
C430   C     0.27572   0.98814   0.35525   0.00000  Uiso   1.00
C431   C     0.29551   0.99862   0.40719   0.00000  Uiso   1.00
C432   C     0.06181   0.74948   0.01575   0.00000  Uiso   1.00
C433   C     0.04375   0.79490   0.49229   0.00000  Uiso   1.00
C434   C     0.32100   0.79232   0.46424   0.00000  Uiso   1.00
C435   C     0.11893   0.75266   0.09647   0.00000  Uiso   1.00
C436   C     0.18606   0.83341   0.47460   0.00000  Uiso   1.00
C437   C     0.19299   0.87573   0.44436   0.00000  Uiso   1.00
C438   C     0.19987   0.91696   0.47530   0.00000  Uiso   1.00
C439   C     0.17696   0.78852   0.39790   0.00000  Uiso   1.00
C440   C     0.21237   0.74357   0.10729   0.00000  Uiso   1.00
C441   C     0.15571   0.71191   0.39752   0.00000  Uiso   1.00
C442   C     0.21224   0.74464   0.05768   0.00000  Uiso   1.00
H443   H     0.32180   0.81882   0.08700   0.00000  Uiso   1.00
H444   H     0.31227   0.88824   0.37849   0.00000  Uiso   1.00
H445   H     0.29122   0.85424   0.29603   0.00000  Uiso   1.00
H446   H     0.27466   0.82045   0.34519   0.00000  Uiso   1.00
H447   H     0.01483   0.76915   0.34363   0.00000  Uiso   1.00
H448   H     0.04962   0.80986   0.31250   0.00000  Uiso   1.00
H449   H     0.12008   0.52171   0.29283   0.00000  Uiso   1.00
H450   H     0.16386   0.98199   0.18400   0.00000  Uiso   1.00
H451   H     0.32910   0.60867   0.33366   0.00000  Uiso   1.00
H452   H     0.03067   0.61247   0.39370   0.00000  Uiso   1.00
H453   H     0.03516   0.65743   0.35092   0.00000  Uiso   1.00
H454   H     0.29040   0.86451   0.11366   0.00000  Uiso   1.00
H455   H     0.07891   0.56088   0.34794   0.00000  Uiso   1.00
H456   H     0.11824   0.60933   0.36372   0.00000  Uiso   1.00
H457   H     0.07976   0.64341   0.28041   0.00000  Uiso   1.00
H458   H     0.05167   0.59068   0.26597   0.00000  Uiso   1.00
H459   H     0.14346   0.84061   0.08813   0.00000  Uiso   1.00
H460   H     0.14074   0.89705   0.06374   0.00000  Uiso   1.00
H461   H     0.20126   0.86339   0.06680   0.00000  Uiso   1.00
H462   H     0.21147   0.91910   0.12951   0.00000  Uiso   1.00
H463   H     0.21460   0.86267   0.15383   0.00000  Uiso   1.00
H464   H     0.11580   0.87092   0.16238   0.00000  Uiso   1.00
H465   H     0.02255   0.87107   0.09769   0.00000  Uiso   1.00
H466   H     0.11611   0.92639   0.14108   0.00000  Uiso   1.00
H467   H     0.24331   0.61945   0.21925   0.00000  Uiso   1.00
H468   H     0.20169   0.88202   0.32695   0.00000  Uiso   1.00
H469   H     0.01011   0.97129   0.18740   0.00000  Uiso   1.00
H470   H     0.04553   0.52196   0.20486   0.00000  Uiso   1.00
H471   H     0.05623   0.97195   0.24227   0.00000  Uiso   1.00
H472   H     0.33094   0.52736   0.27521   0.00000  Uiso   1.00
H473   H     0.29776   0.97560   0.25930   0.00000  Uiso   1.00
H474   H     0.25162   0.51047   0.18364   0.00000  Uiso   1.00
H475   H     0.28896   0.56001   0.19399   0.00000  Uiso   1.00
H476   H     0.02345   0.85802   0.18665   0.00000  Uiso   1.00
H477   H     0.26688   0.52159   0.42097   0.00000  Uiso   1.00
H478   H     0.30031   0.96729   0.42946   0.00000  Uiso   1.00
H479   H     0.00153   0.51505   0.40985   0.00000  Uiso   1.00
H480   H     0.30487   0.96484   0.34273   0.00000  Uiso   1.00
H481   H     0.27396   0.51993   0.33406   0.00000  Uiso   1.00
H482   H     0.19031   0.99197   0.35794   0.00000  Uiso   1.00
H483   H     0.22150   0.93947   0.37633   0.00000  Uiso   1.00
H484   H     0.32108   0.77045   0.43316   0.00000  Uiso   1.00
H485   H     0.29300   0.77878   0.48724   0.00000  Uiso   1.00
H486   H     0.30682   0.82630   0.45125   0.00000  Uiso   1.00
H487   H     0.06107   0.81753   0.15829   0.00000  Uiso   1.00
H488   H     0.04403   0.82050   0.02006   0.00000  Uiso   1.00
H489   H     0.07116   0.80543   0.46730   0.00000  Uiso   1.00
H490   H     0.06248   0.72391   0.48810   0.00000  Uiso   1.00
H491   H     0.03171   0.73829   0.03815   0.00000  Uiso   1.00
H492   H     0.16315   0.92336   0.49118   0.00000  Uiso   1.00
H493   H     0.23462   0.91224   0.00401   0.00000  Uiso   1.00
H494   H     0.20670   0.94697   0.45345   0.00000  Uiso   1.00
H495   H     0.22891   0.87183   0.42659   0.00000  Uiso   1.00
H496   H     0.15725   0.88127   0.41676   0.00000  Uiso   1.00
H497   H     0.15161   0.83950   0.49366   0.00000  Uiso   1.00
H498   H     0.32420   0.76322   0.15552   0.00000  Uiso   1.00
H499   H     0.22246   0.82831   0.00139   0.00000  Uiso   1.00
H500   H     0.08244   0.75486   0.11173   0.00000  Uiso   1.00
H501   H     0.18574   0.81785   0.37796   0.00000  Uiso   1.00
H502   H     0.24879   0.73594   0.13060   0.00000  Uiso   1.00
H503   H     0.14751   0.68162   0.37810   0.00000  Uiso   1.00
H504   H     0.24960   0.74028   0.04407   0.00000  Uiso   1.00
H505   H     0.14642   0.68057   0.46491   0.00000  Uiso   1.00
H506   H     0.28095   0.80433   0.17792   0.00000  Uiso   1.00
H507   H     0.03097   0.84609   0.39296   0.00000  Uiso   1.00
H508   H     0.03387   0.88593   0.34466   0.00000  Uiso   1.00
N509   N     0.16667   0.74999   0.12623   0.00000  Uiso   1.00
N510   N     0.16667   0.75001   0.37376   0.00000  Uiso   1.00
O511   O     0.16667   0.68453   0.28974   0.00000  Uiso   1.00
O512   O     0.16666   0.81546   0.21026   0.00000  Uiso   1.00
O513   O     0.16667   0.68453   0.21026   0.00000  Uiso   1.00
O514   O     0.16666   0.81547   0.28974   0.00000  Uiso   1.00
O515   O     0.09058   0.75000   0.28044   0.00000  Uiso   1.00
O516   O     0.24275   0.75000   0.21955   0.00000  Uiso   1.00
O517   O     0.09058   0.74999   0.20096   0.00000  Uiso   1.00
O518   O     0.24275   0.75000   0.29903   0.00000  Uiso   1.00
Zn519  Zn    0.16667   0.75000   0.30307   0.00000  Uiso   1.00
Zn520  Zn    0.16667   0.74999   0.19693   0.00000  Uiso   1.00
C521   C     0.50015   0.66394   0.25063   0.00000  Uiso   1.00
C522   C     0.48831   0.71145   0.44696   0.00000  Uiso   1.00
C523   C     0.49740   0.74949   0.02609   0.00000  Uiso   1.00
C524   C     0.49828   0.75063   0.47290   0.00000  Uiso   1.00
C525   C     0.40083   0.75784   0.23747   0.00000  Uiso   1.00
C526   C     0.59902   0.75777   0.26197   0.00000  Uiso   1.00
C527   C     0.34644   0.77532   0.22994   0.00000  Uiso   1.00
C528   C     0.65274   0.77555   0.26759   0.00000  Uiso   1.00
C529   C     0.48138   0.54352   0.27859   0.00000  Uiso   1.00
C530   C     0.50686   0.95946   0.21481   0.00000  Uiso   1.00
C531   C     0.47069   0.58918   0.27449   0.00000  Uiso   1.00
C532   C     0.50055   0.83672   0.24961   0.00000  Uiso   1.00
C533   C     0.49699   0.91423   0.21003   0.00000  Uiso   1.00
C534   C     0.50628   0.61615   0.25332   0.00000  Uiso   1.00
C535   C     0.50750   0.88542   0.25086   0.00000  Uiso   1.00
C536   C     0.55035   0.59769   0.23580   0.00000  Uiso   1.00
C537   C     0.52702   0.90352   0.29535   0.00000  Uiso   1.00
C538   C     0.55996   0.55167   0.23826   0.00000  Uiso   1.00
C539   C     0.53639   0.94911   0.30010   0.00000  Uiso   1.00
C540   C     0.52534   0.52490   0.26117   0.00000  Uiso   1.00
C541   C     0.52630   0.97679   0.25886   0.00000  Uiso   1.00
C542   C     0.65581   0.79154   0.17968   0.00000  Uiso   1.00
C543   C     0.44941   0.75152   0.04618   0.00000  Uiso   1.00
C544   C     0.35395   0.82996   0.16142   0.00000  Uiso   1.00
C545   C     0.66208   0.84700   0.11186   0.00000  Uiso   1.00
C546   C     0.34316   0.79558   0.31497   0.00000  Uiso   1.00
C547   C     0.64146   0.83421   0.32848   0.00000  Uiso   1.00
C548   C     0.34002   0.86548   0.36337   0.00000  Uiso   1.00
C549   C     0.41874   0.60698   0.28827   0.00000  Uiso   1.00
C550   C     0.41513   0.59747   0.34113   0.00000  Uiso   1.00
C551   C     0.36606   0.62052   0.35561   0.00000  Uiso   1.00
C552   C     0.47527   0.89952   0.16084   0.00000  Uiso   1.00
C553   C     0.52115   0.88856   0.13375   0.00000  Uiso   1.00
C554   C     0.50941   0.79028   0.44773   0.00000  Uiso   1.00
C555   C     0.50009   0.87131   0.08493   0.00000  Uiso   1.00
C556   C     0.60334   0.53252   0.21223   0.00000  Uiso   1.00
C557   C     0.64752   0.50639   0.24503   0.00000  Uiso   1.00
C558   C     0.35924   0.99212   0.21807   0.00000  Uiso   1.00
C559   C     0.55364   0.96714   0.34952   0.00000  Uiso   1.00
C560   C     0.60905   0.98814   0.35525   0.00000  Uiso   1.00
C561   C     0.62884   0.99862   0.40719   0.00000  Uiso   1.00
C562   C     0.39514   0.74948   0.01575   0.00000  Uiso   1.00
C563   C     0.37709   0.79490   0.49229   0.00000  Uiso   1.00
C564   C     0.65433   0.79232   0.46424   0.00000  Uiso   1.00
C565   C     0.45226   0.75266   0.09647   0.00000  Uiso   1.00
C566   C     0.51939   0.83341   0.47460   0.00000  Uiso   1.00
C567   C     0.52633   0.87573   0.44436   0.00000  Uiso   1.00
C568   C     0.53320   0.91696   0.47530   0.00000  Uiso   1.00
C569   C     0.51029   0.78852   0.39790   0.00000  Uiso   1.00
C570   C     0.54570   0.74357   0.10729   0.00000  Uiso   1.00
C571   C     0.48904   0.71191   0.39752   0.00000  Uiso   1.00
C572   C     0.54557   0.74464   0.05768   0.00000  Uiso   1.00
H573   H     0.65513   0.81882   0.08700   0.00000  Uiso   1.00
H574   H     0.64560   0.88824   0.37849   0.00000  Uiso   1.00
H575   H     0.62455   0.85424   0.29603   0.00000  Uiso   1.00
H576   H     0.60799   0.82045   0.34519   0.00000  Uiso   1.00
H577   H     0.34816   0.76915   0.34363   0.00000  Uiso   1.00
H578   H     0.38295   0.80986   0.31250   0.00000  Uiso   1.00
H579   H     0.45341   0.52171   0.29283   0.00000  Uiso   1.00
H580   H     0.49719   0.98199   0.18400   0.00000  Uiso   1.00
H581   H     0.66243   0.60867   0.33366   0.00000  Uiso   1.00
H582   H     0.36400   0.61247   0.39370   0.00000  Uiso   1.00
H583   H     0.36850   0.65743   0.35092   0.00000  Uiso   1.00
H584   H     0.62373   0.86451   0.11366   0.00000  Uiso   1.00
H585   H     0.41224   0.56088   0.34794   0.00000  Uiso   1.00
H586   H     0.45157   0.60933   0.36372   0.00000  Uiso   1.00
H587   H     0.41309   0.64341   0.28041   0.00000  Uiso   1.00
H588   H     0.38500   0.59068   0.26597   0.00000  Uiso   1.00
H589   H     0.47680   0.84061   0.08813   0.00000  Uiso   1.00
H590   H     0.47407   0.89705   0.06374   0.00000  Uiso   1.00
H591   H     0.53460   0.86339   0.06680   0.00000  Uiso   1.00
H592   H     0.54480   0.91910   0.12951   0.00000  Uiso   1.00
H593   H     0.54793   0.86267   0.15383   0.00000  Uiso   1.00
H594   H     0.44914   0.87092   0.16238   0.00000  Uiso   1.00
H595   H     0.35588   0.87107   0.09769   0.00000  Uiso   1.00
H596   H     0.44944   0.92639   0.14108   0.00000  Uiso   1.00
H597   H     0.57664   0.61945   0.21925   0.00000  Uiso   1.00
H598   H     0.53502   0.88202   0.32695   0.00000  Uiso   1.00
H599   H     0.34344   0.97129   0.18740   0.00000  Uiso   1.00
H600   H     0.37886   0.52196   0.20486   0.00000  Uiso   1.00
H601   H     0.38957   0.97195   0.24227   0.00000  Uiso   1.00
H602   H     0.66428   0.52736   0.27521   0.00000  Uiso   1.00
H603   H     0.63109   0.97560   0.25930   0.00000  Uiso   1.00
H604   H     0.58496   0.51047   0.18364   0.00000  Uiso   1.00
H605   H     0.62229   0.56001   0.19399   0.00000  Uiso   1.00
H606   H     0.35678   0.85802   0.18665   0.00000  Uiso   1.00
H607   H     0.60022   0.52159   0.42097   0.00000  Uiso   1.00
H608   H     0.63364   0.96729   0.42946   0.00000  Uiso   1.00
H609   H     0.33486   0.51505   0.40985   0.00000  Uiso   1.00
H610   H     0.63821   0.96484   0.34273   0.00000  Uiso   1.00
H611   H     0.60730   0.51993   0.33406   0.00000  Uiso   1.00
H612   H     0.52364   0.99197   0.35794   0.00000  Uiso   1.00
H613   H     0.55483   0.93947   0.37633   0.00000  Uiso   1.00
H614   H     0.65441   0.77045   0.43316   0.00000  Uiso   1.00
H615   H     0.62633   0.77878   0.48724   0.00000  Uiso   1.00
H616   H     0.64015   0.82630   0.45125   0.00000  Uiso   1.00
H617   H     0.39440   0.81753   0.15829   0.00000  Uiso   1.00
H618   H     0.37737   0.82050   0.02006   0.00000  Uiso   1.00
H619   H     0.40450   0.80543   0.46730   0.00000  Uiso   1.00
H620   H     0.39582   0.72391   0.48810   0.00000  Uiso   1.00
H621   H     0.36505   0.73829   0.03815   0.00000  Uiso   1.00
H622   H     0.49649   0.92336   0.49118   0.00000  Uiso   1.00
H623   H     0.56795   0.91224   0.00401   0.00000  Uiso   1.00
H624   H     0.54004   0.94697   0.45345   0.00000  Uiso   1.00
H625   H     0.56225   0.87183   0.42659   0.00000  Uiso   1.00
H626   H     0.49058   0.88127   0.41676   0.00000  Uiso   1.00
H627   H     0.48494   0.83950   0.49366   0.00000  Uiso   1.00
H628   H     0.65753   0.76322   0.15552   0.00000  Uiso   1.00
H629   H     0.55579   0.82831   0.00139   0.00000  Uiso   1.00
H630   H     0.41577   0.75486   0.11173   0.00000  Uiso   1.00
H631   H     0.51907   0.81785   0.37796   0.00000  Uiso   1.00
H632   H     0.58212   0.73594   0.13060   0.00000  Uiso   1.00
H633   H     0.48085   0.68162   0.37810   0.00000  Uiso   1.00
H634   H     0.58293   0.74028   0.04407   0.00000  Uiso   1.00
H635   H     0.47976   0.68057   0.46491   0.00000  Uiso   1.00
H636   H     0.61428   0.80433   0.17792   0.00000  Uiso   1.00
H637   H     0.36431   0.84609   0.39296   0.00000  Uiso   1.00
H638   H     0.36720   0.88593   0.34466   0.00000  Uiso   1.00
N639   N     0.50000   0.74999   0.12623   0.00000  Uiso   1.00
N640   N     0.50000   0.75001   0.37376   0.00000  Uiso   1.00
O641   O     0.50000   0.68453   0.28974   0.00000  Uiso   1.00
O642   O     0.50000   0.81546   0.21026   0.00000  Uiso   1.00
O643   O     0.50000   0.68453   0.21026   0.00000  Uiso   1.00
O644   O     0.50000   0.81547   0.28974   0.00000  Uiso   1.00
O645   O     0.42392   0.75000   0.28044   0.00000  Uiso   1.00
O646   O     0.57608   0.75000   0.21955   0.00000  Uiso   1.00
O647   O     0.42392   0.74999   0.20096   0.00000  Uiso   1.00
O648   O     0.57608   0.75000   0.29903   0.00000  Uiso   1.00
Zn649  Zn    0.50000   0.75000   0.30307   0.00000  Uiso   1.00
Zn650  Zn    0.50000   0.74999   0.19693   0.00000  Uiso   1.00
C651   C     0.83349   0.66394   0.25063   0.00000  Uiso   1.00
C652   C     0.82164   0.71145   0.44696   0.00000  Uiso   1.00
C653   C     0.83074   0.74949   0.02609   0.00000  Uiso   1.00
C654   C     0.83161   0.75063   0.47290   0.00000  Uiso   1.00
C655   C     0.73416   0.75784   0.23747   0.00000  Uiso   1.00
C656   C     0.93236   0.75777   0.26197   0.00000  Uiso   1.00
C657   C     0.67977   0.77532   0.22994   0.00000  Uiso   1.00
C658   C     0.98607   0.77555   0.26759   0.00000  Uiso   1.00
C659   C     0.81471   0.54352   0.27859   0.00000  Uiso   1.00
C660   C     0.84019   0.95946   0.21481   0.00000  Uiso   1.00
C661   C     0.80402   0.58918   0.27449   0.00000  Uiso   1.00
C662   C     0.83388   0.83672   0.24961   0.00000  Uiso   1.00
C663   C     0.83033   0.91423   0.21003   0.00000  Uiso   1.00
C664   C     0.83961   0.61615   0.25332   0.00000  Uiso   1.00
C665   C     0.84083   0.88542   0.25086   0.00000  Uiso   1.00
C666   C     0.88368   0.59769   0.23580   0.00000  Uiso   1.00
C667   C     0.86035   0.90352   0.29535   0.00000  Uiso   1.00
C668   C     0.89329   0.55167   0.23826   0.00000  Uiso   1.00
C669   C     0.86972   0.94911   0.30010   0.00000  Uiso   1.00
C670   C     0.85867   0.52490   0.26117   0.00000  Uiso   1.00
C671   C     0.85963   0.97679   0.25886   0.00000  Uiso   1.00
C672   C     0.98914   0.79154   0.17968   0.00000  Uiso   1.00
C673   C     0.78274   0.75152   0.04618   0.00000  Uiso   1.00
C674   C     0.68728   0.82996   0.16142   0.00000  Uiso   1.00
C675   C     0.99542   0.84700   0.11186   0.00000  Uiso   1.00
C676   C     0.67649   0.79558   0.31497   0.00000  Uiso   1.00
C677   C     0.97479   0.83421   0.32848   0.00000  Uiso   1.00
C678   C     0.67335   0.86548   0.36337   0.00000  Uiso   1.00
C679   C     0.75207   0.60698   0.28827   0.00000  Uiso   1.00
C680   C     0.74846   0.59747   0.34113   0.00000  Uiso   1.00
C681   C     0.69940   0.62052   0.35561   0.00000  Uiso   1.00
C682   C     0.80860   0.89952   0.16084   0.00000  Uiso   1.00
C683   C     0.85448   0.88856   0.13375   0.00000  Uiso   1.00
C684   C     0.84275   0.79028   0.44773   0.00000  Uiso   1.00
C685   C     0.83342   0.87131   0.08493   0.00000  Uiso   1.00
C686   C     0.93667   0.53252   0.21223   0.00000  Uiso   1.00
C687   C     0.98085   0.50639   0.24503   0.00000  Uiso   1.00
C688   C     0.69257   0.99212   0.21807   0.00000  Uiso   1.00
C689   C     0.88697   0.96714   0.34952   0.00000  Uiso   1.00
C690   C     0.94238   0.98814   0.35525   0.00000  Uiso   1.00
C691   C     0.96217   0.99862   0.40719   0.00000  Uiso   1.00
C692   C     0.72847   0.74948   0.01575   0.00000  Uiso   1.00
C693   C     0.71042   0.79490   0.49229   0.00000  Uiso   1.00
C694   C     0.98767   0.79232   0.46424   0.00000  Uiso   1.00
C695   C     0.78560   0.75266   0.09647   0.00000  Uiso   1.00
C696   C     0.85273   0.83341   0.47460   0.00000  Uiso   1.00
C697   C     0.85966   0.87573   0.44436   0.00000  Uiso   1.00
C698   C     0.86654   0.91696   0.47530   0.00000  Uiso   1.00
C699   C     0.84362   0.78852   0.39790   0.00000  Uiso   1.00
C700   C     0.87903   0.74357   0.10729   0.00000  Uiso   1.00
C701   C     0.82237   0.71191   0.39752   0.00000  Uiso   1.00
C702   C     0.87891   0.74464   0.05768   0.00000  Uiso   1.00
H703   H     0.98847   0.81882   0.08700   0.00000  Uiso   1.00
H704   H     0.97894   0.88824   0.37849   0.00000  Uiso   1.00
H705   H     0.95788   0.85424   0.29603   0.00000  Uiso   1.00
H706   H     0.94133   0.82045   0.34519   0.00000  Uiso   1.00
H707   H     0.68150   0.76915   0.34363   0.00000  Uiso   1.00
H708   H     0.71628   0.80986   0.31250   0.00000  Uiso   1.00
H709   H     0.78674   0.52171   0.29283   0.00000  Uiso   1.00
H710   H     0.83053   0.98199   0.18400   0.00000  Uiso   1.00
H711   H     0.99577   0.60867   0.33366   0.00000  Uiso   1.00
H712   H     0.69734   0.61247   0.39370   0.00000  Uiso   1.00
H713   H     0.70183   0.65743   0.35092   0.00000  Uiso   1.00
H714   H     0.95706   0.86451   0.11366   0.00000  Uiso   1.00
H715   H     0.74558   0.56088   0.34794   0.00000  Uiso   1.00
H716   H     0.78491   0.60933   0.36372   0.00000  Uiso   1.00
H717   H     0.74642   0.64341   0.28041   0.00000  Uiso   1.00
H718   H     0.71833   0.59068   0.26597   0.00000  Uiso   1.00
H719   H     0.81013   0.84061   0.08813   0.00000  Uiso   1.00
H720   H     0.80741   0.89705   0.06374   0.00000  Uiso   1.00
H721   H     0.86793   0.86339   0.06680   0.00000  Uiso   1.00
H722   H     0.87813   0.91910   0.12951   0.00000  Uiso   1.00
H723   H     0.88127   0.86267   0.15383   0.00000  Uiso   1.00
H724   H     0.78247   0.87092   0.16238   0.00000  Uiso   1.00
H725   H     0.68921   0.87107   0.09769   0.00000  Uiso   1.00
H726   H     0.78278   0.92639   0.14108   0.00000  Uiso   1.00
H727   H     0.90998   0.61945   0.21925   0.00000  Uiso   1.00
H728   H     0.86836   0.88202   0.32695   0.00000  Uiso   1.00
H729   H     0.67677   0.97129   0.18740   0.00000  Uiso   1.00
H730   H     0.71220   0.52196   0.20486   0.00000  Uiso   1.00
H731   H     0.72290   0.97195   0.24227   0.00000  Uiso   1.00
H732   H     0.99761   0.52736   0.27521   0.00000  Uiso   1.00
H733   H     0.96443   0.97560   0.25930   0.00000  Uiso   1.00
H734   H     0.91829   0.51047   0.18364   0.00000  Uiso   1.00
H735   H     0.95563   0.56001   0.19399   0.00000  Uiso   1.00
H736   H     0.69011   0.85802   0.18665   0.00000  Uiso   1.00
H737   H     0.93355   0.52159   0.42097   0.00000  Uiso   1.00
H738   H     0.96698   0.96729   0.42946   0.00000  Uiso   1.00
H739   H     0.66820   0.51505   0.40985   0.00000  Uiso   1.00
H740   H     0.97154   0.96484   0.34273   0.00000  Uiso   1.00
H741   H     0.94063   0.51993   0.33406   0.00000  Uiso   1.00
H742   H     0.85698   0.99197   0.35794   0.00000  Uiso   1.00
H743   H     0.88817   0.93947   0.37633   0.00000  Uiso   1.00
H744   H     0.98774   0.77045   0.43316   0.00000  Uiso   1.00
H745   H     0.95966   0.77878   0.48724   0.00000  Uiso   1.00
H746   H     0.97348   0.82630   0.45125   0.00000  Uiso   1.00
H747   H     0.72774   0.81753   0.15829   0.00000  Uiso   1.00
H748   H     0.71070   0.82050   0.02006   0.00000  Uiso   1.00
H749   H     0.73783   0.80543   0.46730   0.00000  Uiso   1.00
H750   H     0.72915   0.72391   0.48810   0.00000  Uiso   1.00
H751   H     0.69838   0.73829   0.03815   0.00000  Uiso   1.00
H752   H     0.82982   0.92336   0.49118   0.00000  Uiso   1.00
H753   H     0.90129   0.91224   0.00401   0.00000  Uiso   1.00
H754   H     0.87337   0.94697   0.45345   0.00000  Uiso   1.00
H755   H     0.89558   0.87183   0.42659   0.00000  Uiso   1.00
H756   H     0.82392   0.88127   0.41676   0.00000  Uiso   1.00
H757   H     0.81828   0.83950   0.49366   0.00000  Uiso   1.00
H758   H     0.99086   0.76322   0.15552   0.00000  Uiso   1.00
H759   H     0.88913   0.82831   0.00139   0.00000  Uiso   1.00
H760   H     0.74910   0.75486   0.11173   0.00000  Uiso   1.00
H761   H     0.85240   0.81785   0.37796   0.00000  Uiso   1.00
H762   H     0.91546   0.73594   0.13060   0.00000  Uiso   1.00
H763   H     0.81418   0.68162   0.37810   0.00000  Uiso   1.00
H764   H     0.91626   0.74028   0.04407   0.00000  Uiso   1.00
H765   H     0.81309   0.68057   0.46491   0.00000  Uiso   1.00
H766   H     0.94761   0.80433   0.17792   0.00000  Uiso   1.00
H767   H     0.69764   0.84609   0.39296   0.00000  Uiso   1.00
H768   H     0.70054   0.88593   0.34466   0.00000  Uiso   1.00
N769   N     0.83333   0.74999   0.12623   0.00000  Uiso   1.00
N770   N     0.83333   0.75001   0.37376   0.00000  Uiso   1.00
O771   O     0.83334   0.68453   0.28974   0.00000  Uiso   1.00
O772   O     0.83333   0.81546   0.21026   0.00000  Uiso   1.00
O773   O     0.83334   0.68453   0.21026   0.00000  Uiso   1.00
O774   O     0.83333   0.81547   0.28974   0.00000  Uiso   1.00
O775   O     0.75725   0.75000   0.28044   0.00000  Uiso   1.00
O776   O     0.90942   0.75000   0.21955   0.00000  Uiso   1.00
O777   O     0.75725   0.74999   0.20096   0.00000  Uiso   1.00
O778   O     0.90942   0.75000   0.29903   0.00000  Uiso   1.00
Zn779  Zn    0.83333   0.75000   0.30307   0.00000  Uiso   1.00
Zn780  Zn    0.83333   0.74999   0.19693   0.00000  Uiso   1.00
C781   C     0.16682   0.16394   0.75063   0.00000  Uiso   1.00
C782   C     0.15498   0.21145   0.94696   0.00000  Uiso   1.00
C783   C     0.16407   0.24949   0.52609   0.00000  Uiso   1.00
C784   C     0.16494   0.25063   0.97290   0.00000  Uiso   1.00
C785   C     0.06749   0.25784   0.73747   0.00000  Uiso   1.00
C786   C     0.26569   0.25777   0.76197   0.00000  Uiso   1.00
C787   C     0.01311   0.27532   0.72994   0.00000  Uiso   1.00
C788   C     0.31941   0.27555   0.76759   0.00000  Uiso   1.00
C789   C     0.14804   0.04352   0.77859   0.00000  Uiso   1.00
C790   C     0.17352   0.45946   0.71481   0.00000  Uiso   1.00
C791   C     0.13735   0.08918   0.77449   0.00000  Uiso   1.00
C792   C     0.16721   0.33672   0.74961   0.00000  Uiso   1.00
C793   C     0.16366   0.41423   0.71003   0.00000  Uiso   1.00
C794   C     0.17294   0.11615   0.75332   0.00000  Uiso   1.00
C795   C     0.17417   0.38542   0.75086   0.00000  Uiso   1.00
C796   C     0.21702   0.09769   0.73580   0.00000  Uiso   1.00
C797   C     0.19369   0.40352   0.79535   0.00000  Uiso   1.00
C798   C     0.22662   0.05167   0.73826   0.00000  Uiso   1.00
C799   C     0.20305   0.44911   0.80010   0.00000  Uiso   1.00
C800   C     0.19201   0.02490   0.76117   0.00000  Uiso   1.00
C801   C     0.19297   0.47679   0.75886   0.00000  Uiso   1.00
C802   C     0.32248   0.29154   0.67968   0.00000  Uiso   1.00
C803   C     0.11608   0.25152   0.54618   0.00000  Uiso   1.00
C804   C     0.02061   0.32996   0.66142   0.00000  Uiso   1.00
C805   C     0.32875   0.34700   0.61186   0.00000  Uiso   1.00
C806   C     0.00982   0.29558   0.81497   0.00000  Uiso   1.00
C807   C     0.30812   0.33421   0.82848   0.00000  Uiso   1.00
C808   C     0.00668   0.36548   0.86337   0.00000  Uiso   1.00
C809   C     0.08540   0.10698   0.78827   0.00000  Uiso   1.00
C810   C     0.08180   0.09747   0.84113   0.00000  Uiso   1.00
C811   C     0.03273   0.12052   0.85561   0.00000  Uiso   1.00
C812   C     0.14193   0.39952   0.66084   0.00000  Uiso   1.00
C813   C     0.18782   0.38856   0.63375   0.00000  Uiso   1.00
C814   C     0.17608   0.29028   0.94773   0.00000  Uiso   1.00
C815   C     0.16676   0.37131   0.58493   0.00000  Uiso   1.00
C816   C     0.27000   0.03252   0.71223   0.00000  Uiso   1.00
C817   C     0.31419   0.00639   0.74503   0.00000  Uiso   1.00
C818   C     0.02590   0.49212   0.71807   0.00000  Uiso   1.00
C819   C     0.22030   0.46714   0.84952   0.00000  Uiso   1.00
C820   C     0.27572   0.48814   0.85525   0.00000  Uiso   1.00
C821   C     0.29551   0.49862   0.90719   0.00000  Uiso   1.00
C822   C     0.06181   0.24948   0.51575   0.00000  Uiso   1.00
C823   C     0.04375   0.29490   0.99229   0.00000  Uiso   1.00
C824   C     0.32100   0.29232   0.96424   0.00000  Uiso   1.00
C825   C     0.11893   0.25266   0.59647   0.00000  Uiso   1.00
C826   C     0.18606   0.33341   0.97460   0.00000  Uiso   1.00
C827   C     0.19299   0.37573   0.94436   0.00000  Uiso   1.00
C828   C     0.19987   0.41696   0.97530   0.00000  Uiso   1.00
C829   C     0.17696   0.28852   0.89790   0.00000  Uiso   1.00
C830   C     0.21237   0.24357   0.60729   0.00000  Uiso   1.00
C831   C     0.15571   0.21191   0.89752   0.00000  Uiso   1.00
C832   C     0.21224   0.24464   0.55768   0.00000  Uiso   1.00
H833   H     0.32180   0.31882   0.58700   0.00000  Uiso   1.00
H834   H     0.31227   0.38824   0.87849   0.00000  Uiso   1.00
H835   H     0.29122   0.35424   0.79603   0.00000  Uiso   1.00
H836   H     0.27466   0.32045   0.84519   0.00000  Uiso   1.00
H837   H     0.01483   0.26915   0.84363   0.00000  Uiso   1.00
H838   H     0.04962   0.30986   0.81250   0.00000  Uiso   1.00
H839   H     0.12008   0.02171   0.79283   0.00000  Uiso   1.00
H840   H     0.16386   0.48199   0.68400   0.00000  Uiso   1.00
H841   H     0.32910   0.10867   0.83366   0.00000  Uiso   1.00
H842   H     0.03067   0.11247   0.89370   0.00000  Uiso   1.00
H843   H     0.03516   0.15743   0.85092   0.00000  Uiso   1.00
H844   H     0.29040   0.36451   0.61366   0.00000  Uiso   1.00
H845   H     0.07891   0.06088   0.84794   0.00000  Uiso   1.00
H846   H     0.11824   0.10933   0.86372   0.00000  Uiso   1.00
H847   H     0.07976   0.14341   0.78041   0.00000  Uiso   1.00
H848   H     0.05167   0.09068   0.76597   0.00000  Uiso   1.00
H849   H     0.14346   0.34061   0.58813   0.00000  Uiso   1.00
H850   H     0.14074   0.39705   0.56374   0.00000  Uiso   1.00
H851   H     0.20126   0.36339   0.56680   0.00000  Uiso   1.00
H852   H     0.21147   0.41910   0.62951   0.00000  Uiso   1.00
H853   H     0.21460   0.36267   0.65383   0.00000  Uiso   1.00
H854   H     0.11580   0.37092   0.66238   0.00000  Uiso   1.00
H855   H     0.02255   0.37107   0.59769   0.00000  Uiso   1.00
H856   H     0.11611   0.42639   0.64108   0.00000  Uiso   1.00
H857   H     0.24331   0.11945   0.71925   0.00000  Uiso   1.00
H858   H     0.20169   0.38202   0.82695   0.00000  Uiso   1.00
H859   H     0.01011   0.47129   0.68740   0.00000  Uiso   1.00
H860   H     0.04553   0.02196   0.70486   0.00000  Uiso   1.00
H861   H     0.05623   0.47195   0.74227   0.00000  Uiso   1.00
H862   H     0.33094   0.02736   0.77521   0.00000  Uiso   1.00
H863   H     0.29776   0.47560   0.75930   0.00000  Uiso   1.00
H864   H     0.25162   0.01047   0.68364   0.00000  Uiso   1.00
H865   H     0.28896   0.06001   0.69399   0.00000  Uiso   1.00
H866   H     0.02345   0.35802   0.68665   0.00000  Uiso   1.00
H867   H     0.26688   0.02159   0.92097   0.00000  Uiso   1.00
H868   H     0.30031   0.46729   0.92946   0.00000  Uiso   1.00
H869   H     0.00153   0.01505   0.90985   0.00000  Uiso   1.00
H870   H     0.30487   0.46484   0.84273   0.00000  Uiso   1.00
H871   H     0.27396   0.01993   0.83406   0.00000  Uiso   1.00
H872   H     0.19031   0.49197   0.85794   0.00000  Uiso   1.00
H873   H     0.22150   0.43947   0.87633   0.00000  Uiso   1.00
H874   H     0.32108   0.27045   0.93316   0.00000  Uiso   1.00
H875   H     0.29300   0.27878   0.98724   0.00000  Uiso   1.00
H876   H     0.30682   0.32630   0.95125   0.00000  Uiso   1.00
H877   H     0.06107   0.31753   0.65829   0.00000  Uiso   1.00
H878   H     0.04403   0.32050   0.52006   0.00000  Uiso   1.00
H879   H     0.07116   0.30543   0.96730   0.00000  Uiso   1.00
H880   H     0.06248   0.22391   0.98810   0.00000  Uiso   1.00
H881   H     0.03171   0.23829   0.53815   0.00000  Uiso   1.00
H882   H     0.16315   0.42336   0.99118   0.00000  Uiso   1.00
H883   H     0.23462   0.41224   0.50401   0.00000  Uiso   1.00
H884   H     0.20670   0.44697   0.95345   0.00000  Uiso   1.00
H885   H     0.22891   0.37183   0.92659   0.00000  Uiso   1.00
H886   H     0.15725   0.38127   0.91676   0.00000  Uiso   1.00
H887   H     0.15161   0.33950   0.99366   0.00000  Uiso   1.00
H888   H     0.32420   0.26322   0.65552   0.00000  Uiso   1.00
H889   H     0.22246   0.32831   0.50139   0.00000  Uiso   1.00
H890   H     0.08244   0.25486   0.61173   0.00000  Uiso   1.00
H891   H     0.18574   0.31785   0.87796   0.00000  Uiso   1.00
H892   H     0.24879   0.23594   0.63060   0.00000  Uiso   1.00
H893   H     0.14751   0.18162   0.87810   0.00000  Uiso   1.00
H894   H     0.24960   0.24028   0.54407   0.00000  Uiso   1.00
H895   H     0.14642   0.18057   0.96491   0.00000  Uiso   1.00
H896   H     0.28095   0.30433   0.67792   0.00000  Uiso   1.00
H897   H     0.03097   0.34609   0.89296   0.00000  Uiso   1.00
H898   H     0.03387   0.38593   0.84466   0.00000  Uiso   1.00
N899   N     0.16667   0.24999   0.62623   0.00000  Uiso   1.00
N900   N     0.16667   0.25001   0.87376   0.00000  Uiso   1.00
O901   O     0.16667   0.18453   0.78974   0.00000  Uiso   1.00
O902   O     0.16666   0.31546   0.71026   0.00000  Uiso   1.00
O903   O     0.16667   0.18453   0.71026   0.00000  Uiso   1.00
O904   O     0.16666   0.31547   0.78974   0.00000  Uiso   1.00
O905   O     0.09058   0.25000   0.78044   0.00000  Uiso   1.00
O906   O     0.24275   0.25000   0.71955   0.00000  Uiso   1.00
O907   O     0.09058   0.24999   0.70096   0.00000  Uiso   1.00
O908   O     0.24275   0.25000   0.79903   0.00000  Uiso   1.00
Zn909  Zn    0.16667   0.25000   0.80307   0.00000  Uiso   1.00
Zn910  Zn    0.16667   0.24999   0.69693   0.00000  Uiso   1.00
C911   C     0.50015   0.16394   0.75063   0.00000  Uiso   1.00
C912   C     0.48831   0.21145   0.94696   0.00000  Uiso   1.00
C913   C     0.49740   0.24949   0.52609   0.00000  Uiso   1.00
C914   C     0.49828   0.25063   0.97290   0.00000  Uiso   1.00
C915   C     0.40083   0.25784   0.73747   0.00000  Uiso   1.00
C916   C     0.59902   0.25777   0.76197   0.00000  Uiso   1.00
C917   C     0.34644   0.27532   0.72994   0.00000  Uiso   1.00
C918   C     0.65274   0.27555   0.76759   0.00000  Uiso   1.00
C919   C     0.48138   0.04352   0.77859   0.00000  Uiso   1.00
C920   C     0.50686   0.45946   0.71481   0.00000  Uiso   1.00
C921   C     0.47069   0.08918   0.77449   0.00000  Uiso   1.00
C922   C     0.50055   0.33672   0.74961   0.00000  Uiso   1.00
C923   C     0.49699   0.41423   0.71003   0.00000  Uiso   1.00
C924   C     0.50628   0.11615   0.75332   0.00000  Uiso   1.00
C925   C     0.50750   0.38542   0.75086   0.00000  Uiso   1.00
C926   C     0.55035   0.09769   0.73580   0.00000  Uiso   1.00
C927   C     0.52702   0.40352   0.79535   0.00000  Uiso   1.00
C928   C     0.55996   0.05167   0.73826   0.00000  Uiso   1.00
C929   C     0.53639   0.44911   0.80010   0.00000  Uiso   1.00
C930   C     0.52534   0.02490   0.76117   0.00000  Uiso   1.00
C931   C     0.52630   0.47679   0.75886   0.00000  Uiso   1.00
C932   C     0.65581   0.29154   0.67968   0.00000  Uiso   1.00
C933   C     0.44941   0.25152   0.54618   0.00000  Uiso   1.00
C934   C     0.35395   0.32996   0.66142   0.00000  Uiso   1.00
C935   C     0.66208   0.34700   0.61186   0.00000  Uiso   1.00
C936   C     0.34316   0.29558   0.81497   0.00000  Uiso   1.00
C937   C     0.64146   0.33421   0.82848   0.00000  Uiso   1.00
C938   C     0.34002   0.36548   0.86337   0.00000  Uiso   1.00
C939   C     0.41874   0.10698   0.78827   0.00000  Uiso   1.00
C940   C     0.41513   0.09747   0.84113   0.00000  Uiso   1.00
C941   C     0.36606   0.12052   0.85561   0.00000  Uiso   1.00
C942   C     0.47527   0.39952   0.66084   0.00000  Uiso   1.00
C943   C     0.52115   0.38856   0.63375   0.00000  Uiso   1.00
C944   C     0.50941   0.29028   0.94773   0.00000  Uiso   1.00
C945   C     0.50009   0.37131   0.58493   0.00000  Uiso   1.00
C946   C     0.60334   0.03252   0.71223   0.00000  Uiso   1.00
C947   C     0.64752   0.00639   0.74503   0.00000  Uiso   1.00
C948   C     0.35924   0.49212   0.71807   0.00000  Uiso   1.00
C949   C     0.55364   0.46714   0.84952   0.00000  Uiso   1.00
C950   C     0.60905   0.48814   0.85525   0.00000  Uiso   1.00
C951   C     0.62884   0.49862   0.90719   0.00000  Uiso   1.00
C952   C     0.39514   0.24948   0.51575   0.00000  Uiso   1.00
C953   C     0.37709   0.29490   0.99229   0.00000  Uiso   1.00
C954   C     0.65433   0.29232   0.96424   0.00000  Uiso   1.00
C955   C     0.45226   0.25266   0.59647   0.00000  Uiso   1.00
C956   C     0.51939   0.33341   0.97460   0.00000  Uiso   1.00
C957   C     0.52633   0.37573   0.94436   0.00000  Uiso   1.00
C958   C     0.53320   0.41696   0.97530   0.00000  Uiso   1.00
C959   C     0.51029   0.28852   0.89790   0.00000  Uiso   1.00
C960   C     0.54570   0.24357   0.60729   0.00000  Uiso   1.00
C961   C     0.48904   0.21191   0.89752   0.00000  Uiso   1.00
C962   C     0.54557   0.24464   0.55768   0.00000  Uiso   1.00
H963   H     0.65513   0.31882   0.58700   0.00000  Uiso   1.00
H964   H     0.64560   0.38824   0.87849   0.00000  Uiso   1.00
H965   H     0.62455   0.35424   0.79603   0.00000  Uiso   1.00
H966   H     0.60799   0.32045   0.84519   0.00000  Uiso   1.00
H967   H     0.34816   0.26915   0.84363   0.00000  Uiso   1.00
H968   H     0.38295   0.30986   0.81250   0.00000  Uiso   1.00
H969   H     0.45341   0.02171   0.79283   0.00000  Uiso   1.00
H970   H     0.49719   0.48199   0.68400   0.00000  Uiso   1.00
H971   H     0.66243   0.10867   0.83366   0.00000  Uiso   1.00
H972   H     0.36400   0.11247   0.89370   0.00000  Uiso   1.00
H973   H     0.36850   0.15743   0.85092   0.00000  Uiso   1.00
H974   H     0.62373   0.36451   0.61366   0.00000  Uiso   1.00
H975   H     0.41224   0.06088   0.84794   0.00000  Uiso   1.00
H976   H     0.45157   0.10933   0.86372   0.00000  Uiso   1.00
H977   H     0.41309   0.14341   0.78041   0.00000  Uiso   1.00
H978   H     0.38500   0.09068   0.76597   0.00000  Uiso   1.00
H979   H     0.47680   0.34061   0.58813   0.00000  Uiso   1.00
H980   H     0.47407   0.39705   0.56374   0.00000  Uiso   1.00
H981   H     0.53460   0.36339   0.56680   0.00000  Uiso   1.00
H982   H     0.54480   0.41910   0.62951   0.00000  Uiso   1.00
H983   H     0.54793   0.36267   0.65383   0.00000  Uiso   1.00
H984   H     0.44914   0.37092   0.66238   0.00000  Uiso   1.00
H985   H     0.35588   0.37107   0.59769   0.00000  Uiso   1.00
H986   H     0.44944   0.42639   0.64108   0.00000  Uiso   1.00
H987   H     0.57664   0.11945   0.71925   0.00000  Uiso   1.00
H988   H     0.53502   0.38202   0.82695   0.00000  Uiso   1.00
H989   H     0.34344   0.47129   0.68740   0.00000  Uiso   1.00
H990   H     0.37886   0.02196   0.70486   0.00000  Uiso   1.00
H991   H     0.38957   0.47195   0.74227   0.00000  Uiso   1.00
H992   H     0.66428   0.02736   0.77521   0.00000  Uiso   1.00
H993   H     0.63109   0.47560   0.75930   0.00000  Uiso   1.00
H994   H     0.58496   0.01047   0.68364   0.00000  Uiso   1.00
H995   H     0.62229   0.06001   0.69399   0.00000  Uiso   1.00
H996   H     0.35678   0.35802   0.68665   0.00000  Uiso   1.00
H997   H     0.60022   0.02159   0.92097   0.00000  Uiso   1.00
H998   H     0.63364   0.46729   0.92946   0.00000  Uiso   1.00
H999   H     0.33486   0.01505   0.90985   0.00000  Uiso   1.00
H1000  H     0.63821   0.46484   0.84273   0.00000  Uiso   1.00
H1001  H     0.60730   0.01993   0.83406   0.00000  Uiso   1.00
H1002  H     0.52364   0.49197   0.85794   0.00000  Uiso   1.00
H1003  H     0.55483   0.43947   0.87633   0.00000  Uiso   1.00
H1004  H     0.65441   0.27045   0.93316   0.00000  Uiso   1.00
H1005  H     0.62633   0.27878   0.98724   0.00000  Uiso   1.00
H1006  H     0.64015   0.32630   0.95125   0.00000  Uiso   1.00
H1007  H     0.39440   0.31753   0.65829   0.00000  Uiso   1.00
H1008  H     0.37737   0.32050   0.52006   0.00000  Uiso   1.00
H1009  H     0.40450   0.30543   0.96730   0.00000  Uiso   1.00
H1010  H     0.39582   0.22391   0.98810   0.00000  Uiso   1.00
H1011  H     0.36505   0.23829   0.53815   0.00000  Uiso   1.00
H1012  H     0.49649   0.42336   0.99118   0.00000  Uiso   1.00
H1013  H     0.56795   0.41224   0.50401   0.00000  Uiso   1.00
H1014  H     0.54004   0.44697   0.95345   0.00000  Uiso   1.00
H1015  H     0.56225   0.37183   0.92659   0.00000  Uiso   1.00
H1016  H     0.49058   0.38127   0.91676   0.00000  Uiso   1.00
H1017  H     0.48494   0.33950   0.99366   0.00000  Uiso   1.00
H1018  H     0.65753   0.26322   0.65552   0.00000  Uiso   1.00
H1019  H     0.55579   0.32831   0.50139   0.00000  Uiso   1.00
H1020  H     0.41577   0.25486   0.61173   0.00000  Uiso   1.00
H1021  H     0.51907   0.31785   0.87796   0.00000  Uiso   1.00
H1022  H     0.58212   0.23594   0.63060   0.00000  Uiso   1.00
H1023  H     0.48085   0.18162   0.87810   0.00000  Uiso   1.00
H1024  H     0.58293   0.24028   0.54407   0.00000  Uiso   1.00
H1025  H     0.47976   0.18057   0.96491   0.00000  Uiso   1.00
H1026  H     0.61428   0.30433   0.67792   0.00000  Uiso   1.00
H1027  H     0.36431   0.34609   0.89296   0.00000  Uiso   1.00
H1028  H     0.36720   0.38593   0.84466   0.00000  Uiso   1.00
N1029  N     0.50000   0.24999   0.62623   0.00000  Uiso   1.00
N1030  N     0.50000   0.25001   0.87376   0.00000  Uiso   1.00
O1031  O     0.50000   0.18453   0.78974   0.00000  Uiso   1.00
O1032  O     0.50000   0.31546   0.71026   0.00000  Uiso   1.00
O1033  O     0.50000   0.18453   0.71026   0.00000  Uiso   1.00
O1034  O     0.50000   0.31547   0.78974   0.00000  Uiso   1.00
O1035  O     0.42392   0.25000   0.78044   0.00000  Uiso   1.00
O1036  O     0.57608   0.25000   0.71955   0.00000  Uiso   1.00
O1037  O     0.42392   0.24999   0.70096   0.00000  Uiso   1.00
O1038  O     0.57608   0.25000   0.79903   0.00000  Uiso   1.00
Zn1039 Zn    0.50000   0.25000   0.80307   0.00000  Uiso   1.00
Zn1040 Zn    0.50000   0.24999   0.69693   0.00000  Uiso   1.00
C1041  C     0.83349   0.16394   0.75063   0.00000  Uiso   1.00
C1042  C     0.82164   0.21145   0.94696   0.00000  Uiso   1.00
C1043  C     0.83074   0.24949   0.52609   0.00000  Uiso   1.00
C1044  C     0.83161   0.25063   0.97290   0.00000  Uiso   1.00
C1045  C     0.73416   0.25784   0.73747   0.00000  Uiso   1.00
C1046  C     0.93236   0.25777   0.76197   0.00000  Uiso   1.00
C1047  C     0.67977   0.27532   0.72994   0.00000  Uiso   1.00
C1048  C     0.98607   0.27555   0.76759   0.00000  Uiso   1.00
C1049  C     0.81471   0.04352   0.77859   0.00000  Uiso   1.00
C1050  C     0.84019   0.45946   0.71481   0.00000  Uiso   1.00
C1051  C     0.80402   0.08918   0.77449   0.00000  Uiso   1.00
C1052  C     0.83388   0.33672   0.74961   0.00000  Uiso   1.00
C1053  C     0.83033   0.41423   0.71003   0.00000  Uiso   1.00
C1054  C     0.83961   0.11615   0.75332   0.00000  Uiso   1.00
C1055  C     0.84083   0.38542   0.75086   0.00000  Uiso   1.00
C1056  C     0.88368   0.09769   0.73580   0.00000  Uiso   1.00
C1057  C     0.86035   0.40352   0.79535   0.00000  Uiso   1.00
C1058  C     0.89329   0.05167   0.73826   0.00000  Uiso   1.00
C1059  C     0.86972   0.44911   0.80010   0.00000  Uiso   1.00
C1060  C     0.85867   0.02490   0.76117   0.00000  Uiso   1.00
C1061  C     0.85963   0.47679   0.75886   0.00000  Uiso   1.00
C1062  C     0.98914   0.29154   0.67968   0.00000  Uiso   1.00
C1063  C     0.78274   0.25152   0.54618   0.00000  Uiso   1.00
C1064  C     0.68728   0.32996   0.66142   0.00000  Uiso   1.00
C1065  C     0.99542   0.34700   0.61186   0.00000  Uiso   1.00
C1066  C     0.67649   0.29558   0.81497   0.00000  Uiso   1.00
C1067  C     0.97479   0.33421   0.82848   0.00000  Uiso   1.00
C1068  C     0.67335   0.36548   0.86337   0.00000  Uiso   1.00
C1069  C     0.75207   0.10698   0.78827   0.00000  Uiso   1.00
C1070  C     0.74846   0.09747   0.84113   0.00000  Uiso   1.00
C1071  C     0.69940   0.12052   0.85561   0.00000  Uiso   1.00
C1072  C     0.80860   0.39952   0.66084   0.00000  Uiso   1.00
C1073  C     0.85448   0.38856   0.63375   0.00000  Uiso   1.00
C1074  C     0.84275   0.29028   0.94773   0.00000  Uiso   1.00
C1075  C     0.83342   0.37131   0.58493   0.00000  Uiso   1.00
C1076  C     0.93667   0.03252   0.71223   0.00000  Uiso   1.00
C1077  C     0.98085   0.00639   0.74503   0.00000  Uiso   1.00
C1078  C     0.69257   0.49212   0.71807   0.00000  Uiso   1.00
C1079  C     0.88697   0.46714   0.84952   0.00000  Uiso   1.00
C1080  C     0.94238   0.48814   0.85525   0.00000  Uiso   1.00
C1081  C     0.96217   0.49862   0.90719   0.00000  Uiso   1.00
C1082  C     0.72847   0.24948   0.51575   0.00000  Uiso   1.00
C1083  C     0.71042   0.29490   0.99229   0.00000  Uiso   1.00
C1084  C     0.98767   0.29232   0.96424   0.00000  Uiso   1.00
C1085  C     0.78560   0.25266   0.59647   0.00000  Uiso   1.00
C1086  C     0.85273   0.33341   0.97460   0.00000  Uiso   1.00
C1087  C     0.85966   0.37573   0.94436   0.00000  Uiso   1.00
C1088  C     0.86654   0.41696   0.97530   0.00000  Uiso   1.00
C1089  C     0.84362   0.28852   0.89790   0.00000  Uiso   1.00
C1090  C     0.87903   0.24357   0.60729   0.00000  Uiso   1.00
C1091  C     0.82237   0.21191   0.89752   0.00000  Uiso   1.00
C1092  C     0.87891   0.24464   0.55768   0.00000  Uiso   1.00
H1093  H     0.98847   0.31882   0.58700   0.00000  Uiso   1.00
H1094  H     0.97894   0.38824   0.87849   0.00000  Uiso   1.00
H1095  H     0.95788   0.35424   0.79603   0.00000  Uiso   1.00
H1096  H     0.94133   0.32045   0.84519   0.00000  Uiso   1.00
H1097  H     0.68150   0.26915   0.84363   0.00000  Uiso   1.00
H1098  H     0.71628   0.30986   0.81250   0.00000  Uiso   1.00
H1099  H     0.78674   0.02171   0.79283   0.00000  Uiso   1.00
H1100  H     0.83053   0.48199   0.68400   0.00000  Uiso   1.00
H1101  H     0.99577   0.10867   0.83366   0.00000  Uiso   1.00
H1102  H     0.69734   0.11247   0.89370   0.00000  Uiso   1.00
H1103  H     0.70183   0.15743   0.85092   0.00000  Uiso   1.00
H1104  H     0.95706   0.36451   0.61366   0.00000  Uiso   1.00
H1105  H     0.74558   0.06088   0.84794   0.00000  Uiso   1.00
H1106  H     0.78491   0.10933   0.86372   0.00000  Uiso   1.00
H1107  H     0.74642   0.14341   0.78041   0.00000  Uiso   1.00
H1108  H     0.71833   0.09068   0.76597   0.00000  Uiso   1.00
H1109  H     0.81013   0.34061   0.58813   0.00000  Uiso   1.00
H1110  H     0.80741   0.39705   0.56374   0.00000  Uiso   1.00
H1111  H     0.86793   0.36339   0.56680   0.00000  Uiso   1.00
H1112  H     0.87813   0.41910   0.62951   0.00000  Uiso   1.00
H1113  H     0.88127   0.36267   0.65383   0.00000  Uiso   1.00
H1114  H     0.78247   0.37092   0.66238   0.00000  Uiso   1.00
H1115  H     0.68921   0.37107   0.59769   0.00000  Uiso   1.00
H1116  H     0.78278   0.42639   0.64108   0.00000  Uiso   1.00
H1117  H     0.90998   0.11945   0.71925   0.00000  Uiso   1.00
H1118  H     0.86836   0.38202   0.82695   0.00000  Uiso   1.00
H1119  H     0.67677   0.47129   0.68740   0.00000  Uiso   1.00
H1120  H     0.71220   0.02196   0.70486   0.00000  Uiso   1.00
H1121  H     0.72290   0.47195   0.74227   0.00000  Uiso   1.00
H1122  H     0.99761   0.02736   0.77521   0.00000  Uiso   1.00
H1123  H     0.96443   0.47560   0.75930   0.00000  Uiso   1.00
H1124  H     0.91829   0.01047   0.68364   0.00000  Uiso   1.00
H1125  H     0.95563   0.06001   0.69399   0.00000  Uiso   1.00
H1126  H     0.69011   0.35802   0.68665   0.00000  Uiso   1.00
H1127  H     0.93355   0.02159   0.92097   0.00000  Uiso   1.00
H1128  H     0.96698   0.46729   0.92946   0.00000  Uiso   1.00
H1129  H     0.66820   0.01505   0.90985   0.00000  Uiso   1.00
H1130  H     0.97154   0.46484   0.84273   0.00000  Uiso   1.00
H1131  H     0.94063   0.01993   0.83406   0.00000  Uiso   1.00
H1132  H     0.85698   0.49197   0.85794   0.00000  Uiso   1.00
H1133  H     0.88817   0.43947   0.87633   0.00000  Uiso   1.00
H1134  H     0.98774   0.27045   0.93316   0.00000  Uiso   1.00
H1135  H     0.95966   0.27878   0.98724   0.00000  Uiso   1.00
H1136  H     0.97348   0.32630   0.95125   0.00000  Uiso   1.00
H1137  H     0.72774   0.31753   0.65829   0.00000  Uiso   1.00
H1138  H     0.71070   0.32050   0.52006   0.00000  Uiso   1.00
H1139  H     0.73783   0.30543   0.96730   0.00000  Uiso   1.00
H1140  H     0.72915   0.22391   0.98810   0.00000  Uiso   1.00
H1141  H     0.69838   0.23829   0.53815   0.00000  Uiso   1.00
H1142  H     0.82982   0.42336   0.99118   0.00000  Uiso   1.00
H1143  H     0.90129   0.41224   0.50401   0.00000  Uiso   1.00
H1144  H     0.87337   0.44697   0.95345   0.00000  Uiso   1.00
H1145  H     0.89558   0.37183   0.92659   0.00000  Uiso   1.00
H1146  H     0.82392   0.38127   0.91676   0.00000  Uiso   1.00
H1147  H     0.81828   0.33950   0.99366   0.00000  Uiso   1.00
H1148  H     0.99086   0.26322   0.65552   0.00000  Uiso   1.00
H1149  H     0.88913   0.32831   0.50139   0.00000  Uiso   1.00
H1150  H     0.74910   0.25486   0.61173   0.00000  Uiso   1.00
H1151  H     0.85240   0.31785   0.87796   0.00000  Uiso   1.00
H1152  H     0.91546   0.23594   0.63060   0.00000  Uiso   1.00
H1153  H     0.81418   0.18162   0.87810   0.00000  Uiso   1.00
H1154  H     0.91626   0.24028   0.54407   0.00000  Uiso   1.00
H1155  H     0.81309   0.18057   0.96491   0.00000  Uiso   1.00
H1156  H     0.94761   0.30433   0.67792   0.00000  Uiso   1.00
H1157  H     0.69764   0.34609   0.89296   0.00000  Uiso   1.00
H1158  H     0.70054   0.38593   0.84466   0.00000  Uiso   1.00
N1159  N     0.83333   0.24999   0.62623   0.00000  Uiso   1.00
N1160  N     0.83333   0.25001   0.87376   0.00000  Uiso   1.00
O1161  O     0.83334   0.18453   0.78974   0.00000  Uiso   1.00
O1162  O     0.83333   0.31546   0.71026   0.00000  Uiso   1.00
O1163  O     0.83334   0.18453   0.71026   0.00000  Uiso   1.00
O1164  O     0.83333   0.31547   0.78974   0.00000  Uiso   1.00
O1165  O     0.75725   0.25000   0.78044   0.00000  Uiso   1.00
O1166  O     0.90942   0.25000   0.71955   0.00000  Uiso   1.00
O1167  O     0.75725   0.24999   0.70096   0.00000  Uiso   1.00
O1168  O     0.90942   0.25000   0.79903   0.00000  Uiso   1.00
Zn1169 Zn    0.83333   0.25000   0.80307   0.00000  Uiso   1.00
Zn1170 Zn    0.83333   0.24999   0.69693   0.00000  Uiso   1.00
C1171  C     0.16682   0.66394   0.75063   0.00000  Uiso   1.00
C1172  C     0.15498   0.71145   0.94696   0.00000  Uiso   1.00
C1173  C     0.16407   0.74949   0.52609   0.00000  Uiso   1.00
C1174  C     0.16494   0.75063   0.97290   0.00000  Uiso   1.00
C1175  C     0.06749   0.75784   0.73747   0.00000  Uiso   1.00
C1176  C     0.26569   0.75777   0.76197   0.00000  Uiso   1.00
C1177  C     0.01311   0.77532   0.72994   0.00000  Uiso   1.00
C1178  C     0.31941   0.77555   0.76759   0.00000  Uiso   1.00
C1179  C     0.14804   0.54352   0.77859   0.00000  Uiso   1.00
C1180  C     0.17352   0.95946   0.71481   0.00000  Uiso   1.00
C1181  C     0.13735   0.58918   0.77449   0.00000  Uiso   1.00
C1182  C     0.16721   0.83672   0.74961   0.00000  Uiso   1.00
C1183  C     0.16366   0.91423   0.71003   0.00000  Uiso   1.00
C1184  C     0.17294   0.61615   0.75332   0.00000  Uiso   1.00
C1185  C     0.17417   0.88542   0.75086   0.00000  Uiso   1.00
C1186  C     0.21702   0.59769   0.73580   0.00000  Uiso   1.00
C1187  C     0.19369   0.90352   0.79535   0.00000  Uiso   1.00
C1188  C     0.22662   0.55167   0.73826   0.00000  Uiso   1.00
C1189  C     0.20305   0.94911   0.80010   0.00000  Uiso   1.00
C1190  C     0.19201   0.52490   0.76117   0.00000  Uiso   1.00
C1191  C     0.19297   0.97679   0.75886   0.00000  Uiso   1.00
C1192  C     0.32248   0.79154   0.67968   0.00000  Uiso   1.00
C1193  C     0.11608   0.75152   0.54618   0.00000  Uiso   1.00
C1194  C     0.02061   0.82996   0.66142   0.00000  Uiso   1.00
C1195  C     0.32875   0.84700   0.61186   0.00000  Uiso   1.00
C1196  C     0.00982   0.79558   0.81497   0.00000  Uiso   1.00
C1197  C     0.30812   0.83421   0.82848   0.00000  Uiso   1.00
C1198  C     0.00668   0.86548   0.86337   0.00000  Uiso   1.00
C1199  C     0.08540   0.60698   0.78827   0.00000  Uiso   1.00
C1200  C     0.08180   0.59747   0.84113   0.00000  Uiso   1.00
C1201  C     0.03273   0.62052   0.85561   0.00000  Uiso   1.00
C1202  C     0.14193   0.89952   0.66084   0.00000  Uiso   1.00
C1203  C     0.18782   0.88856   0.63375   0.00000  Uiso   1.00
C1204  C     0.17608   0.79028   0.94773   0.00000  Uiso   1.00
C1205  C     0.16676   0.87131   0.58493   0.00000  Uiso   1.00
C1206  C     0.27000   0.53252   0.71223   0.00000  Uiso   1.00
C1207  C     0.31419   0.50639   0.74503   0.00000  Uiso   1.00
C1208  C     0.02590   0.99212   0.71807   0.00000  Uiso   1.00
C1209  C     0.22030   0.96714   0.84952   0.00000  Uiso   1.00
C1210  C     0.27572   0.98814   0.85525   0.00000  Uiso   1.00
C1211  C     0.29551   0.99862   0.90719   0.00000  Uiso   1.00
C1212  C     0.06181   0.74948   0.51575   0.00000  Uiso   1.00
C1213  C     0.04375   0.79490   0.99229   0.00000  Uiso   1.00
C1214  C     0.32100   0.79232   0.96424   0.00000  Uiso   1.00
C1215  C     0.11893   0.75266   0.59647   0.00000  Uiso   1.00
C1216  C     0.18606   0.83341   0.97460   0.00000  Uiso   1.00
C1217  C     0.19299   0.87573   0.94436   0.00000  Uiso   1.00
C1218  C     0.19987   0.91696   0.97530   0.00000  Uiso   1.00
C1219  C     0.17696   0.78852   0.89790   0.00000  Uiso   1.00
C1220  C     0.21237   0.74357   0.60729   0.00000  Uiso   1.00
C1221  C     0.15571   0.71191   0.89752   0.00000  Uiso   1.00
C1222  C     0.21224   0.74464   0.55768   0.00000  Uiso   1.00
H1223  H     0.32180   0.81882   0.58700   0.00000  Uiso   1.00
H1224  H     0.31227   0.88824   0.87849   0.00000  Uiso   1.00
H1225  H     0.29122   0.85424   0.79603   0.00000  Uiso   1.00
H1226  H     0.27466   0.82045   0.84519   0.00000  Uiso   1.00
H1227  H     0.01483   0.76915   0.84363   0.00000  Uiso   1.00
H1228  H     0.04962   0.80986   0.81250   0.00000  Uiso   1.00
H1229  H     0.12008   0.52171   0.79283   0.00000  Uiso   1.00
H1230  H     0.16386   0.98199   0.68400   0.00000  Uiso   1.00
H1231  H     0.32910   0.60867   0.83366   0.00000  Uiso   1.00
H1232  H     0.03067   0.61247   0.89370   0.00000  Uiso   1.00
H1233  H     0.03516   0.65743   0.85092   0.00000  Uiso   1.00
H1234  H     0.29040   0.86451   0.61366   0.00000  Uiso   1.00
H1235  H     0.07891   0.56088   0.84794   0.00000  Uiso   1.00
H1236  H     0.11824   0.60933   0.86372   0.00000  Uiso   1.00
H1237  H     0.07976   0.64341   0.78041   0.00000  Uiso   1.00
H1238  H     0.05167   0.59068   0.76597   0.00000  Uiso   1.00
H1239  H     0.14346   0.84061   0.58813   0.00000  Uiso   1.00
H1240  H     0.14074   0.89705   0.56374   0.00000  Uiso   1.00
H1241  H     0.20126   0.86339   0.56680   0.00000  Uiso   1.00
H1242  H     0.21147   0.91910   0.62951   0.00000  Uiso   1.00
H1243  H     0.21460   0.86267   0.65383   0.00000  Uiso   1.00
H1244  H     0.11580   0.87092   0.66238   0.00000  Uiso   1.00
H1245  H     0.02255   0.87107   0.59769   0.00000  Uiso   1.00
H1246  H     0.11611   0.92639   0.64108   0.00000  Uiso   1.00
H1247  H     0.24331   0.61945   0.71925   0.00000  Uiso   1.00
H1248  H     0.20169   0.88202   0.82695   0.00000  Uiso   1.00
H1249  H     0.01011   0.97129   0.68740   0.00000  Uiso   1.00
H1250  H     0.04553   0.52196   0.70486   0.00000  Uiso   1.00
H1251  H     0.05623   0.97195   0.74227   0.00000  Uiso   1.00
H1252  H     0.33094   0.52736   0.77521   0.00000  Uiso   1.00
H1253  H     0.29776   0.97560   0.75930   0.00000  Uiso   1.00
H1254  H     0.25162   0.51047   0.68364   0.00000  Uiso   1.00
H1255  H     0.28896   0.56001   0.69399   0.00000  Uiso   1.00
H1256  H     0.02345   0.85802   0.68665   0.00000  Uiso   1.00
H1257  H     0.26688   0.52159   0.92097   0.00000  Uiso   1.00
H1258  H     0.30031   0.96729   0.92946   0.00000  Uiso   1.00
H1259  H     0.00153   0.51505   0.90985   0.00000  Uiso   1.00
H1260  H     0.30487   0.96484   0.84273   0.00000  Uiso   1.00
H1261  H     0.27396   0.51993   0.83406   0.00000  Uiso   1.00
H1262  H     0.19031   0.99197   0.85794   0.00000  Uiso   1.00
H1263  H     0.22150   0.93947   0.87633   0.00000  Uiso   1.00
H1264  H     0.32108   0.77045   0.93316   0.00000  Uiso   1.00
H1265  H     0.29300   0.77878   0.98724   0.00000  Uiso   1.00
H1266  H     0.30682   0.82630   0.95125   0.00000  Uiso   1.00
H1267  H     0.06107   0.81753   0.65829   0.00000  Uiso   1.00
H1268  H     0.04403   0.82050   0.52006   0.00000  Uiso   1.00
H1269  H     0.07116   0.80543   0.96730   0.00000  Uiso   1.00
H1270  H     0.06248   0.72391   0.98810   0.00000  Uiso   1.00
H1271  H     0.03171   0.73829   0.53815   0.00000  Uiso   1.00
H1272  H     0.16315   0.92336   0.99118   0.00000  Uiso   1.00
H1273  H     0.23462   0.91224   0.50401   0.00000  Uiso   1.00
H1274  H     0.20670   0.94697   0.95345   0.00000  Uiso   1.00
H1275  H     0.22891   0.87183   0.92659   0.00000  Uiso   1.00
H1276  H     0.15725   0.88127   0.91676   0.00000  Uiso   1.00
H1277  H     0.15161   0.83950   0.99366   0.00000  Uiso   1.00
H1278  H     0.32420   0.76322   0.65552   0.00000  Uiso   1.00
H1279  H     0.22246   0.82831   0.50139   0.00000  Uiso   1.00
H1280  H     0.08244   0.75486   0.61173   0.00000  Uiso   1.00
H1281  H     0.18574   0.81785   0.87796   0.00000  Uiso   1.00
H1282  H     0.24879   0.73594   0.63060   0.00000  Uiso   1.00
H1283  H     0.14751   0.68162   0.87810   0.00000  Uiso   1.00
H1284  H     0.24960   0.74028   0.54407   0.00000  Uiso   1.00
H1285  H     0.14642   0.68057   0.96491   0.00000  Uiso   1.00
H1286  H     0.28095   0.80433   0.67792   0.00000  Uiso   1.00
H1287  H     0.03097   0.84609   0.89296   0.00000  Uiso   1.00
H1288  H     0.03387   0.88593   0.84466   0.00000  Uiso   1.00
N1289  N     0.16667   0.74999   0.62623   0.00000  Uiso   1.00
N1290  N     0.16667   0.75001   0.87376   0.00000  Uiso   1.00
O1291  O     0.16667   0.68453   0.78974   0.00000  Uiso   1.00
O1292  O     0.16666   0.81546   0.71026   0.00000  Uiso   1.00
O1293  O     0.16667   0.68453   0.71026   0.00000  Uiso   1.00
O1294  O     0.16666   0.81547   0.78974   0.00000  Uiso   1.00
O1295  O     0.09058   0.75000   0.78044   0.00000  Uiso   1.00
O1296  O     0.24275   0.75000   0.71955   0.00000  Uiso   1.00
O1297  O     0.09058   0.74999   0.70096   0.00000  Uiso   1.00
O1298  O     0.24275   0.75000   0.79903   0.00000  Uiso   1.00
Zn1299 Zn    0.16667   0.75000   0.80307   0.00000  Uiso   1.00
Zn1300 Zn    0.16667   0.74999   0.69693   0.00000  Uiso   1.00
C1301  C     0.50015   0.66394   0.75063   0.00000  Uiso   1.00
C1302  C     0.48831   0.71145   0.94696   0.00000  Uiso   1.00
C1303  C     0.49740   0.74949   0.52609   0.00000  Uiso   1.00
C1304  C     0.49828   0.75063   0.97290   0.00000  Uiso   1.00
C1305  C     0.40083   0.75784   0.73747   0.00000  Uiso   1.00
C1306  C     0.59902   0.75777   0.76197   0.00000  Uiso   1.00
C1307  C     0.34644   0.77532   0.72994   0.00000  Uiso   1.00
C1308  C     0.65274   0.77555   0.76759   0.00000  Uiso   1.00
C1309  C     0.48138   0.54352   0.77859   0.00000  Uiso   1.00
C1310  C     0.50686   0.95946   0.71481   0.00000  Uiso   1.00
C1311  C     0.47069   0.58918   0.77449   0.00000  Uiso   1.00
C1312  C     0.50055   0.83672   0.74961   0.00000  Uiso   1.00
C1313  C     0.49699   0.91423   0.71003   0.00000  Uiso   1.00
C1314  C     0.50628   0.61615   0.75332   0.00000  Uiso   1.00
C1315  C     0.50750   0.88542   0.75086   0.00000  Uiso   1.00
C1316  C     0.55035   0.59769   0.73580   0.00000  Uiso   1.00
C1317  C     0.52702   0.90352   0.79535   0.00000  Uiso   1.00
C1318  C     0.55996   0.55167   0.73826   0.00000  Uiso   1.00
C1319  C     0.53639   0.94911   0.80010   0.00000  Uiso   1.00
C1320  C     0.52534   0.52490   0.76117   0.00000  Uiso   1.00
C1321  C     0.52630   0.97679   0.75886   0.00000  Uiso   1.00
C1322  C     0.65581   0.79154   0.67968   0.00000  Uiso   1.00
C1323  C     0.44941   0.75152   0.54618   0.00000  Uiso   1.00
C1324  C     0.35395   0.82996   0.66142   0.00000  Uiso   1.00
C1325  C     0.66208   0.84700   0.61186   0.00000  Uiso   1.00
C1326  C     0.34316   0.79558   0.81497   0.00000  Uiso   1.00
C1327  C     0.64146   0.83421   0.82848   0.00000  Uiso   1.00
C1328  C     0.34002   0.86548   0.86337   0.00000  Uiso   1.00
C1329  C     0.41874   0.60698   0.78827   0.00000  Uiso   1.00
C1330  C     0.41513   0.59747   0.84113   0.00000  Uiso   1.00
C1331  C     0.36606   0.62052   0.85561   0.00000  Uiso   1.00
C1332  C     0.47527   0.89952   0.66084   0.00000  Uiso   1.00
C1333  C     0.52115   0.88856   0.63375   0.00000  Uiso   1.00
C1334  C     0.50941   0.79028   0.94773   0.00000  Uiso   1.00
C1335  C     0.50009   0.87131   0.58493   0.00000  Uiso   1.00
C1336  C     0.60334   0.53252   0.71223   0.00000  Uiso   1.00
C1337  C     0.64752   0.50639   0.74503   0.00000  Uiso   1.00
C1338  C     0.35924   0.99212   0.71807   0.00000  Uiso   1.00
C1339  C     0.55364   0.96714   0.84952   0.00000  Uiso   1.00
C1340  C     0.60905   0.98814   0.85525   0.00000  Uiso   1.00
C1341  C     0.62884   0.99862   0.90719   0.00000  Uiso   1.00
C1342  C     0.39514   0.74948   0.51575   0.00000  Uiso   1.00
C1343  C     0.37709   0.79490   0.99229   0.00000  Uiso   1.00
C1344  C     0.65433   0.79232   0.96424   0.00000  Uiso   1.00
C1345  C     0.45226   0.75266   0.59647   0.00000  Uiso   1.00
C1346  C     0.51939   0.83341   0.97460   0.00000  Uiso   1.00
C1347  C     0.52633   0.87573   0.94436   0.00000  Uiso   1.00
C1348  C     0.53320   0.91696   0.97530   0.00000  Uiso   1.00
C1349  C     0.51029   0.78852   0.89790   0.00000  Uiso   1.00
C1350  C     0.54570   0.74357   0.60729   0.00000  Uiso   1.00
C1351  C     0.48904   0.71191   0.89752   0.00000  Uiso   1.00
C1352  C     0.54557   0.74464   0.55768   0.00000  Uiso   1.00
H1353  H     0.65513   0.81882   0.58700   0.00000  Uiso   1.00
H1354  H     0.64560   0.88824   0.87849   0.00000  Uiso   1.00
H1355  H     0.62455   0.85424   0.79603   0.00000  Uiso   1.00
H1356  H     0.60799   0.82045   0.84519   0.00000  Uiso   1.00
H1357  H     0.34816   0.76915   0.84363   0.00000  Uiso   1.00
H1358  H     0.38295   0.80986   0.81250   0.00000  Uiso   1.00
H1359  H     0.45341   0.52171   0.79283   0.00000  Uiso   1.00
H1360  H     0.49719   0.98199   0.68400   0.00000  Uiso   1.00
H1361  H     0.66243   0.60867   0.83366   0.00000  Uiso   1.00
H1362  H     0.36400   0.61247   0.89370   0.00000  Uiso   1.00
H1363  H     0.36850   0.65743   0.85092   0.00000  Uiso   1.00
H1364  H     0.62373   0.86451   0.61366   0.00000  Uiso   1.00
H1365  H     0.41224   0.56088   0.84794   0.00000  Uiso   1.00
H1366  H     0.45157   0.60933   0.86372   0.00000  Uiso   1.00
H1367  H     0.41309   0.64341   0.78041   0.00000  Uiso   1.00
H1368  H     0.38500   0.59068   0.76597   0.00000  Uiso   1.00
H1369  H     0.47680   0.84061   0.58813   0.00000  Uiso   1.00
H1370  H     0.47407   0.89705   0.56374   0.00000  Uiso   1.00
H1371  H     0.53460   0.86339   0.56680   0.00000  Uiso   1.00
H1372  H     0.54480   0.91910   0.62951   0.00000  Uiso   1.00
H1373  H     0.54793   0.86267   0.65383   0.00000  Uiso   1.00
H1374  H     0.44914   0.87092   0.66238   0.00000  Uiso   1.00
H1375  H     0.35588   0.87107   0.59769   0.00000  Uiso   1.00
H1376  H     0.44944   0.92639   0.64108   0.00000  Uiso   1.00
H1377  H     0.57664   0.61945   0.71925   0.00000  Uiso   1.00
H1378  H     0.53502   0.88202   0.82695   0.00000  Uiso   1.00
H1379  H     0.34344   0.97129   0.68740   0.00000  Uiso   1.00
H1380  H     0.37886   0.52196   0.70486   0.00000  Uiso   1.00
H1381  H     0.38957   0.97195   0.74227   0.00000  Uiso   1.00
H1382  H     0.66428   0.52736   0.77521   0.00000  Uiso   1.00
H1383  H     0.63109   0.97560   0.75930   0.00000  Uiso   1.00
H1384  H     0.58496   0.51047   0.68364   0.00000  Uiso   1.00
H1385  H     0.62229   0.56001   0.69399   0.00000  Uiso   1.00
H1386  H     0.35678   0.85802   0.68665   0.00000  Uiso   1.00
H1387  H     0.60022   0.52159   0.92097   0.00000  Uiso   1.00
H1388  H     0.63364   0.96729   0.92946   0.00000  Uiso   1.00
H1389  H     0.33486   0.51505   0.90985   0.00000  Uiso   1.00
H1390  H     0.63821   0.96484   0.84273   0.00000  Uiso   1.00
H1391  H     0.60730   0.51993   0.83406   0.00000  Uiso   1.00
H1392  H     0.52364   0.99197   0.85794   0.00000  Uiso   1.00
H1393  H     0.55483   0.93947   0.87633   0.00000  Uiso   1.00
H1394  H     0.65441   0.77045   0.93316   0.00000  Uiso   1.00
H1395  H     0.62633   0.77878   0.98724   0.00000  Uiso   1.00
H1396  H     0.64015   0.82630   0.95125   0.00000  Uiso   1.00
H1397  H     0.39440   0.81753   0.65829   0.00000  Uiso   1.00
H1398  H     0.37737   0.82050   0.52006   0.00000  Uiso   1.00
H1399  H     0.40450   0.80543   0.96730   0.00000  Uiso   1.00
H1400  H     0.39582   0.72391   0.98810   0.00000  Uiso   1.00
H1401  H     0.36505   0.73829   0.53815   0.00000  Uiso   1.00
H1402  H     0.49649   0.92336   0.99118   0.00000  Uiso   1.00
H1403  H     0.56795   0.91224   0.50401   0.00000  Uiso   1.00
H1404  H     0.54004   0.94697   0.95345   0.00000  Uiso   1.00
H1405  H     0.56225   0.87183   0.92659   0.00000  Uiso   1.00
H1406  H     0.49058   0.88127   0.91676   0.00000  Uiso   1.00
H1407  H     0.48494   0.83950   0.99366   0.00000  Uiso   1.00
H1408  H     0.65753   0.76322   0.65552   0.00000  Uiso   1.00
H1409  H     0.55579   0.82831   0.50139   0.00000  Uiso   1.00
H1410  H     0.41577   0.75486   0.61173   0.00000  Uiso   1.00
H1411  H     0.51907   0.81785   0.87796   0.00000  Uiso   1.00
H1412  H     0.58212   0.73594   0.63060   0.00000  Uiso   1.00
H1413  H     0.48085   0.68162   0.87810   0.00000  Uiso   1.00
H1414  H     0.58293   0.74028   0.54407   0.00000  Uiso   1.00
H1415  H     0.47976   0.68057   0.96491   0.00000  Uiso   1.00
H1416  H     0.61428   0.80433   0.67792   0.00000  Uiso   1.00
H1417  H     0.36431   0.84609   0.89296   0.00000  Uiso   1.00
H1418  H     0.36720   0.88593   0.84466   0.00000  Uiso   1.00
N1419  N     0.50000   0.74999   0.62623   0.00000  Uiso   1.00
N1420  N     0.50000   0.75001   0.87376   0.00000  Uiso   1.00
O1421  O     0.50000   0.68453   0.78974   0.00000  Uiso   1.00
O1422  O     0.50000   0.81546   0.71026   0.00000  Uiso   1.00
O1423  O     0.50000   0.68453   0.71026   0.00000  Uiso   1.00
O1424  O     0.50000   0.81547   0.78974   0.00000  Uiso   1.00
O1425  O     0.42392   0.75000   0.78044   0.00000  Uiso   1.00
O1426  O     0.57608   0.75000   0.71955   0.00000  Uiso   1.00
O1427  O     0.42392   0.74999   0.70096   0.00000  Uiso   1.00
O1428  O     0.57608   0.75000   0.79903   0.00000  Uiso   1.00
Zn1429 Zn    0.50000   0.75000   0.80307   0.00000  Uiso   1.00
Zn1430 Zn    0.50000   0.74999   0.69693   0.00000  Uiso   1.00
C1431  C     0.83349   0.66394   0.75063   0.00000  Uiso   1.00
C1432  C     0.82164   0.71145   0.94696   0.00000  Uiso   1.00
C1433  C     0.83074   0.74949   0.52609   0.00000  Uiso   1.00
C1434  C     0.83161   0.75063   0.97290   0.00000  Uiso   1.00
C1435  C     0.73416   0.75784   0.73747   0.00000  Uiso   1.00
C1436  C     0.93236   0.75777   0.76197   0.00000  Uiso   1.00
C1437  C     0.67977   0.77532   0.72994   0.00000  Uiso   1.00
C1438  C     0.98607   0.77555   0.76759   0.00000  Uiso   1.00
C1439  C     0.81471   0.54352   0.77859   0.00000  Uiso   1.00
C1440  C     0.84019   0.95946   0.71481   0.00000  Uiso   1.00
C1441  C     0.80402   0.58918   0.77449   0.00000  Uiso   1.00
C1442  C     0.83388   0.83672   0.74961   0.00000  Uiso   1.00
C1443  C     0.83033   0.91423   0.71003   0.00000  Uiso   1.00
C1444  C     0.83961   0.61615   0.75332   0.00000  Uiso   1.00
C1445  C     0.84083   0.88542   0.75086   0.00000  Uiso   1.00
C1446  C     0.88368   0.59769   0.73580   0.00000  Uiso   1.00
C1447  C     0.86035   0.90352   0.79535   0.00000  Uiso   1.00
C1448  C     0.89329   0.55167   0.73826   0.00000  Uiso   1.00
C1449  C     0.86972   0.94911   0.80010   0.00000  Uiso   1.00
C1450  C     0.85867   0.52490   0.76117   0.00000  Uiso   1.00
C1451  C     0.85963   0.97679   0.75886   0.00000  Uiso   1.00
C1452  C     0.98914   0.79154   0.67968   0.00000  Uiso   1.00
C1453  C     0.78274   0.75152   0.54618   0.00000  Uiso   1.00
C1454  C     0.68728   0.82996   0.66142   0.00000  Uiso   1.00
C1455  C     0.99542   0.84700   0.61186   0.00000  Uiso   1.00
C1456  C     0.67649   0.79558   0.81497   0.00000  Uiso   1.00
C1457  C     0.97479   0.83421   0.82848   0.00000  Uiso   1.00
C1458  C     0.67335   0.86548   0.86337   0.00000  Uiso   1.00
C1459  C     0.75207   0.60698   0.78827   0.00000  Uiso   1.00
C1460  C     0.74846   0.59747   0.84113   0.00000  Uiso   1.00
C1461  C     0.69940   0.62052   0.85561   0.00000  Uiso   1.00
C1462  C     0.80860   0.89952   0.66084   0.00000  Uiso   1.00
C1463  C     0.85448   0.88856   0.63375   0.00000  Uiso   1.00
C1464  C     0.84275   0.79028   0.94773   0.00000  Uiso   1.00
C1465  C     0.83342   0.87131   0.58493   0.00000  Uiso   1.00
C1466  C     0.93667   0.53252   0.71223   0.00000  Uiso   1.00
C1467  C     0.98085   0.50639   0.74503   0.00000  Uiso   1.00
C1468  C     0.69257   0.99212   0.71807   0.00000  Uiso   1.00
C1469  C     0.88697   0.96714   0.84952   0.00000  Uiso   1.00
C1470  C     0.94238   0.98814   0.85525   0.00000  Uiso   1.00
C1471  C     0.96217   0.99862   0.90719   0.00000  Uiso   1.00
C1472  C     0.72847   0.74948   0.51575   0.00000  Uiso   1.00
C1473  C     0.71042   0.79490   0.99229   0.00000  Uiso   1.00
C1474  C     0.98767   0.79232   0.96424   0.00000  Uiso   1.00
C1475  C     0.78560   0.75266   0.59647   0.00000  Uiso   1.00
C1476  C     0.85273   0.83341   0.97460   0.00000  Uiso   1.00
C1477  C     0.85966   0.87573   0.94436   0.00000  Uiso   1.00
C1478  C     0.86654   0.91696   0.97530   0.00000  Uiso   1.00
C1479  C     0.84362   0.78852   0.89790   0.00000  Uiso   1.00
C1480  C     0.87903   0.74357   0.60729   0.00000  Uiso   1.00
C1481  C     0.82237   0.71191   0.89752   0.00000  Uiso   1.00
C1482  C     0.87891   0.74464   0.55768   0.00000  Uiso   1.00
H1483  H     0.98847   0.81882   0.58700   0.00000  Uiso   1.00
H1484  H     0.97894   0.88824   0.87849   0.00000  Uiso   1.00
H1485  H     0.95788   0.85424   0.79603   0.00000  Uiso   1.00
H1486  H     0.94133   0.82045   0.84519   0.00000  Uiso   1.00
H1487  H     0.68150   0.76915   0.84363   0.00000  Uiso   1.00
H1488  H     0.71628   0.80986   0.81250   0.00000  Uiso   1.00
H1489  H     0.78674   0.52171   0.79283   0.00000  Uiso   1.00
H1490  H     0.83053   0.98199   0.68400   0.00000  Uiso   1.00
H1491  H     0.99577   0.60867   0.83366   0.00000  Uiso   1.00
H1492  H     0.69734   0.61247   0.89370   0.00000  Uiso   1.00
H1493  H     0.70183   0.65743   0.85092   0.00000  Uiso   1.00
H1494  H     0.95706   0.86451   0.61366   0.00000  Uiso   1.00
H1495  H     0.74558   0.56088   0.84794   0.00000  Uiso   1.00
H1496  H     0.78491   0.60933   0.86372   0.00000  Uiso   1.00
H1497  H     0.74642   0.64341   0.78041   0.00000  Uiso   1.00
H1498  H     0.71833   0.59068   0.76597   0.00000  Uiso   1.00
H1499  H     0.81013   0.84061   0.58813   0.00000  Uiso   1.00
H1500  H     0.80741   0.89705   0.56374   0.00000  Uiso   1.00
H1501  H     0.86793   0.86339   0.56680   0.00000  Uiso   1.00
H1502  H     0.87813   0.91910   0.62951   0.00000  Uiso   1.00
H1503  H     0.88127   0.86267   0.65383   0.00000  Uiso   1.00
H1504  H     0.78247   0.87092   0.66238   0.00000  Uiso   1.00
H1505  H     0.68921   0.87107   0.59769   0.00000  Uiso   1.00
H1506  H     0.78278   0.92639   0.64108   0.00000  Uiso   1.00
H1507  H     0.90998   0.61945   0.71925   0.00000  Uiso   1.00
H1508  H     0.86836   0.88202   0.82695   0.00000  Uiso   1.00
H1509  H     0.67677   0.97129   0.68740   0.00000  Uiso   1.00
H1510  H     0.71220   0.52196   0.70486   0.00000  Uiso   1.00
H1511  H     0.72290   0.97195   0.74227   0.00000  Uiso   1.00
H1512  H     0.99761   0.52736   0.77521   0.00000  Uiso   1.00
H1513  H     0.96443   0.97560   0.75930   0.00000  Uiso   1.00
H1514  H     0.91829   0.51047   0.68364   0.00000  Uiso   1.00
H1515  H     0.95563   0.56001   0.69399   0.00000  Uiso   1.00
H1516  H     0.69011   0.85802   0.68665   0.00000  Uiso   1.00
H1517  H     0.93355   0.52159   0.92097   0.00000  Uiso   1.00
H1518  H     0.96698   0.96729   0.92946   0.00000  Uiso   1.00
H1519  H     0.66820   0.51505   0.90985   0.00000  Uiso   1.00
H1520  H     0.97154   0.96484   0.84273   0.00000  Uiso   1.00
H1521  H     0.94063   0.51993   0.83406   0.00000  Uiso   1.00
H1522  H     0.85698   0.99197   0.85794   0.00000  Uiso   1.00
H1523  H     0.88817   0.93947   0.87633   0.00000  Uiso   1.00
H1524  H     0.98774   0.77045   0.93316   0.00000  Uiso   1.00
H1525  H     0.95966   0.77878   0.98724   0.00000  Uiso   1.00
H1526  H     0.97348   0.82630   0.95125   0.00000  Uiso   1.00
H1527  H     0.72774   0.81753   0.65829   0.00000  Uiso   1.00
H1528  H     0.71070   0.82050   0.52006   0.00000  Uiso   1.00
H1529  H     0.73783   0.80543   0.96730   0.00000  Uiso   1.00
H1530  H     0.72915   0.72391   0.98810   0.00000  Uiso   1.00
H1531  H     0.69838   0.73829   0.53815   0.00000  Uiso   1.00
H1532  H     0.82982   0.92336   0.99118   0.00000  Uiso   1.00
H1533  H     0.90129   0.91224   0.50401   0.00000  Uiso   1.00
H1534  H     0.87337   0.94697   0.95345   0.00000  Uiso   1.00
H1535  H     0.89558   0.87183   0.92659   0.00000  Uiso   1.00
H1536  H     0.82392   0.88127   0.91676   0.00000  Uiso   1.00
H1537  H     0.81828   0.83950   0.99366   0.00000  Uiso   1.00
H1538  H     0.99086   0.76322   0.65552   0.00000  Uiso   1.00
H1539  H     0.88913   0.82831   0.50139   0.00000  Uiso   1.00
H1540  H     0.74910   0.75486   0.61173   0.00000  Uiso   1.00
H1541  H     0.85240   0.81785   0.87796   0.00000  Uiso   1.00
H1542  H     0.91546   0.73594   0.63060   0.00000  Uiso   1.00
H1543  H     0.81418   0.68162   0.87810   0.00000  Uiso   1.00
H1544  H     0.91626   0.74028   0.54407   0.00000  Uiso   1.00
H1545  H     0.81309   0.68057   0.96491   0.00000  Uiso   1.00
H1546  H     0.94761   0.80433   0.67792   0.00000  Uiso   1.00
H1547  H     0.69764   0.84609   0.89296   0.00000  Uiso   1.00
H1548  H     0.70054   0.88593   0.84466   0.00000  Uiso   1.00
N1549  N     0.83333   0.74999   0.62623   0.00000  Uiso   1.00
N1550  N     0.83333   0.75001   0.87376   0.00000  Uiso   1.00
O1551  O     0.83334   0.68453   0.78974   0.00000  Uiso   1.00
O1552  O     0.83333   0.81546   0.71026   0.00000  Uiso   1.00
O1553  O     0.83334   0.68453   0.71026   0.00000  Uiso   1.00
O1554  O     0.83333   0.81547   0.78974   0.00000  Uiso   1.00
O1555  O     0.75725   0.75000   0.78044   0.00000  Uiso   1.00
O1556  O     0.90942   0.75000   0.71955   0.00000  Uiso   1.00
O1557  O     0.75725   0.74999   0.70096   0.00000  Uiso   1.00
O1558  O     0.90942   0.75000   0.79903   0.00000  Uiso   1.00
Zn1559 Zn    0.83333   0.75000   0.80307   0.00000  Uiso   1.00
Zn1560 Zn    0.83333   0.74999   0.69693   0.00000  Uiso   1.00
loop_
_geom_bond_atom_site_label_1
_geom_bond_atom_site_label_2
_geom_bond_distance
_geom_bond_site_symmetry_2
_ccdc_geom_bond_type
C1     O123    1.286   .     A
C1     O121    1.283   .     A
C1     C14     1.433   .     S
C2     C4      1.405   .     A
C2     H115    1.083   .     S
C2     C51     1.405   .     A
C3     C23     1.419   .     A
C3     C52     1.405   .     A
C3     C784    1.512   1_554 S
C4     C34     1.422   .     A
C4     C783    1.512   .     S
C5     C7      1.450   .     S
C5     O127    1.288   .     A
C5     O125    1.285   .     A
C6     O126    1.284   .     A
C6     C8      1.455   .     S
C6     O128    1.293   .     A
C7     C268    1.352   1_455 S
C7     C282    1.528   1_455 S
C8     C137    1.352   .     S
C8     C156    1.528   .     S
C9     H59     1.084   .     S
C9     C11     1.386   .     A
C9     C20     1.398   .     A
C10    C21     1.388   .     A
C10    H60     1.086   .     S
C10    C13     1.384   .     A
C11    C14     1.407   .     A
C11    C29     1.520   .     S
C12    O124    1.292   .     A
C12    C15     1.469   .     S
C12    O122    1.297   .     A
C13    C32     1.500   .     S
C13    C15     1.416   .     A
C14    C16     1.400   .     A
C15    C17     1.409   .     A
C16    H77     1.085   .     S
C16    C18     1.392   .     A
C17    C19     1.393   .     A
C17    H78     1.082   .     S
C18    C20     1.413   .     A
C18    C36     1.525   .     S
C19    C21     1.405   .     A
C19    C39     1.519   .     S
C20    C411    1.441   1_545 S
C21    C410    1.441   .     S
C22    H116    1.108   .     S
C22    H108    1.107   .     S
C22    C137    1.528   .     S
C22    C154    1.530   .     S
C23    C45     1.419   .     A
C23    C42     1.513   .     S
C24    H86     1.112   .     S
C24    H97     1.102   .     S
C24    C282    1.530   1_455 S
C24    C285    1.526   1_455 S
C25    H53     1.111   .     S
C25    H64     1.105   .     S
C25    C154    1.526   .     S
C25    H205    1.111   .     S
C26    H58     1.111   .     S
C26    H57     1.112   .     S
C26    C268    1.528   1_455 S
C26    C287    1.537   1_455 S
C27    H55     1.112   .     S
C27    H56     1.110   .     S
C27    C156    1.537   .     S
C27    C158    1.528   .     S
C28    H117    1.109   .     S
C28    H118    1.111   .     S
C28    C287    1.528   1_455 S
C28    H314    1.110   1_455 S
C29    H67     1.109   .     S
C29    C30     1.536   .     S
C29    H68     1.110   .     S
C30    C31     1.527   .     S
C30    H66     1.110   .     S
C30    H65     1.111   .     S
C31    H62     1.110   .     S
C31    H63     1.111   .     S
C31    H321    1.111   1_455 S
C32    H74     1.092   .     S
C32    H76     1.113   .     S
C32    C33     1.523   .     S
C33    H72     1.112   .     S
C33    H73     1.109   .     S
C33    C35     1.514   .     S
C34    C46     1.519   .     S
C34    C49     1.420   .     A
C35    H70     1.109   .     S
C35    H71     1.104   .     S
C35    H69     1.107   .     S
C36    C37     1.534   .     S
C36    H85     1.113   .     S
C36    H84     1.110   .     S
C37    H82     1.110   .     S
C37    C558    1.527   1_545 S
C37    H473    1.107   1_545 S
C38    H79     1.111   .     S
C38    H81     1.111   .     S
C38    C687    1.527   1_455 S
C38    H470    1.111   .     S
C39    H93     1.106   .     S
C39    C40     1.534   .     S
C39    H92     1.110   .     S
C40    C41     1.526   .     S
C40    H90     1.110   .     S
C40    H481    1.108   .     S
C41    H88     1.111   .     S
C41    H477    1.111   .     S
C41    H609    1.111   .     S
C42    H101    1.113   .     S
C42    C823    1.530   1_554 S
C42    H880    1.111   1_554 S
C43    H99     1.107   .     S
C43    C822    1.530   .     S
C43    C304    1.525   1_455 S
C43    H878    1.111   .     S
C44    H96     1.108   .     S
C44    H95     1.107   .     S
C44    H94     1.111   .     S
C44    C173    1.525   .     S
C45    N119    1.367   .     A
C45    H110    1.080   .     S
C46    H107    1.108   .     S
C46    C47     1.537   .     S
C46    H889    1.110   .     S
C47    H105    1.110   .     S
C47    C48     1.528   .     S
C47    H106    1.112   .     S
C48    H104    1.108   .     S
C48    H102    1.109   .     S
C48    H883    1.111   .     S
C49    N120    1.362   .     A
C49    H111    1.075   .     S
C50    C52     1.407   .     A
C50    H112    1.069   .     S
C50    N119    1.360   .     A
C51    H113    1.078   .     S
C51    N120    1.362   .     A
C52    H114    1.082   .     S
H54    C158    1.110   .     S
H61    C161    1.111   .     S
H75    C285    1.111   1_455 S
H80    C428    1.111   1_545 S
H83    C427    1.107   .     S
H87    C431    1.111   1_545 S
H89    C691    1.111   1_445 S
H91    C430    1.108   1_545 S
H98    C823    1.111   1_554 S
H100   C822    1.111   .     S
H103   C828    1.111   1_554 S
H109   C826    1.110   1_554 S
N119   Zn130   2.006   .     S
N120   Zn129   2.006   .     S
O121   Zn129   2.002   .     S
O122   Zn130   2.002   .     S
O123   Zn130   1.983   .     S
O124   Zn129   1.983   .     S
O125   Zn129   1.938   .     S
O126   Zn130   1.938   .     S
O127   Zn130   1.947   .     S
O128   Zn129   1.947   .     S
C131   O253    1.286   .     A
C131   O251    1.283   .     A
C131   C144    1.433   .     S
C132   C134    1.405   .     A
C132   H245    1.083   .     S
C132   C181    1.405   .     A
C133   C153    1.419   .     A
C133   C182    1.405   .     A
C133   C914    1.512   1_554 S
C134   C164    1.422   .     A
C134   C913    1.512   .     S
C135   C137    1.450   .     S
C135   O257    1.288   .     A
C135   O255    1.285   .     A
C136   O256    1.284   .     A
C136   C138    1.455   .     S
C136   O258    1.293   .     A
C138   C267    1.352   .     S
C138   C286    1.528   .     S
C139   H189    1.084   .     S
C139   C141    1.386   .     A
C139   C150    1.398   .     A
C140   C151    1.388   .     A
C140   H190    1.086   .     S
C140   C143    1.384   .     A
C141   C144    1.407   .     A
C141   C159    1.520   .     S
C142   O254    1.292   .     A
C142   C145    1.469   .     S
C142   O252    1.297   .     A
C143   C162    1.500   .     S
C143   C145    1.416   .     A
C144   C146    1.400   .     A
C145   C147    1.409   .     A
C146   H207    1.085   .     S
C146   C148    1.392   .     A
C147   C149    1.393   .     A
C147   H208    1.082   .     S
C148   C150    1.413   .     A
C148   C166    1.525   .     S
C149   C151    1.405   .     A
C149   C169    1.519   .     S
C150   C541    1.441   1_545 S
C151   C540    1.441   .     S
C152   H246    1.108   .     S
C152   H238    1.107   .     S
C152   C267    1.528   .     S
C152   C284    1.530   .     S
C153   C175    1.419   .     A
C153   C172    1.513   .     S
C154   H216    1.112   .     S
C154   H227    1.102   .     S
C155   H183    1.111   .     S
C155   H194    1.105   .     S
C155   C284    1.526   .     S
C155   H335    1.111   .     S
C156   H188    1.111   .     S
C156   H187    1.112   .     S
C157   H185    1.112   .     S
C157   H186    1.110   .     S
C157   C286    1.537   .     S
C157   C288    1.528   .     S
C158   H247    1.109   .     S
C158   H248    1.111   .     S
C159   H197    1.109   .     S
C159   C160    1.536   .     S
C159   H198    1.110   .     S
C160   C161    1.527   .     S
C160   H196    1.110   .     S
C160   H195    1.111   .     S
C161   H192    1.110   .     S
C161   H193    1.111   .     S
C162   H204    1.092   .     S
C162   H206    1.113   .     S
C162   C163    1.523   .     S
C163   H202    1.112   .     S
C163   H203    1.109   .     S
C163   C165    1.514   .     S
C164   C176    1.519   .     S
C164   C179    1.420   .     A
C165   H200    1.109   .     S
C165   H201    1.104   .     S
C165   H199    1.107   .     S
C166   C167    1.534   .     S
C166   H215    1.113   .     S
C166   H214    1.110   .     S
C167   H212    1.110   .     S
C167   C688    1.527   1_545 S
C167   H603    1.107   1_545 S
C168   H209    1.111   .     S
C168   H211    1.111   .     S
C168   C427    1.527   .     S
C168   H600    1.111   .     S
C169   H223    1.106   .     S
C169   C170    1.534   .     S
C169   H222    1.110   .     S
C170   C171    1.526   .     S
C170   H220    1.110   .     S
C170   H611    1.108   .     S
C171   H218    1.111   .     S
C171   H607    1.111   .     S
C171   H739    1.111   .     S
C172   H231    1.113   .     S
C172   C953    1.530   1_554 S
C172   H1010   1.111   1_554 S
C173   H229    1.107   .     S
C173   C952    1.530   .     S
C173   H1008   1.111   .     S
C174   H226    1.108   .     S
C174   H225    1.107   .     S
C174   H224    1.111   .     S
C174   C303    1.525   .     S
C175   N249    1.367   .     A
C175   H240    1.080   .     S
C176   H237    1.108   .     S
C176   C177    1.537   .     S
C176   H1019   1.110   .     S
C177   H235    1.110   .     S
C177   C178    1.528   .     S
C177   H236    1.112   .     S
C178   H234    1.108   .     S
C178   H232    1.109   .     S
C178   H1013   1.111   .     S
C179   N250    1.362   .     A
C179   H241    1.075   .     S
C180   C182    1.407   .     A
C180   H242    1.069   .     S
C180   N249    1.360   .     A
C181   H243    1.078   .     S
C181   N250    1.362   .     A
C182   H244    1.082   .     S
H184   C288    1.110   .     S
H191   C291    1.111   .     S
H210   C558    1.111   1_545 S
H213   C557    1.107   .     S
H217   C561    1.111   1_545 S
H219   C431    1.111   1_545 S
H221   C560    1.108   1_545 S
H228   C953    1.111   1_554 S
H230   C952    1.111   .     S
H233   C958    1.111   1_554 S
H239   C956    1.110   1_554 S
N249   Zn260   2.006   .     S
N250   Zn259   2.006   .     S
O251   Zn259   2.002   .     S
O252   Zn260   2.002   .     S
O253   Zn260   1.983   .     S
O254   Zn259   1.983   .     S
O255   Zn259   1.938   .     S
O256   Zn260   1.938   .     S
O257   Zn260   1.947   .     S
O258   Zn259   1.947   .     S
C261   O383    1.286   .     A
C261   O381    1.283   .     A
C261   C274    1.433   .     S
C262   C264    1.405   .     A
C262   H375    1.083   .     S
C262   C311    1.405   .     A
C263   C283    1.419   .     A
C263   C312    1.405   .     A
C263   C1044   1.512   1_554 S
C264   C294    1.422   .     A
C264   C1043   1.512   .     S
C265   C267    1.450   .     S
C265   O387    1.288   .     A
C265   O385    1.285   .     A
C266   O386    1.284   .     A
C266   C268    1.455   .     S
C266   O388    1.293   .     A
C268   C7      1.352   1_655 S
C268   C26     1.528   1_655 S
C269   H319    1.084   .     S
C269   C271    1.386   .     A
C269   C280    1.398   .     A
C270   C281    1.388   .     A
C270   H320    1.086   .     S
C270   C273    1.384   .     A
C271   C274    1.407   .     A
C271   C289    1.520   .     S
C272   O384    1.292   .     A
C272   C275    1.469   .     S
C272   O382    1.297   .     A
C273   C292    1.500   .     S
C273   C275    1.416   .     A
C274   C276    1.400   .     A
C275   C277    1.409   .     A
C276   H337    1.085   .     S
C276   C278    1.392   .     A
C277   C279    1.393   .     A
C277   H338    1.082   .     S
C278   C280    1.413   .     A
C278   C296    1.525   .     S
C279   C281    1.405   .     A
C279   C299    1.519   .     S
C280   C671    1.441   1_545 S
C281   C670    1.441   .     S
C282   H376    1.108   .     S
C282   H368    1.107   .     S
C282   C7      1.528   1_655 S
C282   C24     1.530   1_655 S
C283   C305    1.419   .     A
C283   C302    1.513   .     S
C284   H346    1.112   .     S
C284   H357    1.102   .     S
C285   H313    1.111   .     S
C285   H324    1.105   .     S
C285   C24     1.526   1_655 S
C285   H75     1.111   1_655 S
C286   H318    1.111   .     S
C286   H317    1.112   .     S
C287   H315    1.112   .     S
C287   H316    1.110   .     S
C287   C26     1.537   1_655 S
C287   C28     1.528   1_655 S
C288   H377    1.109   .     S
C288   H378    1.111   .     S
C289   H327    1.109   .     S
C289   C290    1.536   .     S
C289   H328    1.110   .     S
C290   C291    1.527   .     S
C290   H326    1.110   .     S
C290   H325    1.111   .     S
C291   H322    1.110   .     S
C291   H323    1.111   .     S
C292   H334    1.092   .     S
C292   H336    1.113   .     S
C292   C293    1.523   .     S
C293   H332    1.112   .     S
C293   H333    1.109   .     S
C293   C295    1.514   .     S
C294   C306    1.519   .     S
C294   C309    1.420   .     A
C295   H330    1.109   .     S
C295   H331    1.104   .     S
C295   H329    1.107   .     S
C296   C297    1.534   .     S
C296   H345    1.113   .     S
C296   H344    1.110   .     S
C297   H342    1.110   .     S
C297   C428    1.527   1_645 S
C297   H733    1.107   1_545 S
C298   H339    1.111   .     S
C298   H341    1.111   .     S
C298   C557    1.527   .     S
C298   H730    1.111   .     S
C299   H353    1.106   .     S
C299   C300    1.534   .     S
C299   H352    1.110   .     S
C300   C301    1.526   .     S
C300   H350    1.110   .     S
C300   H741    1.108   .     S
C301   H348    1.111   .     S
C301   H737    1.111   .     S
C301   H479    1.111   1_655 S
C302   H361    1.113   .     S
C302   C1083   1.530   1_554 S
C302   H1140   1.111   1_554 S
C303   H359    1.107   .     S
C303   C1082   1.530   .     S
C303   H1138   1.111   .     S
C304   H356    1.108   .     S
C304   H355    1.107   .     S
C304   H354    1.111   .     S
C304   C43     1.525   1_655 S
C305   N379    1.367   .     A
C305   H370    1.080   .     S
C306   H367    1.108   .     S
C306   C307    1.537   .     S
C306   H1149   1.110   .     S
C307   H365    1.110   .     S
C307   C308    1.528   .     S
C307   H366    1.112   .     S
C308   H364    1.108   .     S
C308   H362    1.109   .     S
C308   H1143   1.111   .     S
C309   N380    1.362   .     A
C309   H371    1.075   .     S
C310   C312    1.407   .     A
C310   H372    1.069   .     S
C310   N379    1.360   .     A
C311   H373    1.078   .     S
C311   N380    1.362   .     A
C312   H374    1.082   .     S
H314   C28     1.110   1_655 S
H321   C31     1.111   1_655 S
H340   C688    1.111   1_545 S
H343   C687    1.107   .     S
H347   C691    1.111   1_545 S
H349   C561    1.111   1_545 S
H351   C690    1.108   1_545 S
H358   C1083   1.111   1_554 S
H360   C1082   1.111   .     S
H363   C1088   1.111   1_554 S
H369   C1086   1.110   1_554 S
N379   Zn390   2.006   .     S
N380   Zn389   2.006   .     S
O381   Zn389   2.002   .     S
O382   Zn390   2.002   .     S
O383   Zn390   1.983   .     S
O384   Zn389   1.983   .     S
O385   Zn389   1.938   .     S
O386   Zn390   1.938   .     S
O387   Zn390   1.947   .     S
O388   Zn389   1.947   .     S
C391   O513    1.286   .     A
C391   O511    1.283   .     A
C391   C404    1.433   .     S
C392   C394    1.405   .     A
C392   H505    1.083   .     S
C392   C441    1.405   .     A
C393   C413    1.419   .     A
C393   C442    1.405   .     A
C393   C1174   1.512   1_554 S
C394   C424    1.422   .     A
C394   C1173   1.512   .     S
C395   C397    1.450   .     S
C395   O517    1.288   .     A
C395   O515    1.285   .     A
C396   O516    1.284   .     A
C396   C398    1.455   .     S
C396   O518    1.293   .     A
C397   C658    1.352   1_455 S
C397   C672    1.528   1_455 S
C398   C527    1.352   .     S
C398   C546    1.528   .     S
C399   H449    1.084   .     S
C399   C401    1.386   .     A
C399   C410    1.398   .     A
C400   C411    1.388   .     A
C400   H450    1.086   .     S
C400   C403    1.384   .     A
C401   C404    1.407   .     A
C401   C419    1.520   .     S
C402   O514    1.292   .     A
C402   C405    1.469   .     S
C402   O512    1.297   .     A
C403   C422    1.500   .     S
C403   C405    1.416   .     A
C404   C406    1.400   .     A
C405   C407    1.409   .     A
C406   H467    1.085   .     S
C406   C408    1.392   .     A
C407   C409    1.393   .     A
C407   H468    1.082   .     S
C408   C410    1.413   .     A
C408   C426    1.525   .     S
C409   C411    1.405   .     A
C409   C429    1.519   .     S
C411   C20     1.441   1_565 S
C412   H506    1.108   .     S
C412   H498    1.107   .     S
C412   C527    1.528   .     S
C412   C544    1.530   .     S
C413   C435    1.419   .     A
C413   C432    1.513   .     S
C414   H476    1.112   .     S
C414   H487    1.102   .     S
C414   C672    1.530   1_455 S
C414   C675    1.526   1_455 S
C415   H443    1.111   .     S
C415   H454    1.105   .     S
C415   C544    1.526   .     S
C415   H595    1.111   .     S
C416   H448    1.111   .     S
C416   H447    1.112   .     S
C416   C658    1.528   1_455 S
C416   C677    1.537   1_455 S
C417   H445    1.112   .     S
C417   H446    1.110   .     S
C417   C546    1.537   .     S
C417   C548    1.528   .     S
C418   H507    1.109   .     S
C418   H508    1.111   .     S
C418   C677    1.528   1_455 S
C418   H704    1.110   1_455 S
C419   H457    1.109   .     S
C419   C420    1.536   .     S
C419   H458    1.110   .     S
C420   C421    1.527   .     S
C420   H456    1.110   .     S
C420   H455    1.111   .     S
C421   H452    1.110   .     S
C421   H453    1.111   .     S
C421   H711    1.111   1_455 S
C422   H464    1.092   .     S
C422   H466    1.113   .     S
C422   C423    1.523   .     S
C423   H462    1.112   .     S
C423   H463    1.109   .     S
C423   C425    1.514   .     S
C424   C436    1.519   .     S
C424   C439    1.420   .     A
C425   H460    1.109   .     S
C425   H461    1.104   .     S
C425   H459    1.107   .     S
C426   C427    1.534   .     S
C426   H475    1.113   .     S
C426   H474    1.110   .     S
C427   H472    1.110   .     S
C428   H469    1.111   .     S
C428   H471    1.111   .     S
C428   C297    1.527   1_465 S
C428   H80     1.111   1_565 S
C429   H483    1.106   .     S
C429   C430    1.534   .     S
C429   H482    1.110   .     S
C430   C431    1.526   .     S
C430   H480    1.110   .     S
C430   H91     1.108   1_565 S
C431   H478    1.111   .     S
C431   H87     1.111   1_565 S
C431   H219    1.111   1_565 S
C432   H491    1.113   .     S
C432   C1213   1.530   1_554 S
C432   H1270   1.111   1_554 S
C433   H489    1.107   .     S
C433   C1212   1.530   .     S
C433   C694    1.525   1_455 S
C433   H1268   1.111   .     S
C434   H486    1.108   .     S
C434   H485    1.107   .     S
C434   H484    1.111   .     S
C434   C563    1.525   .     S
C435   N509    1.367   .     A
C435   H500    1.080   .     S
C436   H497    1.108   .     S
C436   C437    1.537   .     S
C436   H1279   1.110   .     S
C437   H495    1.110   .     S
C437   C438    1.528   .     S
C437   H496    1.112   .     S
C438   H494    1.108   .     S
C438   H492    1.109   .     S
C438   H1273   1.111   .     S
C439   N510    1.362   .     A
C439   H501    1.075   .     S
C440   C442    1.407   .     A
C440   H502    1.069   .     S
C440   N509    1.360   .     A
C441   H503    1.078   .     S
C441   N510    1.362   .     A
C442   H504    1.082   .     S
H444   C548    1.110   .     S
H451   C551    1.111   .     S
H465   C675    1.111   1_455 S
H473   C37     1.107   1_565 S
H479   C301    1.111   1_455 S
H488   C1213   1.111   1_554 S
H490   C1212   1.111   .     S
H493   C1218   1.111   1_554 S
H499   C1216   1.110   1_554 S
N509   Zn520   2.006   .     S
N510   Zn519   2.006   .     S
O511   Zn519   2.002   .     S
O512   Zn520   2.002   .     S
O513   Zn520   1.983   .     S
O514   Zn519   1.983   .     S
O515   Zn519   1.938   .     S
O516   Zn520   1.938   .     S
O517   Zn520   1.947   .     S
O518   Zn519   1.947   .     S
C521   O643    1.286   .     A
C521   O641    1.283   .     A
C521   C534    1.433   .     S
C522   C524    1.405   .     A
C522   H635    1.083   .     S
C522   C571    1.405   .     A
C523   C543    1.419   .     A
C523   C572    1.405   .     A
C523   C1304   1.512   1_554 S
C524   C554    1.422   .     A
C524   C1303   1.512   .     S
C525   C527    1.450   .     S
C525   O647    1.288   .     A
C525   O645    1.285   .     A
C526   O646    1.284   .     A
C526   C528    1.455   .     S
C526   O648    1.293   .     A
C528   C657    1.352   .     S
C528   C676    1.528   .     S
C529   H579    1.084   .     S
C529   C531    1.386   .     A
C529   C540    1.398   .     A
C530   C541    1.388   .     A
C530   H580    1.086   .     S
C530   C533    1.384   .     A
C531   C534    1.407   .     A
C531   C549    1.520   .     S
C532   O644    1.292   .     A
C532   C535    1.469   .     S
C532   O642    1.297   .     A
C533   C552    1.500   .     S
C533   C535    1.416   .     A
C534   C536    1.400   .     A
C535   C537    1.409   .     A
C536   H597    1.085   .     S
C536   C538    1.392   .     A
C537   C539    1.393   .     A
C537   H598    1.082   .     S
C538   C540    1.413   .     A
C538   C556    1.525   .     S
C539   C541    1.405   .     A
C539   C559    1.519   .     S
C541   C150    1.441   1_565 S
C542   H636    1.108   .     S
C542   H628    1.107   .     S
C542   C657    1.528   .     S
C542   C674    1.530   .     S
C543   C565    1.419   .     A
C543   C562    1.513   .     S
C544   H606    1.112   .     S
C544   H617    1.102   .     S
C545   H573    1.111   .     S
C545   H584    1.105   .     S
C545   C674    1.526   .     S
C545   H725    1.111   .     S
C546   H578    1.111   .     S
C546   H577    1.112   .     S
C547   H575    1.112   .     S
C547   H576    1.110   .     S
C547   C676    1.537   .     S
C547   C678    1.528   .     S
C548   H637    1.109   .     S
C548   H638    1.111   .     S
C549   H587    1.109   .     S
C549   C550    1.536   .     S
C549   H588    1.110   .     S
C550   C551    1.527   .     S
C550   H586    1.110   .     S
C550   H585    1.111   .     S
C551   H582    1.110   .     S
C551   H583    1.111   .     S
C552   H594    1.092   .     S
C552   H596    1.113   .     S
C552   C553    1.523   .     S
C553   H592    1.112   .     S
C553   H593    1.109   .     S
C553   C555    1.514   .     S
C554   C566    1.519   .     S
C554   C569    1.420   .     A
C555   H590    1.109   .     S
C555   H591    1.104   .     S
C555   H589    1.107   .     S
C556   C557    1.534   .     S
C556   H605    1.113   .     S
C556   H604    1.110   .     S
C557   H602    1.110   .     S
C558   H599    1.111   .     S
C558   H601    1.111   .     S
C558   C37     1.527   1_565 S
C558   H210    1.111   1_565 S
C559   H613    1.106   .     S
C559   C560    1.534   .     S
C559   H612    1.110   .     S
C560   C561    1.526   .     S
C560   H610    1.110   .     S
C560   H221    1.108   1_565 S
C561   H608    1.111   .     S
C561   H217    1.111   1_565 S
C561   H349    1.111   1_565 S
C562   H621    1.113   .     S
C562   C1343   1.530   1_554 S
C562   H1400   1.111   1_554 S
C563   H619    1.107   .     S
C563   C1342   1.530   .     S
C563   H1398   1.111   .     S
C564   H616    1.108   .     S
C564   H615    1.107   .     S
C564   H614    1.111   .     S
C564   C693    1.525   .     S
C565   N639    1.367   .     A
C565   H630    1.080   .     S
C566   H627    1.108   .     S
C566   C567    1.537   .     S
C566   H1409   1.110   .     S
C567   H625    1.110   .     S
C567   C568    1.528   .     S
C567   H626    1.112   .     S
C568   H624    1.108   .     S
C568   H622    1.109   .     S
C568   H1403   1.111   .     S
C569   N640    1.362   .     A
C569   H631    1.075   .     S
C570   C572    1.407   .     A
C570   H632    1.069   .     S
C570   N639    1.360   .     A
C571   H633    1.078   .     S
C571   N640    1.362   .     A
C572   H634    1.082   .     S
H574   C678    1.110   .     S
H581   C681    1.111   .     S
H603   C167    1.107   1_565 S
H618   C1343   1.111   1_554 S
H620   C1342   1.111   .     S
H623   C1348   1.111   1_554 S
H629   C1346   1.110   1_554 S
N639   Zn650   2.006   .     S
N640   Zn649   2.006   .     S
O641   Zn649   2.002   .     S
O642   Zn650   2.002   .     S
O643   Zn650   1.983   .     S
O644   Zn649   1.983   .     S
O645   Zn649   1.938   .     S
O646   Zn650   1.938   .     S
O647   Zn650   1.947   .     S
O648   Zn649   1.947   .     S
C651   O773    1.286   .     A
C651   O771    1.283   .     A
C651   C664    1.433   .     S
C652   C654    1.405   .     A
C652   H765    1.083   .     S
C652   C701    1.405   .     A
C653   C673    1.419   .     A
C653   C702    1.405   .     A
C653   C1434   1.512   1_554 S
C654   C684    1.422   .     A
C654   C1433   1.512   .     S
C655   C657    1.450   .     S
C655   O777    1.288   .     A
C655   O775    1.285   .     A
C656   O776    1.284   .     A
C656   C658    1.455   .     S
C656   O778    1.293   .     A
C658   C397    1.352   1_655 S
C658   C416    1.528   1_655 S
C659   H709    1.084   .     S
C659   C661    1.386   .     A
C659   C670    1.398   .     A
C660   C671    1.388   .     A
C660   H710    1.086   .     S
C660   C663    1.384   .     A
C661   C664    1.407   .     A
C661   C679    1.520   .     S
C662   O774    1.292   .     A
C662   C665    1.469   .     S
C662   O772    1.297   .     A
C663   C682    1.500   .     S
C663   C665    1.416   .     A
C664   C666    1.400   .     A
C665   C667    1.409   .     A
C666   H727    1.085   .     S
C666   C668    1.392   .     A
C667   C669    1.393   .     A
C667   H728    1.082   .     S
C668   C670    1.413   .     A
C668   C686    1.525   .     S
C669   C671    1.405   .     A
C669   C689    1.519   .     S
C671   C280    1.441   1_565 S
C672   H766    1.108   .     S
C672   H758    1.107   .     S
C672   C397    1.528   1_655 S
C672   C414    1.530   1_655 S
C673   C695    1.419   .     A
C673   C692    1.513   .     S
C674   H736    1.112   .     S
C674   H747    1.102   .     S
C675   H703    1.111   .     S
C675   H714    1.105   .     S
C675   C414    1.526   1_655 S
C675   H465    1.111   1_655 S
C676   H708    1.111   .     S
C676   H707    1.112   .     S
C677   H705    1.112   .     S
C677   H706    1.110   .     S
C677   C416    1.537   1_655 S
C677   C418    1.528   1_655 S
C678   H767    1.109   .     S
C678   H768    1.111   .     S
C679   H717    1.109   .     S
C679   C680    1.536   .     S
C679   H718    1.110   .     S
C680   C681    1.527   .     S
C680   H716    1.110   .     S
C680   H715    1.111   .     S
C681   H712    1.110   .     S
C681   H713    1.111   .     S
C682   H724    1.092   .     S
C682   H726    1.113   .     S
C682   C683    1.523   .     S
C683   H722    1.112   .     S
C683   H723    1.109   .     S
C683   C685    1.514   .     S
C684   C696    1.519   .     S
C684   C699    1.420   .     A
C685   H720    1.109   .     S
C685   H721    1.104   .     S
C685   H719    1.107   .     S
C686   C687    1.534   .     S
C686   H735    1.113   .     S
C686   H734    1.110   .     S
C687   H732    1.110   .     S
C687   C38     1.527   1_655 S
C688   H729    1.111   .     S
C688   H731    1.111   .     S
C688   C167    1.527   1_565 S
C688   H340    1.111   1_565 S
C689   H743    1.106   .     S
C689   C690    1.534   .     S
C689   H742    1.110   .     S
C690   C691    1.526   .     S
C690   H740    1.110   .     S
C690   H351    1.108   1_565 S
C691   H738    1.111   .     S
C691   H347    1.111   1_565 S
C691   H89     1.111   1_665 S
C692   H751    1.113   .     S
C692   C1473   1.530   1_554 S
C692   H1530   1.111   1_554 S
C693   H749    1.107   .     S
C693   C1472   1.530   .     S
C693   H1528   1.111   .     S
C694   H746    1.108   .     S
C694   H745    1.107   .     S
C694   H744    1.111   .     S
C694   C433    1.525   1_655 S
C695   N769    1.367   .     A
C695   H760    1.080   .     S
C696   H757    1.108   .     S
C696   C697    1.537   .     S
C696   H1539   1.110   .     S
C697   H755    1.110   .     S
C697   C698    1.528   .     S
C697   H756    1.112   .     S
C698   H754    1.108   .     S
C698   H752    1.109   .     S
C698   H1533   1.111   .     S
C699   N770    1.362   .     A
C699   H761    1.075   .     S
C700   C702    1.407   .     A
C700   H762    1.069   .     S
C700   N769    1.360   .     A
C701   H763    1.078   .     S
C701   N770    1.362   .     A
C702   H764    1.082   .     S
H704   C418    1.110   1_655 S
H711   C421    1.111   1_655 S
H733   C297    1.107   1_565 S
H748   C1473   1.111   1_554 S
H750   C1472   1.111   .     S
H753   C1478   1.111   1_554 S
H759   C1476   1.110   1_554 S
N769   Zn780   2.006   .     S
N770   Zn779   2.006   .     S
O771   Zn779   2.002   .     S
O772   Zn780   2.002   .     S
O773   Zn780   1.983   .     S
O774   Zn779   1.983   .     S
O775   Zn779   1.938   .     S
O776   Zn780   1.938   .     S
O777   Zn780   1.947   .     S
O778   Zn779   1.947   .     S
C781   O903    1.286   .     A
C781   O901    1.283   .     A
C781   C794    1.433   .     S
C782   C784    1.405   .     A
C782   H895    1.083   .     S
C782   C831    1.405   .     A
C783   C803    1.419   .     A
C783   C832    1.405   .     A
C784   C814    1.422   .     A
C784   C3      1.512   1_556 S
C785   C787    1.450   .     S
C785   O907    1.288   .     A
C785   O905    1.285   .     A
C786   O906    1.284   .     A
C786   C788    1.455   .     S
C786   O908    1.293   .     A
C787   C1048   1.352   1_455 S
C787   C1062   1.528   1_455 S
C788   C917    1.352   .     S
C788   C936    1.528   .     S
C789   H839    1.084   .     S
C789   C791    1.386   .     A
C789   C800    1.398   .     A
C790   C801    1.388   .     A
C790   H840    1.086   .     S
C790   C793    1.384   .     A
C791   C794    1.407   .     A
C791   C809    1.520   .     S
C792   O904    1.292   .     A
C792   C795    1.469   .     S
C792   O902    1.297   .     A
C793   C812    1.500   .     S
C793   C795    1.416   .     A
C794   C796    1.400   .     A
C795   C797    1.409   .     A
C796   H857    1.085   .     S
C796   C798    1.392   .     A
C797   C799    1.393   .     A
C797   H858    1.082   .     S
C798   C800    1.413   .     A
C798   C816    1.525   .     S
C799   C801    1.405   .     A
C799   C819    1.519   .     S
C800   C1191   1.441   1_545 S
C801   C1190   1.441   .     S
C802   H896    1.108   .     S
C802   H888    1.107   .     S
C802   C917    1.528   .     S
C802   C934    1.530   .     S
C803   C825    1.419   .     A
C803   C822    1.513   .     S
C804   H866    1.112   .     S
C804   H877    1.102   .     S
C804   C1062   1.530   1_455 S
C804   C1065   1.526   1_455 S
C805   H833    1.111   .     S
C805   H844    1.105   .     S
C805   C934    1.526   .     S
C805   H985    1.111   .     S
C806   H838    1.111   .     S
C806   H837    1.112   .     S
C806   C1048   1.528   1_455 S
C806   C1067   1.537   1_455 S
C807   H835    1.112   .     S
C807   H836    1.110   .     S
C807   C936    1.537   .     S
C807   C938    1.528   .     S
C808   H897    1.109   .     S
C808   H898    1.111   .     S
C808   C1067   1.528   1_455 S
C808   H1094   1.110   1_455 S
C809   H847    1.109   .     S
C809   C810    1.536   .     S
C809   H848    1.110   .     S
C810   C811    1.527   .     S
C810   H846    1.110   .     S
C810   H845    1.111   .     S
C811   H842    1.110   .     S
C811   H843    1.111   .     S
C811   H1101   1.111   1_455 S
C812   H854    1.092   .     S
C812   H856    1.113   .     S
C812   C813    1.523   .     S
C813   H852    1.112   .     S
C813   H853    1.109   .     S
C813   C815    1.514   .     S
C814   C826    1.519   .     S
C814   C829    1.420   .     A
C815   H850    1.109   .     S
C815   H851    1.104   .     S
C815   H849    1.107   .     S
C816   C817    1.534   .     S
C816   H865    1.113   .     S
C816   H864    1.110   .     S
C817   H862    1.110   .     S
C817   C1338   1.527   1_545 S
C817   H1253   1.107   1_545 S
C818   H859    1.111   .     S
C818   H861    1.111   .     S
C818   C1467   1.527   1_455 S
C818   H1250   1.111   .     S
C819   H873    1.106   .     S
C819   C820    1.534   .     S
C819   H872    1.110   .     S
C820   C821    1.526   .     S
C820   H870    1.110   .     S
C820   H1261   1.108   .     S
C821   H868    1.111   .     S
C821   H1257   1.111   .     S
C821   H1389   1.111   .     S
C822   H881    1.113   .     S
C823   H879    1.107   .     S
C823   C42     1.530   1_556 S
C823   C1084   1.525   1_455 S
C823   H98     1.111   1_556 S
C824   H876    1.108   .     S
C824   H875    1.107   .     S
C824   H874    1.111   .     S
C824   C953    1.525   .     S
C825   N899    1.367   .     A
C825   H890    1.080   .     S
C826   H887    1.108   .     S
C826   C827    1.537   .     S
C826   H109    1.110   1_556 S
C827   H885    1.110   .     S
C827   C828    1.528   .     S
C827   H886    1.112   .     S
C828   H884    1.108   .     S
C828   H882    1.109   .     S
C828   H103    1.111   1_556 S
C829   N900    1.362   .     A
C829   H891    1.075   .     S
C830   C832    1.407   .     A
C830   H892    1.069   .     S
C830   N899    1.360   .     A
C831   H893    1.078   .     S
C831   N900    1.362   .     A
C832   H894    1.082   .     S
H834   C938    1.110   .     S
H841   C941    1.111   .     S
H855   C1065   1.111   1_455 S
H860   C1208   1.111   1_545 S
H863   C1207   1.107   .     S
H867   C1211   1.111   1_545 S
H869   C1471   1.111   1_445 S
H871   C1210   1.108   1_545 S
H880   C42     1.111   1_556 S
N899   Zn910   2.006   .     S
N900   Zn909   2.006   .     S
O901   Zn909   2.002   .     S
O902   Zn910   2.002   .     S
O903   Zn910   1.983   .     S
O904   Zn909   1.983   .     S
O905   Zn909   1.938   .     S
O906   Zn910   1.938   .     S
O907   Zn910   1.947   .     S
O908   Zn909   1.947   .     S
C911   O1033   1.286   .     A
C911   O1031   1.283   .     A
C911   C924    1.433   .     S
C912   C914    1.405   .     A
C912   H1025   1.083   .     S
C912   C961    1.405   .     A
C913   C933    1.419   .     A
C913   C962    1.405   .     A
C914   C944    1.422   .     A
C914   C133    1.512   1_556 S
C915   C917    1.450   .     S
C915   O1037   1.288   .     A
C915   O1035   1.285   .     A
C916   O1036   1.284   .     A
C916   C918    1.455   .     S
C916   O1038   1.293   .     A
C918   C1047   1.352   .     S
C918   C1066   1.528   .     S
C919   H969    1.084   .     S
C919   C921    1.386   .     A
C919   C930    1.398   .     A
C920   C931    1.388   .     A
C920   H970    1.086   .     S
C920   C923    1.384   .     A
C921   C924    1.407   .     A
C921   C939    1.520   .     S
C922   O1034   1.292   .     A
C922   C925    1.469   .     S
C922   O1032   1.297   .     A
C923   C942    1.500   .     S
C923   C925    1.416   .     A
C924   C926    1.400   .     A
C925   C927    1.409   .     A
C926   H987    1.085   .     S
C926   C928    1.392   .     A
C927   C929    1.393   .     A
C927   H988    1.082   .     S
C928   C930    1.413   .     A
C928   C946    1.525   .     S
C929   C931    1.405   .     A
C929   C949    1.519   .     S
C930   C1321   1.441   1_545 S
C931   C1320   1.441   .     S
C932   H1026   1.108   .     S
C932   H1018   1.107   .     S
C932   C1047   1.528   .     S
C932   C1064   1.530   .     S
C933   C955    1.419   .     A
C933   C952    1.513   .     S
C934   H996    1.112   .     S
C934   H1007   1.102   .     S
C935   H963    1.111   .     S
C935   H974    1.105   .     S
C935   C1064   1.526   .     S
C935   H1115   1.111   .     S
C936   H968    1.111   .     S
C936   H967    1.112   .     S
C937   H965    1.112   .     S
C937   H966    1.110   .     S
C937   C1066   1.537   .     S
C937   C1068   1.528   .     S
C938   H1027   1.109   .     S
C938   H1028   1.111   .     S
C939   H977    1.109   .     S
C939   C940    1.536   .     S
C939   H978    1.110   .     S
C940   C941    1.527   .     S
C940   H976    1.110   .     S
C940   H975    1.111   .     S
C941   H972    1.110   .     S
C941   H973    1.111   .     S
C942   H984    1.092   .     S
C942   H986    1.113   .     S
C942   C943    1.523   .     S
C943   H982    1.112   .     S
C943   H983    1.109   .     S
C943   C945    1.514   .     S
C944   C956    1.519   .     S
C944   C959    1.420   .     A
C945   H980    1.109   .     S
C945   H981    1.104   .     S
C945   H979    1.107   .     S
C946   C947    1.534   .     S
C946   H995    1.113   .     S
C946   H994    1.110   .     S
C947   H992    1.110   .     S
C947   C1468   1.527   1_545 S
C947   H1383   1.107   1_545 S
C948   H989    1.111   .     S
C948   H991    1.111   .     S
C948   C1207   1.527   .     S
C948   H1380   1.111   .     S
C949   H1003   1.106   .     S
C949   C950    1.534   .     S
C949   H1002   1.110   .     S
C950   C951    1.526   .     S
C950   H1000   1.110   .     S
C950   H1391   1.108   .     S
C951   H998    1.111   .     S
C951   H1387   1.111   .     S
C951   H1519   1.111   .     S
C952   H1011   1.113   .     S
C953   H1009   1.107   .     S
C953   C172    1.530   1_556 S
C953   H228    1.111   1_556 S
C954   H1006   1.108   .     S
C954   H1005   1.107   .     S
C954   H1004   1.111   .     S
C954   C1083   1.525   .     S
C955   N1029   1.367   .     A
C955   H1020   1.080   .     S
C956   H1017   1.108   .     S
C956   C957    1.537   .     S
C956   H239    1.110   1_556 S
C957   H1015   1.110   .     S
C957   C958    1.528   .     S
C957   H1016   1.112   .     S
C958   H1014   1.108   .     S
C958   H1012   1.109   .     S
C958   H233    1.111   1_556 S
C959   N1030   1.362   .     A
C959   H1021   1.075   .     S
C960   C962    1.407   .     A
C960   H1022   1.069   .     S
C960   N1029   1.360   .     A
C961   H1023   1.078   .     S
C961   N1030   1.362   .     A
C962   H1024   1.082   .     S
H964   C1068   1.110   .     S
H971   C1071   1.111   .     S
H990   C1338   1.111   1_545 S
H993   C1337   1.107   .     S
H997   C1341   1.111   1_545 S
H999   C1211   1.111   1_545 S
H1001  C1340   1.108   1_545 S
H1010  C172    1.111   1_556 S
N1029  Zn1040  2.006   .     S
N1030  Zn1039  2.006   .     S
O1031  Zn1039  2.002   .     S
O1032  Zn1040  2.002   .     S
O1033  Zn1040  1.983   .     S
O1034  Zn1039  1.983   .     S
O1035  Zn1039  1.938   .     S
O1036  Zn1040  1.938   .     S
O1037  Zn1040  1.947   .     S
O1038  Zn1039  1.947   .     S
C1041  O1163   1.286   .     A
C1041  O1161   1.283   .     A
C1041  C1054   1.433   .     S
C1042  C1044   1.405   .     A
C1042  H1155   1.083   .     S
C1042  C1091   1.405   .     A
C1043  C1063   1.419   .     A
C1043  C1092   1.405   .     A
C1044  C1074   1.422   .     A
C1044  C263    1.512   1_556 S
C1045  C1047   1.450   .     S
C1045  O1167   1.288   .     A
C1045  O1165   1.285   .     A
C1046  O1166   1.284   .     A
C1046  C1048   1.455   .     S
C1046  O1168   1.293   .     A
C1048  C787    1.352   1_655 S
C1048  C806    1.528   1_655 S
C1049  H1099   1.084   .     S
C1049  C1051   1.386   .     A
C1049  C1060   1.398   .     A
C1050  C1061   1.388   .     A
C1050  H1100   1.086   .     S
C1050  C1053   1.384   .     A
C1051  C1054   1.407   .     A
C1051  C1069   1.520   .     S
C1052  O1164   1.292   .     A
C1052  C1055   1.469   .     S
C1052  O1162   1.297   .     A
C1053  C1072   1.500   .     S
C1053  C1055   1.416   .     A
C1054  C1056   1.400   .     A
C1055  C1057   1.409   .     A
C1056  H1117   1.085   .     S
C1056  C1058   1.392   .     A
C1057  C1059   1.393   .     A
C1057  H1118   1.082   .     S
C1058  C1060   1.413   .     A
C1058  C1076   1.525   .     S
C1059  C1061   1.405   .     A
C1059  C1079   1.519   .     S
C1060  C1451   1.441   1_545 S
C1061  C1450   1.441   .     S
C1062  H1156   1.108   .     S
C1062  H1148   1.107   .     S
C1062  C787    1.528   1_655 S
C1062  C804    1.530   1_655 S
C1063  C1085   1.419   .     A
C1063  C1082   1.513   .     S
C1064  H1126   1.112   .     S
C1064  H1137   1.102   .     S
C1065  H1093   1.111   .     S
C1065  H1104   1.105   .     S
C1065  C804    1.526   1_655 S
C1065  H855    1.111   1_655 S
C1066  H1098   1.111   .     S
C1066  H1097   1.112   .     S
C1067  H1095   1.112   .     S
C1067  H1096   1.110   .     S
C1067  C806    1.537   1_655 S
C1067  C808    1.528   1_655 S
C1068  H1157   1.109   .     S
C1068  H1158   1.111   .     S
C1069  H1107   1.109   .     S
C1069  C1070   1.536   .     S
C1069  H1108   1.110   .     S
C1070  C1071   1.527   .     S
C1070  H1106   1.110   .     S
C1070  H1105   1.111   .     S
C1071  H1102   1.110   .     S
C1071  H1103   1.111   .     S
C1072  H1114   1.092   .     S
C1072  H1116   1.113   .     S
C1072  C1073   1.523   .     S
C1073  H1112   1.112   .     S
C1073  H1113   1.109   .     S
C1073  C1075   1.514   .     S
C1074  C1086   1.519   .     S
C1074  C1089   1.420   .     A
C1075  H1110   1.109   .     S
C1075  H1111   1.104   .     S
C1075  H1109   1.107   .     S
C1076  C1077   1.534   .     S
C1076  H1125   1.113   .     S
C1076  H1124   1.110   .     S
C1077  H1122   1.110   .     S
C1077  C1208   1.527   1_645 S
C1077  H1513   1.107   1_545 S
C1078  H1119   1.111   .     S
C1078  H1121   1.111   .     S
C1078  C1337   1.527   .     S
C1078  H1510   1.111   .     S
C1079  H1133   1.106   .     S
C1079  C1080   1.534   .     S
C1079  H1132   1.110   .     S
C1080  C1081   1.526   .     S
C1080  H1130   1.110   .     S
C1080  H1521   1.108   .     S
C1081  H1128   1.111   .     S
C1081  H1517   1.111   .     S
C1081  H1259   1.111   1_655 S
C1082  H1141   1.113   .     S
C1083  H1139   1.107   .     S
C1083  C302    1.530   1_556 S
C1083  H358    1.111   1_556 S
C1084  H1136   1.108   .     S
C1084  H1135   1.107   .     S
C1084  H1134   1.111   .     S
C1084  C823    1.525   1_655 S
C1085  N1159   1.367   .     A
C1085  H1150   1.080   .     S
C1086  H1147   1.108   .     S
C1086  C1087   1.537   .     S
C1086  H369    1.110   1_556 S
C1087  H1145   1.110   .     S
C1087  C1088   1.528   .     S
C1087  H1146   1.112   .     S
C1088  H1144   1.108   .     S
C1088  H1142   1.109   .     S
C1088  H363    1.111   1_556 S
C1089  N1160   1.362   .     A
C1089  H1151   1.075   .     S
C1090  C1092   1.407   .     A
C1090  H1152   1.069   .     S
C1090  N1159   1.360   .     A
C1091  H1153   1.078   .     S
C1091  N1160   1.362   .     A
C1092  H1154   1.082   .     S
H1094  C808    1.110   1_655 S
H1101  C811    1.111   1_655 S
H1120  C1468   1.111   1_545 S
H1123  C1467   1.107   .     S
H1127  C1471   1.111   1_545 S
H1129  C1341   1.111   1_545 S
H1131  C1470   1.108   1_545 S
H1140  C302    1.111   1_556 S
N1159  Zn1170  2.006   .     S
N1160  Zn1169  2.006   .     S
O1161  Zn1169  2.002   .     S
O1162  Zn1170  2.002   .     S
O1163  Zn1170  1.983   .     S
O1164  Zn1169  1.983   .     S
O1165  Zn1169  1.938   .     S
O1166  Zn1170  1.938   .     S
O1167  Zn1170  1.947   .     S
O1168  Zn1169  1.947   .     S
C1171  O1293   1.286   .     A
C1171  O1291   1.283   .     A
C1171  C1184   1.433   .     S
C1172  C1174   1.405   .     A
C1172  H1285   1.083   .     S
C1172  C1221   1.405   .     A
C1173  C1193   1.419   .     A
C1173  C1222   1.405   .     A
C1174  C1204   1.422   .     A
C1174  C393    1.512   1_556 S
C1175  C1177   1.450   .     S
C1175  O1297   1.288   .     A
C1175  O1295   1.285   .     A
C1176  O1296   1.284   .     A
C1176  C1178   1.455   .     S
C1176  O1298   1.293   .     A
C1177  C1438   1.352   1_455 S
C1177  C1452   1.528   1_455 S
C1178  C1307   1.352   .     S
C1178  C1326   1.528   .     S
C1179  H1229   1.084   .     S
C1179  C1181   1.386   .     A
C1179  C1190   1.398   .     A
C1180  C1191   1.388   .     A
C1180  H1230   1.086   .     S
C1180  C1183   1.384   .     A
C1181  C1184   1.407   .     A
C1181  C1199   1.520   .     S
C1182  O1294   1.292   .     A
C1182  C1185   1.469   .     S
C1182  O1292   1.297   .     A
C1183  C1202   1.500   .     S
C1183  C1185   1.416   .     A
C1184  C1186   1.400   .     A
C1185  C1187   1.409   .     A
C1186  H1247   1.085   .     S
C1186  C1188   1.392   .     A
C1187  C1189   1.393   .     A
C1187  H1248   1.082   .     S
C1188  C1190   1.413   .     A
C1188  C1206   1.525   .     S
C1189  C1191   1.405   .     A
C1189  C1209   1.519   .     S
C1191  C800    1.441   1_565 S
C1192  H1286   1.108   .     S
C1192  H1278   1.107   .     S
C1192  C1307   1.528   .     S
C1192  C1324   1.530   .     S
C1193  C1215   1.419   .     A
C1193  C1212   1.513   .     S
C1194  H1256   1.112   .     S
C1194  H1267   1.102   .     S
C1194  C1452   1.530   1_455 S
C1194  C1455   1.526   1_455 S
C1195  H1223   1.111   .     S
C1195  H1234   1.105   .     S
C1195  C1324   1.526   .     S
C1195  H1375   1.111   .     S
C1196  H1228   1.111   .     S
C1196  H1227   1.112   .     S
C1196  C1438   1.528   1_455 S
C1196  C1457   1.537   1_455 S
C1197  H1225   1.112   .     S
C1197  H1226   1.110   .     S
C1197  C1326   1.537   .     S
C1197  C1328   1.528   .     S
C1198  H1287   1.109   .     S
C1198  H1288   1.111   .     S
C1198  C1457   1.528   1_455 S
C1198  H1484   1.110   1_455 S
C1199  H1237   1.109   .     S
C1199  C1200   1.536   .     S
C1199  H1238   1.110   .     S
C1200  C1201   1.527   .     S
C1200  H1236   1.110   .     S
C1200  H1235   1.111   .     S
C1201  H1232   1.110   .     S
C1201  H1233   1.111   .     S
C1201  H1491   1.111   1_455 S
C1202  H1244   1.092   .     S
C1202  H1246   1.113   .     S
C1202  C1203   1.523   .     S
C1203  H1242   1.112   .     S
C1203  H1243   1.109   .     S
C1203  C1205   1.514   .     S
C1204  C1216   1.519   .     S
C1204  C1219   1.420   .     A
C1205  H1240   1.109   .     S
C1205  H1241   1.104   .     S
C1205  H1239   1.107   .     S
C1206  C1207   1.534   .     S
C1206  H1255   1.113   .     S
C1206  H1254   1.110   .     S
C1207  H1252   1.110   .     S
C1208  H1249   1.111   .     S
C1208  H1251   1.111   .     S
C1208  C1077   1.527   1_465 S
C1208  H860    1.111   1_565 S
C1209  H1263   1.106   .     S
C1209  C1210   1.534   .     S
C1209  H1262   1.110   .     S
C1210  C1211   1.526   .     S
C1210  H1260   1.110   .     S
C1210  H871    1.108   1_565 S
C1211  H1258   1.111   .     S
C1211  H867    1.111   1_565 S
C1211  H999    1.111   1_565 S
C1212  H1271   1.113   .     S
C1213  H1269   1.107   .     S
C1213  C432    1.530   1_556 S
C1213  C1474   1.525   1_455 S
C1213  H488    1.111   1_556 S
C1214  H1266   1.108   .     S
C1214  H1265   1.107   .     S
C1214  H1264   1.111   .     S
C1214  C1343   1.525   .     S
C1215  N1289   1.367   .     A
C1215  H1280   1.080   .     S
C1216  H1277   1.108   .     S
C1216  C1217   1.537   .     S
C1216  H499    1.110   1_556 S
C1217  H1275   1.110   .     S
C1217  C1218   1.528   .     S
C1217  H1276   1.112   .     S
C1218  H1274   1.108   .     S
C1218  H1272   1.109   .     S
C1218  H493    1.111   1_556 S
C1219  N1290   1.362   .     A
C1219  H1281   1.075   .     S
C1220  C1222   1.407   .     A
C1220  H1282   1.069   .     S
C1220  N1289   1.360   .     A
C1221  H1283   1.078   .     S
C1221  N1290   1.362   .     A
C1222  H1284   1.082   .     S
H1224  C1328   1.110   .     S
H1231  C1331   1.111   .     S
H1245  C1455   1.111   1_455 S
H1253  C817    1.107   1_565 S
H1259  C1081   1.111   1_455 S
H1270  C432    1.111   1_556 S
N1289  Zn1300  2.006   .     S
N1290  Zn1299  2.006   .     S
O1291  Zn1299  2.002   .     S
O1292  Zn1300  2.002   .     S
O1293  Zn1300  1.983   .     S
O1294  Zn1299  1.983   .     S
O1295  Zn1299  1.938   .     S
O1296  Zn1300  1.938   .     S
O1297  Zn1300  1.947   .     S
O1298  Zn1299  1.947   .     S
C1301  O1423   1.286   .     A
C1301  O1421   1.283   .     A
C1301  C1314   1.433   .     S
C1302  C1304   1.405   .     A
C1302  H1415   1.083   .     S
C1302  C1351   1.405   .     A
C1303  C1323   1.419   .     A
C1303  C1352   1.405   .     A
C1304  C1334   1.422   .     A
C1304  C523    1.512   1_556 S
C1305  C1307   1.450   .     S
C1305  O1427   1.288   .     A
C1305  O1425   1.285   .     A
C1306  O1426   1.284   .     A
C1306  C1308   1.455   .     S
C1306  O1428   1.293   .     A
C1308  C1437   1.352   .     S
C1308  C1456   1.528   .     S
C1309  H1359   1.084   .     S
C1309  C1311   1.386   .     A
C1309  C1320   1.398   .     A
C1310  C1321   1.388   .     A
C1310  H1360   1.086   .     S
C1310  C1313   1.384   .     A
C1311  C1314   1.407   .     A
C1311  C1329   1.520   .     S
C1312  O1424   1.292   .     A
C1312  C1315   1.469   .     S
C1312  O1422   1.297   .     A
C1313  C1332   1.500   .     S
C1313  C1315   1.416   .     A
C1314  C1316   1.400   .     A
C1315  C1317   1.409   .     A
C1316  H1377   1.085   .     S
C1316  C1318   1.392   .     A
C1317  C1319   1.393   .     A
C1317  H1378   1.082   .     S
C1318  C1320   1.413   .     A
C1318  C1336   1.525   .     S
C1319  C1321   1.405   .     A
C1319  C1339   1.519   .     S
C1321  C930    1.441   1_565 S
C1322  H1416   1.108   .     S
C1322  H1408   1.107   .     S
C1322  C1437   1.528   .     S
C1322  C1454   1.530   .     S
C1323  C1345   1.419   .     A
C1323  C1342   1.513   .     S
C1324  H1386   1.112   .     S
C1324  H1397   1.102   .     S
C1325  H1353   1.111   .     S
C1325  H1364   1.105   .     S
C1325  C1454   1.526   .     S
C1325  H1505   1.111   .     S
C1326  H1358   1.111   .     S
C1326  H1357   1.112   .     S
C1327  H1355   1.112   .     S
C1327  H1356   1.110   .     S
C1327  C1456   1.537   .     S
C1327  C1458   1.528   .     S
C1328  H1417   1.109   .     S
C1328  H1418   1.111   .     S
C1329  H1367   1.109   .     S
C1329  C1330   1.536   .     S
C1329  H1368   1.110   .     S
C1330  C1331   1.527   .     S
C1330  H1366   1.110   .     S
C1330  H1365   1.111   .     S
C1331  H1362   1.110   .     S
C1331  H1363   1.111   .     S
C1332  H1374   1.092   .     S
C1332  H1376   1.113   .     S
C1332  C1333   1.523   .     S
C1333  H1372   1.112   .     S
C1333  H1373   1.109   .     S
C1333  C1335   1.514   .     S
C1334  C1346   1.519   .     S
C1334  C1349   1.420   .     A
C1335  H1370   1.109   .     S
C1335  H1371   1.104   .     S
C1335  H1369   1.107   .     S
C1336  C1337   1.534   .     S
C1336  H1385   1.113   .     S
C1336  H1384   1.110   .     S
C1337  H1382   1.110   .     S
C1338  H1379   1.111   .     S
C1338  H1381   1.111   .     S
C1338  C817    1.527   1_565 S
C1338  H990    1.111   1_565 S
C1339  H1393   1.106   .     S
C1339  C1340   1.534   .     S
C1339  H1392   1.110   .     S
C1340  C1341   1.526   .     S
C1340  H1390   1.110   .     S
C1340  H1001   1.108   1_565 S
C1341  H1388   1.111   .     S
C1341  H997    1.111   1_565 S
C1341  H1129   1.111   1_565 S
C1342  H1401   1.113   .     S
C1343  H1399   1.107   .     S
C1343  C562    1.530   1_556 S
C1343  H618    1.111   1_556 S
C1344  H1396   1.108   .     S
C1344  H1395   1.107   .     S
C1344  H1394   1.111   .     S
C1344  C1473   1.525   .     S
C1345  N1419   1.367   .     A
C1345  H1410   1.080   .     S
C1346  H1407   1.108   .     S
C1346  C1347   1.537   .     S
C1346  H629    1.110   1_556 S
C1347  H1405   1.110   .     S
C1347  C1348   1.528   .     S
C1347  H1406   1.112   .     S
C1348  H1404   1.108   .     S
C1348  H1402   1.109   .     S
C1348  H623    1.111   1_556 S
C1349  N1420   1.362   .     A
C1349  H1411   1.075   .     S
C1350  C1352   1.407   .     A
C1350  H1412   1.069   .     S
C1350  N1419   1.360   .     A
C1351  H1413   1.078   .     S
C1351  N1420   1.362   .     A
C1352  H1414   1.082   .     S
H1354  C1458   1.110   .     S
H1361  C1461   1.111   .     S
H1383  C947    1.107   1_565 S
H1400  C562    1.111   1_556 S
N1419  Zn1430  2.006   .     S
N1420  Zn1429  2.006   .     S
O1421  Zn1429  2.002   .     S
O1422  Zn1430  2.002   .     S
O1423  Zn1430  1.983   .     S
O1424  Zn1429  1.983   .     S
O1425  Zn1429  1.938   .     S
O1426  Zn1430  1.938   .     S
O1427  Zn1430  1.947   .     S
O1428  Zn1429  1.947   .     S
C1431  O1553   1.286   .     A
C1431  O1551   1.283   .     A
C1431  C1444   1.433   .     S
C1432  C1434   1.405   .     A
C1432  H1545   1.083   .     S
C1432  C1481   1.405   .     A
C1433  C1453   1.419   .     A
C1433  C1482   1.405   .     A
C1434  C1464   1.422   .     A
C1434  C653    1.512   1_556 S
C1435  C1437   1.450   .     S
C1435  O1557   1.288   .     A
C1435  O1555   1.285   .     A
C1436  O1556   1.284   .     A
C1436  C1438   1.455   .     S
C1436  O1558   1.293   .     A
C1438  C1177   1.352   1_655 S
C1438  C1196   1.528   1_655 S
C1439  H1489   1.084   .     S
C1439  C1441   1.386   .     A
C1439  C1450   1.398   .     A
C1440  C1451   1.388   .     A
C1440  H1490   1.086   .     S
C1440  C1443   1.384   .     A
C1441  C1444   1.407   .     A
C1441  C1459   1.520   .     S
C1442  O1554   1.292   .     A
C1442  C1445   1.469   .     S
C1442  O1552   1.297   .     A
C1443  C1462   1.500   .     S
C1443  C1445   1.416   .     A
C1444  C1446   1.400   .     A
C1445  C1447   1.409   .     A
C1446  H1507   1.085   .     S
C1446  C1448   1.392   .     A
C1447  C1449   1.393   .     A
C1447  H1508   1.082   .     S
C1448  C1450   1.413   .     A
C1448  C1466   1.525   .     S
C1449  C1451   1.405   .     A
C1449  C1469   1.519   .     S
C1451  C1060   1.441   1_565 S
C1452  H1546   1.108   .     S
C1452  H1538   1.107   .     S
C1452  C1177   1.528   1_655 S
C1452  C1194   1.530   1_655 S
C1453  C1475   1.419   .     A
C1453  C1472   1.513   .     S
C1454  H1516   1.112   .     S
C1454  H1527   1.102   .     S
C1455  H1483   1.111   .     S
C1455  H1494   1.105   .     S
C1455  C1194   1.526   1_655 S
C1455  H1245   1.111   1_655 S
C1456  H1488   1.111   .     S
C1456  H1487   1.112   .     S
C1457  H1485   1.112   .     S
C1457  H1486   1.110   .     S
C1457  C1196   1.537   1_655 S
C1457  C1198   1.528   1_655 S
C1458  H1547   1.109   .     S
C1458  H1548   1.111   .     S
C1459  H1497   1.109   .     S
C1459  C1460   1.536   .     S
C1459  H1498   1.110   .     S
C1460  C1461   1.527   .     S
C1460  H1496   1.110   .     S
C1460  H1495   1.111   .     S
C1461  H1492   1.110   .     S
C1461  H1493   1.111   .     S
C1462  H1504   1.092   .     S
C1462  H1506   1.113   .     S
C1462  C1463   1.523   .     S
C1463  H1502   1.112   .     S
C1463  H1503   1.109   .     S
C1463  C1465   1.514   .     S
C1464  C1476   1.519   .     S
C1464  C1479   1.420   .     A
C1465  H1500   1.109   .     S
C1465  H1501   1.104   .     S
C1465  H1499   1.107   .     S
C1466  C1467   1.534   .     S
C1466  H1515   1.113   .     S
C1466  H1514   1.110   .     S
C1467  H1512   1.110   .     S
C1467  C818    1.527   1_655 S
C1468  H1509   1.111   .     S
C1468  H1511   1.111   .     S
C1468  C947    1.527   1_565 S
C1468  H1120   1.111   1_565 S
C1469  H1523   1.106   .     S
C1469  C1470   1.534   .     S
C1469  H1522   1.110   .     S
C1470  C1471   1.526   .     S
C1470  H1520   1.110   .     S
C1470  H1131   1.108   1_565 S
C1471  H1518   1.111   .     S
C1471  H1127   1.111   1_565 S
C1471  H869    1.111   1_665 S
C1472  H1531   1.113   .     S
C1473  H1529   1.107   .     S
C1473  C692    1.530   1_556 S
C1473  H748    1.111   1_556 S
C1474  H1526   1.108   .     S
C1474  H1525   1.107   .     S
C1474  H1524   1.111   .     S
C1474  C1213   1.525   1_655 S
C1475  N1549   1.367   .     A
C1475  H1540   1.080   .     S
C1476  H1537   1.108   .     S
C1476  C1477   1.537   .     S
C1476  H759    1.110   1_556 S
C1477  H1535   1.110   .     S
C1477  C1478   1.528   .     S
C1477  H1536   1.112   .     S
C1478  H1534   1.108   .     S
C1478  H1532   1.109   .     S
C1478  H753    1.111   1_556 S
C1479  N1550   1.362   .     A
C1479  H1541   1.075   .     S
C1480  C1482   1.407   .     A
C1480  H1542   1.069   .     S
C1480  N1549   1.360   .     A
C1481  H1543   1.078   .     S
C1481  N1550   1.362   .     A
C1482  H1544   1.082   .     S
H1484  C1198   1.110   1_655 S
H1491  C1201   1.111   1_655 S
H1513  C1077   1.107   1_565 S
H1530  C692    1.111   1_556 S
N1549  Zn1560  2.006   .     S
N1550  Zn1559  2.006   .     S
O1551  Zn1559  2.002   .     S
O1552  Zn1560  2.002   .     S
O1553  Zn1560  1.983   .     S
O1554  Zn1559  1.983   .     S
O1555  Zn1559  1.938   .     S
O1556  Zn1560  1.938   .     S
O1557  Zn1560  1.947   .     S
O1558  Zn1559  1.947   .     S
