data_str_m3_o1_o17_pcu_sym.21
_audit_creation_date              2020-01-03
_audit_creation_method            'Materials Studio'
_symmetry_space_group_name_H-M    'P1'
_symmetry_Int_Tables_number       1
_symmetry_cell_setting            triclinic
loop_
_symmetry_equiv_pos_as_xyz
  x,y,z
_cell_length_a                    32.1559
_cell_length_b                    29.4686
_cell_length_c                    30.0475
_cell_angle_alpha                 90.0914
_cell_angle_beta                  90.1166
_cell_angle_gamma                 89.9881
loop_
_atom_site_label
_atom_site_type_symbol
_atom_site_fract_x
_atom_site_fract_y
_atom_site_fract_z
_atom_site_U_iso_or_equiv
_atom_site_adp_type
_atom_site_occupancy
C1     C     0.08661   0.16667   0.24997   0.00000  Uiso   1.00
C2     C     0.04247   0.16667   0.24996   0.00000  Uiso   1.00
C3     C     0.19160   0.02404   0.27867   0.00000  Uiso   1.00
C4     C     0.14173   0.30929   0.22133   0.00000  Uiso   1.00
C5     C     0.14173   0.02397   0.22133   0.00000  Uiso   1.00
C6     C     0.19160   0.30937   0.27867   0.00000  Uiso   1.00
C7     C     0.16679   0.16663   0.16327   0.00000  Uiso   1.00
C8     C     0.16653   0.16671   0.33673   0.00000  Uiso   1.00
C9     C     0.17326   0.20714   0.40749   0.00000  Uiso   1.00
C10    C     0.16003   0.12619   0.09251   0.00000  Uiso   1.00
C11    C     0.16580   0.16684   0.38464   0.00000  Uiso   1.00
C12    C     0.24673   0.16666   0.25003   0.00000  Uiso   1.00
C13    C     0.16749   0.16650   0.11536   0.00000  Uiso   1.00
C14    C     0.15767   0.12666   0.40734   0.00000  Uiso   1.00
C15    C     0.17558   0.20669   0.09266   0.00000  Uiso   1.00
C16    C     0.15625   0.12624   0.45358   0.00000  Uiso   1.00
C17    C     0.17698   0.20712   0.04642   0.00000  Uiso   1.00
C18    C     0.16588   0.16679   0.47686   0.00000  Uiso   1.00
C19    C     0.16735   0.16656   0.02314   0.00000  Uiso   1.00
C20    C     0.17405   0.20760   0.45365   0.00000  Uiso   1.00
C21    C     0.15920   0.12574   0.04635   0.00000  Uiso   1.00
C22    C     0.14667   0.08587   0.47689   0.00000  Uiso   1.00
C23    C     0.14955   0.08534   0.02354   0.00000  Uiso   1.00
C24    C     0.18653   0.24749   0.02311   0.00000  Uiso   1.00
C25    C     0.18366   0.24802   0.47646   0.00000  Uiso   1.00
C26    C     0.02129   0.12615   0.24158   0.00000  Uiso   1.00
C27    C     0.31204   0.20718   0.25842   0.00000  Uiso   1.00
C28    C     0.31202   0.12614   0.24163   0.00000  Uiso   1.00
C29    C     0.02131   0.20719   0.25837   0.00000  Uiso   1.00
C30    C     0.29086   0.16666   0.25004   0.00000  Uiso   1.00
H31    H     0.17958   0.23794   0.38903   0.00000  Uiso   1.00
H32    H     0.12182   0.29102   0.19844   0.00000  Uiso   1.00
H33    H     0.12182   0.04217   0.19844   0.00000  Uiso   1.00
H34    H     0.21152   0.29116   0.30156   0.00000  Uiso   1.00
H35    H     0.11449   0.05535   0.43142   0.00000  Uiso   1.00
H36    H     0.21871   0.27804   0.06857   0.00000  Uiso   1.00
H37    H     0.13626   0.02044   0.02781   0.00000  Uiso   1.00
H38    H     0.19677   0.31295   0.47220   0.00000  Uiso   1.00
H39    H     0.15373   0.09539   0.11097   0.00000  Uiso   1.00
H40    H     0.15299   0.09575   0.38852   0.00000  Uiso   1.00
H41    H     0.18026   0.23760   0.11148   0.00000  Uiso   1.00
H42    H     0.03751   0.09467   0.23474   0.00000  Uiso   1.00
H43    H     0.29582   0.23866   0.26526   0.00000  Uiso   1.00
H44    H     0.29579   0.09465   0.23483   0.00000  Uiso   1.00
H45    H     0.03754   0.23868   0.26517   0.00000  Uiso   1.00
H46    H     0.21152   0.04231   0.30156   0.00000  Uiso   1.00
N47    N     0.16667   0.28573   0.25000   0.00000  Uiso   1.00
N48    N     0.16667   0.04760   0.25000   0.00000  Uiso   1.00
O49    O     0.10559   0.20487   0.24999   0.00000  Uiso   1.00
O50    O     0.19882   0.28660   0.04481   0.00000  Uiso   1.00
O51    O     0.14182   0.04636   0.04792   0.00000  Uiso   1.00
O52    O     0.19138   0.28700   0.45208   0.00000  Uiso   1.00
O53    O     0.22774   0.12846   0.25000   0.00000  Uiso   1.00
O54    O     0.22774   0.20487   0.25000   0.00000  Uiso   1.00
O55    O     0.10559   0.12846   0.24999   0.00000  Uiso   1.00
O56    O     0.16666   0.20489   0.18392   0.00000  Uiso   1.00
O57    O     0.16667   0.12844   0.31607   0.00000  Uiso   1.00
O58    O     0.16667   0.20489   0.31607   0.00000  Uiso   1.00
O59    O     0.16666   0.12844   0.18392   0.00000  Uiso   1.00
O60    O     0.13436   0.04677   0.45519   0.00000  Uiso   1.00
Zn61   Zn    0.16667   0.21771   0.25000   0.00000  Uiso   1.00
Zn62   Zn    0.16667   0.11563   0.25000   0.00000  Uiso   1.00
C63    C     0.41994   0.16667   0.24997   0.00000  Uiso   1.00
C64    C     0.37580   0.16667   0.24996   0.00000  Uiso   1.00
C65    C     0.52493   0.02404   0.27867   0.00000  Uiso   1.00
C66    C     0.47507   0.30929   0.22133   0.00000  Uiso   1.00
C67    C     0.47507   0.02397   0.22133   0.00000  Uiso   1.00
C68    C     0.52493   0.30937   0.27867   0.00000  Uiso   1.00
C69    C     0.50013   0.16663   0.16327   0.00000  Uiso   1.00
C70    C     0.49987   0.16671   0.33673   0.00000  Uiso   1.00
C71    C     0.50659   0.20714   0.40749   0.00000  Uiso   1.00
C72    C     0.49336   0.12619   0.09251   0.00000  Uiso   1.00
C73    C     0.49914   0.16684   0.38464   0.00000  Uiso   1.00
C74    C     0.58006   0.16666   0.25003   0.00000  Uiso   1.00
C75    C     0.50083   0.16650   0.11536   0.00000  Uiso   1.00
C76    C     0.49101   0.12666   0.40734   0.00000  Uiso   1.00
C77    C     0.50892   0.20669   0.09266   0.00000  Uiso   1.00
C78    C     0.48958   0.12624   0.45358   0.00000  Uiso   1.00
C79    C     0.51032   0.20712   0.04642   0.00000  Uiso   1.00
C80    C     0.49922   0.16679   0.47686   0.00000  Uiso   1.00
C81    C     0.50069   0.16656   0.02314   0.00000  Uiso   1.00
C82    C     0.50738   0.20760   0.45365   0.00000  Uiso   1.00
C83    C     0.49253   0.12574   0.04635   0.00000  Uiso   1.00
C84    C     0.48000   0.08587   0.47689   0.00000  Uiso   1.00
C85    C     0.48288   0.08534   0.02354   0.00000  Uiso   1.00
C86    C     0.51987   0.24749   0.02311   0.00000  Uiso   1.00
C87    C     0.51700   0.24802   0.47646   0.00000  Uiso   1.00
C88    C     0.35463   0.12615   0.24158   0.00000  Uiso   1.00
C89    C     0.64537   0.20718   0.25842   0.00000  Uiso   1.00
C90    C     0.64536   0.12614   0.24163   0.00000  Uiso   1.00
C91    C     0.35464   0.20719   0.25837   0.00000  Uiso   1.00
C92    C     0.62420   0.16666   0.25004   0.00000  Uiso   1.00
H93    H     0.51291   0.23794   0.38903   0.00000  Uiso   1.00
H94    H     0.45515   0.29102   0.19844   0.00000  Uiso   1.00
H95    H     0.45515   0.04217   0.19844   0.00000  Uiso   1.00
H96    H     0.54485   0.29116   0.30156   0.00000  Uiso   1.00
H97    H     0.44782   0.05535   0.43142   0.00000  Uiso   1.00
H98    H     0.55204   0.27804   0.06857   0.00000  Uiso   1.00
H99    H     0.46959   0.02044   0.02781   0.00000  Uiso   1.00
H100   H     0.53010   0.31295   0.47220   0.00000  Uiso   1.00
H101   H     0.48707   0.09539   0.11097   0.00000  Uiso   1.00
H102   H     0.48632   0.09575   0.38852   0.00000  Uiso   1.00
H103   H     0.51360   0.23760   0.11148   0.00000  Uiso   1.00
H104   H     0.37084   0.09467   0.23474   0.00000  Uiso   1.00
H105   H     0.62916   0.23866   0.26526   0.00000  Uiso   1.00
H106   H     0.62913   0.09465   0.23483   0.00000  Uiso   1.00
H107   H     0.37087   0.23868   0.26517   0.00000  Uiso   1.00
H108   H     0.54485   0.04231   0.30156   0.00000  Uiso   1.00
N109   N     0.50000   0.28573   0.25000   0.00000  Uiso   1.00
N110   N     0.50000   0.04760   0.25000   0.00000  Uiso   1.00
O111   O     0.43892   0.20487   0.24999   0.00000  Uiso   1.00
O112   O     0.53215   0.28660   0.04481   0.00000  Uiso   1.00
O113   O     0.47516   0.04636   0.04792   0.00000  Uiso   1.00
O114   O     0.52471   0.28700   0.45208   0.00000  Uiso   1.00
O115   O     0.56108   0.12846   0.25000   0.00000  Uiso   1.00
O116   O     0.56108   0.20487   0.25000   0.00000  Uiso   1.00
O117   O     0.43892   0.12846   0.24999   0.00000  Uiso   1.00
O118   O     0.49999   0.20489   0.18392   0.00000  Uiso   1.00
O119   O     0.50001   0.12844   0.31607   0.00000  Uiso   1.00
O120   O     0.50001   0.20489   0.31607   0.00000  Uiso   1.00
O121   O     0.49999   0.12844   0.18392   0.00000  Uiso   1.00
O122   O     0.46769   0.04677   0.45519   0.00000  Uiso   1.00
Zn123  Zn    0.50000   0.21771   0.25000   0.00000  Uiso   1.00
Zn124  Zn    0.50000   0.11563   0.25000   0.00000  Uiso   1.00
C125   C     0.75327   0.16667   0.24997   0.00000  Uiso   1.00
C126   C     0.70913   0.16667   0.24996   0.00000  Uiso   1.00
C127   C     0.85827   0.02404   0.27867   0.00000  Uiso   1.00
C128   C     0.80840   0.30929   0.22133   0.00000  Uiso   1.00
C129   C     0.80840   0.02397   0.22133   0.00000  Uiso   1.00
C130   C     0.85827   0.30937   0.27867   0.00000  Uiso   1.00
C131   C     0.83346   0.16663   0.16327   0.00000  Uiso   1.00
C132   C     0.83320   0.16671   0.33673   0.00000  Uiso   1.00
C133   C     0.83992   0.20714   0.40749   0.00000  Uiso   1.00
C134   C     0.82670   0.12619   0.09251   0.00000  Uiso   1.00
C135   C     0.83247   0.16684   0.38464   0.00000  Uiso   1.00
C136   C     0.91339   0.16666   0.25003   0.00000  Uiso   1.00
C137   C     0.83416   0.16650   0.11536   0.00000  Uiso   1.00
C138   C     0.82434   0.12666   0.40734   0.00000  Uiso   1.00
C139   C     0.84225   0.20669   0.09266   0.00000  Uiso   1.00
C140   C     0.82291   0.12624   0.45358   0.00000  Uiso   1.00
C141   C     0.84365   0.20712   0.04642   0.00000  Uiso   1.00
C142   C     0.83255   0.16679   0.47686   0.00000  Uiso   1.00
C143   C     0.83402   0.16656   0.02314   0.00000  Uiso   1.00
C144   C     0.84071   0.20760   0.45365   0.00000  Uiso   1.00
C145   C     0.82587   0.12574   0.04635   0.00000  Uiso   1.00
C146   C     0.81334   0.08587   0.47689   0.00000  Uiso   1.00
C147   C     0.81622   0.08534   0.02354   0.00000  Uiso   1.00
C148   C     0.85320   0.24749   0.02311   0.00000  Uiso   1.00
C149   C     0.85033   0.24802   0.47646   0.00000  Uiso   1.00
C150   C     0.68796   0.12615   0.24158   0.00000  Uiso   1.00
C151   C     0.97871   0.20718   0.25842   0.00000  Uiso   1.00
C152   C     0.97869   0.12614   0.24163   0.00000  Uiso   1.00
C153   C     0.68798   0.20719   0.25837   0.00000  Uiso   1.00
C154   C     0.95753   0.16666   0.25004   0.00000  Uiso   1.00
H155   H     0.84624   0.23794   0.38903   0.00000  Uiso   1.00
H156   H     0.78848   0.29102   0.19844   0.00000  Uiso   1.00
H157   H     0.78848   0.04217   0.19844   0.00000  Uiso   1.00
H158   H     0.87818   0.29116   0.30156   0.00000  Uiso   1.00
H159   H     0.78116   0.05535   0.43142   0.00000  Uiso   1.00
H160   H     0.88537   0.27804   0.06857   0.00000  Uiso   1.00
H161   H     0.80293   0.02044   0.02781   0.00000  Uiso   1.00
H162   H     0.86344   0.31295   0.47220   0.00000  Uiso   1.00
H163   H     0.82040   0.09539   0.11097   0.00000  Uiso   1.00
H164   H     0.81965   0.09575   0.38852   0.00000  Uiso   1.00
H165   H     0.84693   0.23760   0.11148   0.00000  Uiso   1.00
H166   H     0.70418   0.09467   0.23474   0.00000  Uiso   1.00
H167   H     0.96249   0.23866   0.26526   0.00000  Uiso   1.00
H168   H     0.96246   0.09465   0.23483   0.00000  Uiso   1.00
H169   H     0.70421   0.23868   0.26517   0.00000  Uiso   1.00
H170   H     0.87818   0.04231   0.30156   0.00000  Uiso   1.00
N171   N     0.83333   0.28573   0.25000   0.00000  Uiso   1.00
N172   N     0.83333   0.04760   0.25000   0.00000  Uiso   1.00
O173   O     0.77226   0.20487   0.24999   0.00000  Uiso   1.00
O174   O     0.86548   0.28660   0.04481   0.00000  Uiso   1.00
O175   O     0.80849   0.04636   0.04792   0.00000  Uiso   1.00
O176   O     0.85805   0.28700   0.45208   0.00000  Uiso   1.00
O177   O     0.89441   0.12846   0.25000   0.00000  Uiso   1.00
O178   O     0.89441   0.20487   0.25000   0.00000  Uiso   1.00
O179   O     0.77226   0.12846   0.24999   0.00000  Uiso   1.00
O180   O     0.83333   0.20489   0.18392   0.00000  Uiso   1.00
O181   O     0.83334   0.12844   0.31607   0.00000  Uiso   1.00
O182   O     0.83334   0.20489   0.31607   0.00000  Uiso   1.00
O183   O     0.83333   0.12844   0.18392   0.00000  Uiso   1.00
O184   O     0.80102   0.04677   0.45519   0.00000  Uiso   1.00
Zn185  Zn    0.83333   0.21771   0.25000   0.00000  Uiso   1.00
Zn186  Zn    0.83333   0.11563   0.25000   0.00000  Uiso   1.00
C187   C     0.08661   0.50000   0.24997   0.00000  Uiso   1.00
C188   C     0.04247   0.50001   0.24996   0.00000  Uiso   1.00
C189   C     0.19160   0.35738   0.27867   0.00000  Uiso   1.00
C190   C     0.14173   0.64262   0.22133   0.00000  Uiso   1.00
C191   C     0.14173   0.35730   0.22133   0.00000  Uiso   1.00
C192   C     0.19160   0.64270   0.27867   0.00000  Uiso   1.00
C193   C     0.16679   0.49996   0.16327   0.00000  Uiso   1.00
C194   C     0.16653   0.50004   0.33673   0.00000  Uiso   1.00
C195   C     0.17326   0.54048   0.40749   0.00000  Uiso   1.00
C196   C     0.16003   0.45953   0.09251   0.00000  Uiso   1.00
C197   C     0.16580   0.50017   0.38464   0.00000  Uiso   1.00
C198   C     0.24673   0.50000   0.25003   0.00000  Uiso   1.00
C199   C     0.16749   0.49984   0.11536   0.00000  Uiso   1.00
C200   C     0.15767   0.45999   0.40734   0.00000  Uiso   1.00
C201   C     0.17558   0.54003   0.09266   0.00000  Uiso   1.00
C202   C     0.15625   0.45957   0.45358   0.00000  Uiso   1.00
C203   C     0.17698   0.54045   0.04642   0.00000  Uiso   1.00
C204   C     0.16588   0.50013   0.47686   0.00000  Uiso   1.00
C205   C     0.16735   0.49989   0.02314   0.00000  Uiso   1.00
C206   C     0.17405   0.54094   0.45365   0.00000  Uiso   1.00
C207   C     0.15920   0.45908   0.04635   0.00000  Uiso   1.00
C208   C     0.14667   0.41921   0.47689   0.00000  Uiso   1.00
C209   C     0.14955   0.41867   0.02354   0.00000  Uiso   1.00
C210   C     0.18653   0.58082   0.02311   0.00000  Uiso   1.00
C211   C     0.18366   0.58135   0.47646   0.00000  Uiso   1.00
C212   C     0.02129   0.45949   0.24158   0.00000  Uiso   1.00
C213   C     0.31204   0.54051   0.25842   0.00000  Uiso   1.00
C214   C     0.31202   0.45948   0.24163   0.00000  Uiso   1.00
C215   C     0.02131   0.54052   0.25837   0.00000  Uiso   1.00
C216   C     0.29086   0.49999   0.25004   0.00000  Uiso   1.00
H217   H     0.17958   0.57127   0.38903   0.00000  Uiso   1.00
H218   H     0.12182   0.62435   0.19844   0.00000  Uiso   1.00
H219   H     0.12182   0.37551   0.19844   0.00000  Uiso   1.00
H220   H     0.21152   0.62449   0.30156   0.00000  Uiso   1.00
H221   H     0.11449   0.38868   0.43142   0.00000  Uiso   1.00
H222   H     0.21871   0.61138   0.06857   0.00000  Uiso   1.00
H223   H     0.13626   0.35378   0.02781   0.00000  Uiso   1.00
H224   H     0.19677   0.64628   0.47220   0.00000  Uiso   1.00
H225   H     0.15373   0.42872   0.11097   0.00000  Uiso   1.00
H226   H     0.15299   0.42908   0.38852   0.00000  Uiso   1.00
H227   H     0.18026   0.57093   0.11148   0.00000  Uiso   1.00
H228   H     0.03751   0.42800   0.23474   0.00000  Uiso   1.00
H229   H     0.29582   0.57200   0.26526   0.00000  Uiso   1.00
H230   H     0.29579   0.42799   0.23483   0.00000  Uiso   1.00
H231   H     0.03754   0.57201   0.26517   0.00000  Uiso   1.00
H232   H     0.21152   0.37565   0.30156   0.00000  Uiso   1.00
N233   N     0.16667   0.61907   0.25000   0.00000  Uiso   1.00
N234   N     0.16667   0.38093   0.25000   0.00000  Uiso   1.00
O235   O     0.10559   0.53821   0.24999   0.00000  Uiso   1.00
O236   O     0.19882   0.61993   0.04481   0.00000  Uiso   1.00
O237   O     0.14182   0.37969   0.04792   0.00000  Uiso   1.00
O238   O     0.19138   0.62033   0.45208   0.00000  Uiso   1.00
O239   O     0.22774   0.46179   0.25000   0.00000  Uiso   1.00
O240   O     0.22774   0.53821   0.25000   0.00000  Uiso   1.00
O241   O     0.10559   0.46179   0.24999   0.00000  Uiso   1.00
O242   O     0.16666   0.53823   0.18392   0.00000  Uiso   1.00
O243   O     0.16667   0.46177   0.31607   0.00000  Uiso   1.00
O244   O     0.16667   0.53823   0.31607   0.00000  Uiso   1.00
O245   O     0.16666   0.46177   0.18392   0.00000  Uiso   1.00
O246   O     0.13436   0.38010   0.45519   0.00000  Uiso   1.00
Zn247  Zn    0.16667   0.55104   0.25000   0.00000  Uiso   1.00
Zn248  Zn    0.16667   0.44896   0.25000   0.00000  Uiso   1.00
C249   C     0.41994   0.50000   0.24997   0.00000  Uiso   1.00
C250   C     0.37580   0.50001   0.24996   0.00000  Uiso   1.00
C251   C     0.52493   0.35738   0.27867   0.00000  Uiso   1.00
C252   C     0.47507   0.64262   0.22133   0.00000  Uiso   1.00
C253   C     0.47507   0.35730   0.22133   0.00000  Uiso   1.00
C254   C     0.52493   0.64270   0.27867   0.00000  Uiso   1.00
C255   C     0.50013   0.49996   0.16327   0.00000  Uiso   1.00
C256   C     0.49987   0.50004   0.33673   0.00000  Uiso   1.00
C257   C     0.50659   0.54048   0.40749   0.00000  Uiso   1.00
C258   C     0.49336   0.45953   0.09251   0.00000  Uiso   1.00
C259   C     0.49914   0.50017   0.38464   0.00000  Uiso   1.00
C260   C     0.58006   0.50000   0.25003   0.00000  Uiso   1.00
C261   C     0.50083   0.49984   0.11536   0.00000  Uiso   1.00
C262   C     0.49101   0.45999   0.40734   0.00000  Uiso   1.00
C263   C     0.50892   0.54003   0.09266   0.00000  Uiso   1.00
C264   C     0.48958   0.45957   0.45358   0.00000  Uiso   1.00
C265   C     0.51032   0.54045   0.04642   0.00000  Uiso   1.00
C266   C     0.49922   0.50013   0.47686   0.00000  Uiso   1.00
C267   C     0.50069   0.49989   0.02314   0.00000  Uiso   1.00
C268   C     0.50738   0.54094   0.45365   0.00000  Uiso   1.00
C269   C     0.49253   0.45908   0.04635   0.00000  Uiso   1.00
C270   C     0.48000   0.41921   0.47689   0.00000  Uiso   1.00
C271   C     0.48288   0.41867   0.02354   0.00000  Uiso   1.00
C272   C     0.51987   0.58082   0.02311   0.00000  Uiso   1.00
C273   C     0.51700   0.58135   0.47646   0.00000  Uiso   1.00
C274   C     0.35463   0.45949   0.24158   0.00000  Uiso   1.00
C275   C     0.64537   0.54051   0.25842   0.00000  Uiso   1.00
C276   C     0.64536   0.45948   0.24163   0.00000  Uiso   1.00
C277   C     0.35464   0.54052   0.25837   0.00000  Uiso   1.00
C278   C     0.62420   0.49999   0.25004   0.00000  Uiso   1.00
H279   H     0.51291   0.57127   0.38903   0.00000  Uiso   1.00
H280   H     0.45515   0.62435   0.19844   0.00000  Uiso   1.00
H281   H     0.45515   0.37551   0.19844   0.00000  Uiso   1.00
H282   H     0.54485   0.62449   0.30156   0.00000  Uiso   1.00
H283   H     0.44782   0.38868   0.43142   0.00000  Uiso   1.00
H284   H     0.55204   0.61138   0.06857   0.00000  Uiso   1.00
H285   H     0.46959   0.35378   0.02781   0.00000  Uiso   1.00
H286   H     0.53010   0.64628   0.47220   0.00000  Uiso   1.00
H287   H     0.48707   0.42872   0.11097   0.00000  Uiso   1.00
H288   H     0.48632   0.42908   0.38852   0.00000  Uiso   1.00
H289   H     0.51360   0.57093   0.11148   0.00000  Uiso   1.00
H290   H     0.37084   0.42800   0.23474   0.00000  Uiso   1.00
H291   H     0.62916   0.57200   0.26526   0.00000  Uiso   1.00
H292   H     0.62913   0.42799   0.23483   0.00000  Uiso   1.00
H293   H     0.37087   0.57201   0.26517   0.00000  Uiso   1.00
H294   H     0.54485   0.37565   0.30156   0.00000  Uiso   1.00
N295   N     0.50000   0.61907   0.25000   0.00000  Uiso   1.00
N296   N     0.50000   0.38093   0.25000   0.00000  Uiso   1.00
O297   O     0.43892   0.53821   0.24999   0.00000  Uiso   1.00
O298   O     0.53215   0.61993   0.04481   0.00000  Uiso   1.00
O299   O     0.47516   0.37969   0.04792   0.00000  Uiso   1.00
O300   O     0.52471   0.62033   0.45208   0.00000  Uiso   1.00
O301   O     0.56108   0.46179   0.25000   0.00000  Uiso   1.00
O302   O     0.56108   0.53821   0.25000   0.00000  Uiso   1.00
O303   O     0.43892   0.46179   0.24999   0.00000  Uiso   1.00
O304   O     0.49999   0.53823   0.18392   0.00000  Uiso   1.00
O305   O     0.50001   0.46177   0.31607   0.00000  Uiso   1.00
O306   O     0.50001   0.53823   0.31607   0.00000  Uiso   1.00
O307   O     0.49999   0.46177   0.18392   0.00000  Uiso   1.00
O308   O     0.46769   0.38010   0.45519   0.00000  Uiso   1.00
Zn309  Zn    0.50000   0.55104   0.25000   0.00000  Uiso   1.00
Zn310  Zn    0.50000   0.44896   0.25000   0.00000  Uiso   1.00
C311   C     0.75327   0.50000   0.24997   0.00000  Uiso   1.00
C312   C     0.70913   0.50001   0.24996   0.00000  Uiso   1.00
C313   C     0.85827   0.35738   0.27867   0.00000  Uiso   1.00
C314   C     0.80840   0.64262   0.22133   0.00000  Uiso   1.00
C315   C     0.80840   0.35730   0.22133   0.00000  Uiso   1.00
C316   C     0.85827   0.64270   0.27867   0.00000  Uiso   1.00
C317   C     0.83346   0.49996   0.16327   0.00000  Uiso   1.00
C318   C     0.83320   0.50004   0.33673   0.00000  Uiso   1.00
C319   C     0.83992   0.54048   0.40749   0.00000  Uiso   1.00
C320   C     0.82670   0.45953   0.09251   0.00000  Uiso   1.00
C321   C     0.83247   0.50017   0.38464   0.00000  Uiso   1.00
C322   C     0.91339   0.50000   0.25003   0.00000  Uiso   1.00
C323   C     0.83416   0.49984   0.11536   0.00000  Uiso   1.00
C324   C     0.82434   0.45999   0.40734   0.00000  Uiso   1.00
C325   C     0.84225   0.54003   0.09266   0.00000  Uiso   1.00
C326   C     0.82291   0.45957   0.45358   0.00000  Uiso   1.00
C327   C     0.84365   0.54045   0.04642   0.00000  Uiso   1.00
C328   C     0.83255   0.50013   0.47686   0.00000  Uiso   1.00
C329   C     0.83402   0.49989   0.02314   0.00000  Uiso   1.00
C330   C     0.84071   0.54094   0.45365   0.00000  Uiso   1.00
C331   C     0.82587   0.45908   0.04635   0.00000  Uiso   1.00
C332   C     0.81334   0.41921   0.47689   0.00000  Uiso   1.00
C333   C     0.81622   0.41867   0.02354   0.00000  Uiso   1.00
C334   C     0.85320   0.58082   0.02311   0.00000  Uiso   1.00
C335   C     0.85033   0.58135   0.47646   0.00000  Uiso   1.00
C336   C     0.68796   0.45949   0.24158   0.00000  Uiso   1.00
C337   C     0.97871   0.54051   0.25842   0.00000  Uiso   1.00
C338   C     0.97869   0.45948   0.24163   0.00000  Uiso   1.00
C339   C     0.68798   0.54052   0.25837   0.00000  Uiso   1.00
C340   C     0.95753   0.49999   0.25004   0.00000  Uiso   1.00
H341   H     0.84624   0.57127   0.38903   0.00000  Uiso   1.00
H342   H     0.78848   0.62435   0.19844   0.00000  Uiso   1.00
H343   H     0.78848   0.37551   0.19844   0.00000  Uiso   1.00
H344   H     0.87818   0.62449   0.30156   0.00000  Uiso   1.00
H345   H     0.78116   0.38868   0.43142   0.00000  Uiso   1.00
H346   H     0.88537   0.61138   0.06857   0.00000  Uiso   1.00
H347   H     0.80293   0.35378   0.02781   0.00000  Uiso   1.00
H348   H     0.86344   0.64628   0.47220   0.00000  Uiso   1.00
H349   H     0.82040   0.42872   0.11097   0.00000  Uiso   1.00
H350   H     0.81965   0.42908   0.38852   0.00000  Uiso   1.00
H351   H     0.84693   0.57093   0.11148   0.00000  Uiso   1.00
H352   H     0.70418   0.42800   0.23474   0.00000  Uiso   1.00
H353   H     0.96249   0.57200   0.26526   0.00000  Uiso   1.00
H354   H     0.96246   0.42799   0.23483   0.00000  Uiso   1.00
H355   H     0.70421   0.57201   0.26517   0.00000  Uiso   1.00
H356   H     0.87818   0.37565   0.30156   0.00000  Uiso   1.00
N357   N     0.83333   0.61907   0.25000   0.00000  Uiso   1.00
N358   N     0.83333   0.38093   0.25000   0.00000  Uiso   1.00
O359   O     0.77226   0.53821   0.24999   0.00000  Uiso   1.00
O360   O     0.86548   0.61993   0.04481   0.00000  Uiso   1.00
O361   O     0.80849   0.37969   0.04792   0.00000  Uiso   1.00
O362   O     0.85805   0.62033   0.45208   0.00000  Uiso   1.00
O363   O     0.89441   0.46179   0.25000   0.00000  Uiso   1.00
O364   O     0.89441   0.53821   0.25000   0.00000  Uiso   1.00
O365   O     0.77226   0.46179   0.24999   0.00000  Uiso   1.00
O366   O     0.83333   0.53823   0.18392   0.00000  Uiso   1.00
O367   O     0.83334   0.46177   0.31607   0.00000  Uiso   1.00
O368   O     0.83334   0.53823   0.31607   0.00000  Uiso   1.00
O369   O     0.83333   0.46177   0.18392   0.00000  Uiso   1.00
O370   O     0.80102   0.38010   0.45519   0.00000  Uiso   1.00
Zn371  Zn    0.83333   0.55104   0.25000   0.00000  Uiso   1.00
Zn372  Zn    0.83333   0.44896   0.25000   0.00000  Uiso   1.00
C373   C     0.08661   0.83334   0.24997   0.00000  Uiso   1.00
C374   C     0.04247   0.83334   0.24996   0.00000  Uiso   1.00
C375   C     0.19160   0.69071   0.27867   0.00000  Uiso   1.00
C376   C     0.14173   0.97596   0.22133   0.00000  Uiso   1.00
C377   C     0.14173   0.69063   0.22133   0.00000  Uiso   1.00
C378   C     0.19160   0.97603   0.27867   0.00000  Uiso   1.00
C379   C     0.16679   0.83329   0.16327   0.00000  Uiso   1.00
C380   C     0.16653   0.83337   0.33673   0.00000  Uiso   1.00
C381   C     0.17326   0.87381   0.40749   0.00000  Uiso   1.00
C382   C     0.16003   0.79286   0.09251   0.00000  Uiso   1.00
C383   C     0.16580   0.83350   0.38464   0.00000  Uiso   1.00
C384   C     0.24673   0.83333   0.25003   0.00000  Uiso   1.00
C385   C     0.16749   0.83317   0.11536   0.00000  Uiso   1.00
C386   C     0.15767   0.79332   0.40734   0.00000  Uiso   1.00
C387   C     0.17558   0.87336   0.09266   0.00000  Uiso   1.00
C388   C     0.15625   0.79290   0.45358   0.00000  Uiso   1.00
C389   C     0.17698   0.87378   0.04642   0.00000  Uiso   1.00
C390   C     0.16588   0.83346   0.47686   0.00000  Uiso   1.00
C391   C     0.16735   0.83323   0.02314   0.00000  Uiso   1.00
C392   C     0.17405   0.87427   0.45365   0.00000  Uiso   1.00
C393   C     0.15920   0.79241   0.04635   0.00000  Uiso   1.00
C394   C     0.14667   0.75254   0.47689   0.00000  Uiso   1.00
C395   C     0.14955   0.75201   0.02354   0.00000  Uiso   1.00
C396   C     0.18653   0.91415   0.02311   0.00000  Uiso   1.00
C397   C     0.18366   0.91468   0.47646   0.00000  Uiso   1.00
C398   C     0.02129   0.79282   0.24158   0.00000  Uiso   1.00
C399   C     0.31204   0.87385   0.25842   0.00000  Uiso   1.00
C400   C     0.31202   0.79281   0.24163   0.00000  Uiso   1.00
C401   C     0.02131   0.87386   0.25837   0.00000  Uiso   1.00
C402   C     0.29086   0.83333   0.25004   0.00000  Uiso   1.00
H403   H     0.17958   0.90461   0.38903   0.00000  Uiso   1.00
H404   H     0.12182   0.95769   0.19844   0.00000  Uiso   1.00
H405   H     0.12182   0.70884   0.19844   0.00000  Uiso   1.00
H406   H     0.21152   0.95783   0.30156   0.00000  Uiso   1.00
H407   H     0.11449   0.72201   0.43142   0.00000  Uiso   1.00
H408   H     0.21871   0.94471   0.06857   0.00000  Uiso   1.00
H409   H     0.13626   0.68711   0.02781   0.00000  Uiso   1.00
H410   H     0.19677   0.97962   0.47220   0.00000  Uiso   1.00
H411   H     0.15373   0.76206   0.11097   0.00000  Uiso   1.00
H412   H     0.15299   0.76242   0.38852   0.00000  Uiso   1.00
H413   H     0.18026   0.90427   0.11148   0.00000  Uiso   1.00
H414   H     0.03751   0.76134   0.23474   0.00000  Uiso   1.00
H415   H     0.29582   0.90533   0.26526   0.00000  Uiso   1.00
H416   H     0.29579   0.76132   0.23483   0.00000  Uiso   1.00
H417   H     0.03754   0.90535   0.26517   0.00000  Uiso   1.00
H418   H     0.21152   0.70898   0.30156   0.00000  Uiso   1.00
N419   N     0.16667   0.95240   0.25000   0.00000  Uiso   1.00
N420   N     0.16667   0.71427   0.25000   0.00000  Uiso   1.00
O421   O     0.10559   0.87154   0.24999   0.00000  Uiso   1.00
O422   O     0.19882   0.95327   0.04481   0.00000  Uiso   1.00
O423   O     0.14182   0.71303   0.04792   0.00000  Uiso   1.00
O424   O     0.19138   0.95366   0.45208   0.00000  Uiso   1.00
O425   O     0.22774   0.79513   0.25000   0.00000  Uiso   1.00
O426   O     0.22774   0.87154   0.25000   0.00000  Uiso   1.00
O427   O     0.10559   0.79513   0.24999   0.00000  Uiso   1.00
O428   O     0.16666   0.87156   0.18392   0.00000  Uiso   1.00
O429   O     0.16667   0.79511   0.31607   0.00000  Uiso   1.00
O430   O     0.16667   0.87156   0.31607   0.00000  Uiso   1.00
O431   O     0.16666   0.79511   0.18392   0.00000  Uiso   1.00
O432   O     0.13436   0.71344   0.45519   0.00000  Uiso   1.00
Zn433  Zn    0.16667   0.88437   0.25000   0.00000  Uiso   1.00
Zn434  Zn    0.16667   0.78229   0.25000   0.00000  Uiso   1.00
C435   C     0.41994   0.83334   0.24997   0.00000  Uiso   1.00
C436   C     0.37580   0.83334   0.24996   0.00000  Uiso   1.00
C437   C     0.52493   0.69071   0.27867   0.00000  Uiso   1.00
C438   C     0.47507   0.97596   0.22133   0.00000  Uiso   1.00
C439   C     0.47507   0.69063   0.22133   0.00000  Uiso   1.00
C440   C     0.52493   0.97603   0.27867   0.00000  Uiso   1.00
C441   C     0.50013   0.83329   0.16327   0.00000  Uiso   1.00
C442   C     0.49987   0.83337   0.33673   0.00000  Uiso   1.00
C443   C     0.50659   0.87381   0.40749   0.00000  Uiso   1.00
C444   C     0.49336   0.79286   0.09251   0.00000  Uiso   1.00
C445   C     0.49914   0.83350   0.38464   0.00000  Uiso   1.00
C446   C     0.58006   0.83333   0.25003   0.00000  Uiso   1.00
C447   C     0.50083   0.83317   0.11536   0.00000  Uiso   1.00
C448   C     0.49101   0.79332   0.40734   0.00000  Uiso   1.00
C449   C     0.50892   0.87336   0.09266   0.00000  Uiso   1.00
C450   C     0.48958   0.79290   0.45358   0.00000  Uiso   1.00
C451   C     0.51032   0.87378   0.04642   0.00000  Uiso   1.00
C452   C     0.49922   0.83346   0.47686   0.00000  Uiso   1.00
C453   C     0.50069   0.83323   0.02314   0.00000  Uiso   1.00
C454   C     0.50738   0.87427   0.45365   0.00000  Uiso   1.00
C455   C     0.49253   0.79241   0.04635   0.00000  Uiso   1.00
C456   C     0.48000   0.75254   0.47689   0.00000  Uiso   1.00
C457   C     0.48288   0.75201   0.02354   0.00000  Uiso   1.00
C458   C     0.51987   0.91415   0.02311   0.00000  Uiso   1.00
C459   C     0.51700   0.91468   0.47646   0.00000  Uiso   1.00
C460   C     0.35463   0.79282   0.24158   0.00000  Uiso   1.00
C461   C     0.64537   0.87385   0.25842   0.00000  Uiso   1.00
C462   C     0.64536   0.79281   0.24163   0.00000  Uiso   1.00
C463   C     0.35464   0.87386   0.25837   0.00000  Uiso   1.00
C464   C     0.62420   0.83333   0.25004   0.00000  Uiso   1.00
H465   H     0.51291   0.90461   0.38903   0.00000  Uiso   1.00
H466   H     0.45515   0.95769   0.19844   0.00000  Uiso   1.00
H467   H     0.45515   0.70884   0.19844   0.00000  Uiso   1.00
H468   H     0.54485   0.95783   0.30156   0.00000  Uiso   1.00
H469   H     0.44782   0.72201   0.43142   0.00000  Uiso   1.00
H470   H     0.55204   0.94471   0.06857   0.00000  Uiso   1.00
H471   H     0.46959   0.68711   0.02781   0.00000  Uiso   1.00
H472   H     0.53010   0.97962   0.47220   0.00000  Uiso   1.00
H473   H     0.48707   0.76206   0.11097   0.00000  Uiso   1.00
H474   H     0.48632   0.76242   0.38852   0.00000  Uiso   1.00
H475   H     0.51360   0.90427   0.11148   0.00000  Uiso   1.00
H476   H     0.37084   0.76134   0.23474   0.00000  Uiso   1.00
H477   H     0.62916   0.90533   0.26526   0.00000  Uiso   1.00
H478   H     0.62913   0.76132   0.23483   0.00000  Uiso   1.00
H479   H     0.37087   0.90535   0.26517   0.00000  Uiso   1.00
H480   H     0.54485   0.70898   0.30156   0.00000  Uiso   1.00
N481   N     0.50000   0.95240   0.25000   0.00000  Uiso   1.00
N482   N     0.50000   0.71427   0.25000   0.00000  Uiso   1.00
O483   O     0.43892   0.87154   0.24999   0.00000  Uiso   1.00
O484   O     0.53215   0.95327   0.04481   0.00000  Uiso   1.00
O485   O     0.47516   0.71303   0.04792   0.00000  Uiso   1.00
O486   O     0.52471   0.95366   0.45208   0.00000  Uiso   1.00
O487   O     0.56108   0.79513   0.25000   0.00000  Uiso   1.00
O488   O     0.56108   0.87154   0.25000   0.00000  Uiso   1.00
O489   O     0.43892   0.79513   0.24999   0.00000  Uiso   1.00
O490   O     0.49999   0.87156   0.18392   0.00000  Uiso   1.00
O491   O     0.50001   0.79511   0.31607   0.00000  Uiso   1.00
O492   O     0.50001   0.87156   0.31607   0.00000  Uiso   1.00
O493   O     0.49999   0.79511   0.18392   0.00000  Uiso   1.00
O494   O     0.46769   0.71344   0.45519   0.00000  Uiso   1.00
Zn495  Zn    0.50000   0.88437   0.25000   0.00000  Uiso   1.00
Zn496  Zn    0.50000   0.78229   0.25000   0.00000  Uiso   1.00
C497   C     0.75327   0.83334   0.24997   0.00000  Uiso   1.00
C498   C     0.70913   0.83334   0.24996   0.00000  Uiso   1.00
C499   C     0.85827   0.69071   0.27867   0.00000  Uiso   1.00
C500   C     0.80840   0.97596   0.22133   0.00000  Uiso   1.00
C501   C     0.80840   0.69063   0.22133   0.00000  Uiso   1.00
C502   C     0.85827   0.97603   0.27867   0.00000  Uiso   1.00
C503   C     0.83346   0.83329   0.16327   0.00000  Uiso   1.00
C504   C     0.83320   0.83337   0.33673   0.00000  Uiso   1.00
C505   C     0.83992   0.87381   0.40749   0.00000  Uiso   1.00
C506   C     0.82670   0.79286   0.09251   0.00000  Uiso   1.00
C507   C     0.83247   0.83350   0.38464   0.00000  Uiso   1.00
C508   C     0.91339   0.83333   0.25003   0.00000  Uiso   1.00
C509   C     0.83416   0.83317   0.11536   0.00000  Uiso   1.00
C510   C     0.82434   0.79332   0.40734   0.00000  Uiso   1.00
C511   C     0.84225   0.87336   0.09266   0.00000  Uiso   1.00
C512   C     0.82291   0.79290   0.45358   0.00000  Uiso   1.00
C513   C     0.84365   0.87378   0.04642   0.00000  Uiso   1.00
C514   C     0.83255   0.83346   0.47686   0.00000  Uiso   1.00
C515   C     0.83402   0.83323   0.02314   0.00000  Uiso   1.00
C516   C     0.84071   0.87427   0.45365   0.00000  Uiso   1.00
C517   C     0.82587   0.79241   0.04635   0.00000  Uiso   1.00
C518   C     0.81334   0.75254   0.47689   0.00000  Uiso   1.00
C519   C     0.81622   0.75201   0.02354   0.00000  Uiso   1.00
C520   C     0.85320   0.91415   0.02311   0.00000  Uiso   1.00
C521   C     0.85033   0.91468   0.47646   0.00000  Uiso   1.00
C522   C     0.68796   0.79282   0.24158   0.00000  Uiso   1.00
C523   C     0.97871   0.87385   0.25842   0.00000  Uiso   1.00
C524   C     0.97869   0.79281   0.24163   0.00000  Uiso   1.00
C525   C     0.68798   0.87386   0.25837   0.00000  Uiso   1.00
C526   C     0.95753   0.83333   0.25004   0.00000  Uiso   1.00
H527   H     0.84624   0.90461   0.38903   0.00000  Uiso   1.00
H528   H     0.78848   0.95769   0.19844   0.00000  Uiso   1.00
H529   H     0.78848   0.70884   0.19844   0.00000  Uiso   1.00
H530   H     0.87818   0.95783   0.30156   0.00000  Uiso   1.00
H531   H     0.78116   0.72201   0.43142   0.00000  Uiso   1.00
H532   H     0.88537   0.94471   0.06857   0.00000  Uiso   1.00
H533   H     0.80293   0.68711   0.02781   0.00000  Uiso   1.00
H534   H     0.86344   0.97962   0.47220   0.00000  Uiso   1.00
H535   H     0.82040   0.76206   0.11097   0.00000  Uiso   1.00
H536   H     0.81965   0.76242   0.38852   0.00000  Uiso   1.00
H537   H     0.84693   0.90427   0.11148   0.00000  Uiso   1.00
H538   H     0.70418   0.76134   0.23474   0.00000  Uiso   1.00
H539   H     0.96249   0.90533   0.26526   0.00000  Uiso   1.00
H540   H     0.96246   0.76132   0.23483   0.00000  Uiso   1.00
H541   H     0.70421   0.90535   0.26517   0.00000  Uiso   1.00
H542   H     0.87818   0.70898   0.30156   0.00000  Uiso   1.00
N543   N     0.83333   0.95240   0.25000   0.00000  Uiso   1.00
N544   N     0.83333   0.71427   0.25000   0.00000  Uiso   1.00
O545   O     0.77226   0.87154   0.24999   0.00000  Uiso   1.00
O546   O     0.86548   0.95327   0.04481   0.00000  Uiso   1.00
O547   O     0.80849   0.71303   0.04792   0.00000  Uiso   1.00
O548   O     0.85805   0.95366   0.45208   0.00000  Uiso   1.00
O549   O     0.89441   0.79513   0.25000   0.00000  Uiso   1.00
O550   O     0.89441   0.87154   0.25000   0.00000  Uiso   1.00
O551   O     0.77226   0.79513   0.24999   0.00000  Uiso   1.00
O552   O     0.83333   0.87156   0.18392   0.00000  Uiso   1.00
O553   O     0.83334   0.79511   0.31607   0.00000  Uiso   1.00
O554   O     0.83334   0.87156   0.31607   0.00000  Uiso   1.00
O555   O     0.83333   0.79511   0.18392   0.00000  Uiso   1.00
O556   O     0.80102   0.71344   0.45519   0.00000  Uiso   1.00
Zn557  Zn    0.83333   0.88437   0.25000   0.00000  Uiso   1.00
Zn558  Zn    0.83333   0.78229   0.25000   0.00000  Uiso   1.00
C559   C     0.08661   0.16667   0.74997   0.00000  Uiso   1.00
C560   C     0.04247   0.16667   0.74996   0.00000  Uiso   1.00
C561   C     0.19160   0.02404   0.77867   0.00000  Uiso   1.00
C562   C     0.14173   0.30929   0.72133   0.00000  Uiso   1.00
C563   C     0.14173   0.02397   0.72133   0.00000  Uiso   1.00
C564   C     0.19160   0.30937   0.77867   0.00000  Uiso   1.00
C565   C     0.16679   0.16663   0.66327   0.00000  Uiso   1.00
C566   C     0.16653   0.16671   0.83673   0.00000  Uiso   1.00
C567   C     0.17326   0.20714   0.90749   0.00000  Uiso   1.00
C568   C     0.16003   0.12619   0.59251   0.00000  Uiso   1.00
C569   C     0.16580   0.16684   0.88464   0.00000  Uiso   1.00
C570   C     0.24673   0.16666   0.75003   0.00000  Uiso   1.00
C571   C     0.16749   0.16650   0.61536   0.00000  Uiso   1.00
C572   C     0.15767   0.12666   0.90734   0.00000  Uiso   1.00
C573   C     0.17558   0.20669   0.59266   0.00000  Uiso   1.00
C574   C     0.15625   0.12624   0.95358   0.00000  Uiso   1.00
C575   C     0.17698   0.20712   0.54642   0.00000  Uiso   1.00
C576   C     0.16588   0.16679   0.97686   0.00000  Uiso   1.00
C577   C     0.16735   0.16656   0.52314   0.00000  Uiso   1.00
C578   C     0.17405   0.20760   0.95365   0.00000  Uiso   1.00
C579   C     0.15920   0.12574   0.54635   0.00000  Uiso   1.00
C580   C     0.14667   0.08587   0.97689   0.00000  Uiso   1.00
C581   C     0.14955   0.08534   0.52354   0.00000  Uiso   1.00
C582   C     0.18653   0.24749   0.52311   0.00000  Uiso   1.00
C583   C     0.18366   0.24802   0.97646   0.00000  Uiso   1.00
C584   C     0.02129   0.12615   0.74158   0.00000  Uiso   1.00
C585   C     0.31204   0.20718   0.75842   0.00000  Uiso   1.00
C586   C     0.31202   0.12614   0.74163   0.00000  Uiso   1.00
C587   C     0.02131   0.20719   0.75837   0.00000  Uiso   1.00
C588   C     0.29086   0.16666   0.75004   0.00000  Uiso   1.00
H589   H     0.17958   0.23794   0.88903   0.00000  Uiso   1.00
H590   H     0.12182   0.29102   0.69844   0.00000  Uiso   1.00
H591   H     0.12182   0.04217   0.69844   0.00000  Uiso   1.00
H592   H     0.21152   0.29116   0.80156   0.00000  Uiso   1.00
H593   H     0.11449   0.05535   0.93142   0.00000  Uiso   1.00
H594   H     0.21871   0.27804   0.56857   0.00000  Uiso   1.00
H595   H     0.13626   0.02044   0.52781   0.00000  Uiso   1.00
H596   H     0.19677   0.31295   0.97220   0.00000  Uiso   1.00
H597   H     0.15373   0.09539   0.61097   0.00000  Uiso   1.00
H598   H     0.15299   0.09575   0.88852   0.00000  Uiso   1.00
H599   H     0.18026   0.23760   0.61148   0.00000  Uiso   1.00
H600   H     0.03751   0.09467   0.73474   0.00000  Uiso   1.00
H601   H     0.29582   0.23866   0.76526   0.00000  Uiso   1.00
H602   H     0.29579   0.09465   0.73483   0.00000  Uiso   1.00
H603   H     0.03754   0.23868   0.76517   0.00000  Uiso   1.00
H604   H     0.21152   0.04231   0.80156   0.00000  Uiso   1.00
N605   N     0.16667   0.28573   0.75000   0.00000  Uiso   1.00
N606   N     0.16667   0.04760   0.75000   0.00000  Uiso   1.00
O607   O     0.10559   0.20487   0.74999   0.00000  Uiso   1.00
O608   O     0.19882   0.28660   0.54481   0.00000  Uiso   1.00
O609   O     0.14182   0.04636   0.54792   0.00000  Uiso   1.00
O610   O     0.19138   0.28700   0.95208   0.00000  Uiso   1.00
O611   O     0.22774   0.12846   0.75000   0.00000  Uiso   1.00
O612   O     0.22774   0.20487   0.75000   0.00000  Uiso   1.00
O613   O     0.10559   0.12846   0.74999   0.00000  Uiso   1.00
O614   O     0.16666   0.20489   0.68392   0.00000  Uiso   1.00
O615   O     0.16667   0.12844   0.81607   0.00000  Uiso   1.00
O616   O     0.16667   0.20489   0.81607   0.00000  Uiso   1.00
O617   O     0.16666   0.12844   0.68392   0.00000  Uiso   1.00
O618   O     0.13436   0.04677   0.95519   0.00000  Uiso   1.00
Zn619  Zn    0.16667   0.21771   0.75000   0.00000  Uiso   1.00
Zn620  Zn    0.16667   0.11563   0.75000   0.00000  Uiso   1.00
C621   C     0.41994   0.16667   0.74997   0.00000  Uiso   1.00
C622   C     0.37580   0.16667   0.74996   0.00000  Uiso   1.00
C623   C     0.52493   0.02404   0.77867   0.00000  Uiso   1.00
C624   C     0.47507   0.30929   0.72133   0.00000  Uiso   1.00
C625   C     0.47507   0.02397   0.72133   0.00000  Uiso   1.00
C626   C     0.52493   0.30937   0.77867   0.00000  Uiso   1.00
C627   C     0.50013   0.16663   0.66327   0.00000  Uiso   1.00
C628   C     0.49987   0.16671   0.83673   0.00000  Uiso   1.00
C629   C     0.50659   0.20714   0.90749   0.00000  Uiso   1.00
C630   C     0.49336   0.12619   0.59251   0.00000  Uiso   1.00
C631   C     0.49914   0.16684   0.88464   0.00000  Uiso   1.00
C632   C     0.58006   0.16666   0.75003   0.00000  Uiso   1.00
C633   C     0.50083   0.16650   0.61536   0.00000  Uiso   1.00
C634   C     0.49101   0.12666   0.90734   0.00000  Uiso   1.00
C635   C     0.50892   0.20669   0.59266   0.00000  Uiso   1.00
C636   C     0.48958   0.12624   0.95358   0.00000  Uiso   1.00
C637   C     0.51032   0.20712   0.54642   0.00000  Uiso   1.00
C638   C     0.49922   0.16679   0.97686   0.00000  Uiso   1.00
C639   C     0.50069   0.16656   0.52314   0.00000  Uiso   1.00
C640   C     0.50738   0.20760   0.95365   0.00000  Uiso   1.00
C641   C     0.49253   0.12574   0.54635   0.00000  Uiso   1.00
C642   C     0.48000   0.08587   0.97689   0.00000  Uiso   1.00
C643   C     0.48288   0.08534   0.52354   0.00000  Uiso   1.00
C644   C     0.51987   0.24749   0.52311   0.00000  Uiso   1.00
C645   C     0.51700   0.24802   0.97646   0.00000  Uiso   1.00
C646   C     0.35463   0.12615   0.74158   0.00000  Uiso   1.00
C647   C     0.64537   0.20718   0.75842   0.00000  Uiso   1.00
C648   C     0.64536   0.12614   0.74163   0.00000  Uiso   1.00
C649   C     0.35464   0.20719   0.75837   0.00000  Uiso   1.00
C650   C     0.62420   0.16666   0.75004   0.00000  Uiso   1.00
H651   H     0.51291   0.23794   0.88903   0.00000  Uiso   1.00
H652   H     0.45515   0.29102   0.69844   0.00000  Uiso   1.00
H653   H     0.45515   0.04217   0.69844   0.00000  Uiso   1.00
H654   H     0.54485   0.29116   0.80156   0.00000  Uiso   1.00
H655   H     0.44782   0.05535   0.93142   0.00000  Uiso   1.00
H656   H     0.55204   0.27804   0.56857   0.00000  Uiso   1.00
H657   H     0.46959   0.02044   0.52781   0.00000  Uiso   1.00
H658   H     0.53010   0.31295   0.97220   0.00000  Uiso   1.00
H659   H     0.48707   0.09539   0.61097   0.00000  Uiso   1.00
H660   H     0.48632   0.09575   0.88852   0.00000  Uiso   1.00
H661   H     0.51360   0.23760   0.61148   0.00000  Uiso   1.00
H662   H     0.37084   0.09467   0.73474   0.00000  Uiso   1.00
H663   H     0.62916   0.23866   0.76526   0.00000  Uiso   1.00
H664   H     0.62913   0.09465   0.73483   0.00000  Uiso   1.00
H665   H     0.37087   0.23868   0.76517   0.00000  Uiso   1.00
H666   H     0.54485   0.04231   0.80156   0.00000  Uiso   1.00
N667   N     0.50000   0.28573   0.75000   0.00000  Uiso   1.00
N668   N     0.50000   0.04760   0.75000   0.00000  Uiso   1.00
O669   O     0.43892   0.20487   0.74999   0.00000  Uiso   1.00
O670   O     0.53215   0.28660   0.54481   0.00000  Uiso   1.00
O671   O     0.47516   0.04636   0.54792   0.00000  Uiso   1.00
O672   O     0.52471   0.28700   0.95208   0.00000  Uiso   1.00
O673   O     0.56108   0.12846   0.75000   0.00000  Uiso   1.00
O674   O     0.56108   0.20487   0.75000   0.00000  Uiso   1.00
O675   O     0.43892   0.12846   0.74999   0.00000  Uiso   1.00
O676   O     0.49999   0.20489   0.68392   0.00000  Uiso   1.00
O677   O     0.50001   0.12844   0.81607   0.00000  Uiso   1.00
O678   O     0.50001   0.20489   0.81607   0.00000  Uiso   1.00
O679   O     0.49999   0.12844   0.68392   0.00000  Uiso   1.00
O680   O     0.46769   0.04677   0.95519   0.00000  Uiso   1.00
Zn681  Zn    0.50000   0.21771   0.75000   0.00000  Uiso   1.00
Zn682  Zn    0.50000   0.11563   0.75000   0.00000  Uiso   1.00
C683   C     0.75327   0.16667   0.74997   0.00000  Uiso   1.00
C684   C     0.70913   0.16667   0.74996   0.00000  Uiso   1.00
C685   C     0.85827   0.02404   0.77867   0.00000  Uiso   1.00
C686   C     0.80840   0.30929   0.72133   0.00000  Uiso   1.00
C687   C     0.80840   0.02397   0.72133   0.00000  Uiso   1.00
C688   C     0.85827   0.30937   0.77867   0.00000  Uiso   1.00
C689   C     0.83346   0.16663   0.66327   0.00000  Uiso   1.00
C690   C     0.83320   0.16671   0.83673   0.00000  Uiso   1.00
C691   C     0.83992   0.20714   0.90749   0.00000  Uiso   1.00
C692   C     0.82670   0.12619   0.59251   0.00000  Uiso   1.00
C693   C     0.83247   0.16684   0.88464   0.00000  Uiso   1.00
C694   C     0.91339   0.16666   0.75003   0.00000  Uiso   1.00
C695   C     0.83416   0.16650   0.61536   0.00000  Uiso   1.00
C696   C     0.82434   0.12666   0.90734   0.00000  Uiso   1.00
C697   C     0.84225   0.20669   0.59266   0.00000  Uiso   1.00
C698   C     0.82291   0.12624   0.95358   0.00000  Uiso   1.00
C699   C     0.84365   0.20712   0.54642   0.00000  Uiso   1.00
C700   C     0.83255   0.16679   0.97686   0.00000  Uiso   1.00
C701   C     0.83402   0.16656   0.52314   0.00000  Uiso   1.00
C702   C     0.84071   0.20760   0.95365   0.00000  Uiso   1.00
C703   C     0.82587   0.12574   0.54635   0.00000  Uiso   1.00
C704   C     0.81334   0.08587   0.97689   0.00000  Uiso   1.00
C705   C     0.81622   0.08534   0.52354   0.00000  Uiso   1.00
C706   C     0.85320   0.24749   0.52311   0.00000  Uiso   1.00
C707   C     0.85033   0.24802   0.97646   0.00000  Uiso   1.00
C708   C     0.68796   0.12615   0.74158   0.00000  Uiso   1.00
C709   C     0.97871   0.20718   0.75842   0.00000  Uiso   1.00
C710   C     0.97869   0.12614   0.74163   0.00000  Uiso   1.00
C711   C     0.68798   0.20719   0.75837   0.00000  Uiso   1.00
C712   C     0.95753   0.16666   0.75004   0.00000  Uiso   1.00
H713   H     0.84624   0.23794   0.88903   0.00000  Uiso   1.00
H714   H     0.78848   0.29102   0.69844   0.00000  Uiso   1.00
H715   H     0.78848   0.04217   0.69844   0.00000  Uiso   1.00
H716   H     0.87818   0.29116   0.80156   0.00000  Uiso   1.00
H717   H     0.78116   0.05535   0.93142   0.00000  Uiso   1.00
H718   H     0.88537   0.27804   0.56857   0.00000  Uiso   1.00
H719   H     0.80293   0.02044   0.52781   0.00000  Uiso   1.00
H720   H     0.86344   0.31295   0.97220   0.00000  Uiso   1.00
H721   H     0.82040   0.09539   0.61097   0.00000  Uiso   1.00
H722   H     0.81965   0.09575   0.88852   0.00000  Uiso   1.00
H723   H     0.84693   0.23760   0.61148   0.00000  Uiso   1.00
H724   H     0.70418   0.09467   0.73474   0.00000  Uiso   1.00
H725   H     0.96249   0.23866   0.76526   0.00000  Uiso   1.00
H726   H     0.96246   0.09465   0.73483   0.00000  Uiso   1.00
H727   H     0.70421   0.23868   0.76517   0.00000  Uiso   1.00
H728   H     0.87818   0.04231   0.80156   0.00000  Uiso   1.00
N729   N     0.83333   0.28573   0.75000   0.00000  Uiso   1.00
N730   N     0.83333   0.04760   0.75000   0.00000  Uiso   1.00
O731   O     0.77226   0.20487   0.74999   0.00000  Uiso   1.00
O732   O     0.86548   0.28660   0.54481   0.00000  Uiso   1.00
O733   O     0.80849   0.04636   0.54792   0.00000  Uiso   1.00
O734   O     0.85805   0.28700   0.95208   0.00000  Uiso   1.00
O735   O     0.89441   0.12846   0.75000   0.00000  Uiso   1.00
O736   O     0.89441   0.20487   0.75000   0.00000  Uiso   1.00
O737   O     0.77226   0.12846   0.74999   0.00000  Uiso   1.00
O738   O     0.83333   0.20489   0.68392   0.00000  Uiso   1.00
O739   O     0.83334   0.12844   0.81607   0.00000  Uiso   1.00
O740   O     0.83334   0.20489   0.81607   0.00000  Uiso   1.00
O741   O     0.83333   0.12844   0.68392   0.00000  Uiso   1.00
O742   O     0.80102   0.04677   0.95519   0.00000  Uiso   1.00
Zn743  Zn    0.83333   0.21771   0.75000   0.00000  Uiso   1.00
Zn744  Zn    0.83333   0.11563   0.75000   0.00000  Uiso   1.00
C745   C     0.08661   0.50000   0.74997   0.00000  Uiso   1.00
C746   C     0.04247   0.50001   0.74996   0.00000  Uiso   1.00
C747   C     0.19160   0.35738   0.77867   0.00000  Uiso   1.00
C748   C     0.14173   0.64262   0.72133   0.00000  Uiso   1.00
C749   C     0.14173   0.35730   0.72133   0.00000  Uiso   1.00
C750   C     0.19160   0.64270   0.77867   0.00000  Uiso   1.00
C751   C     0.16679   0.49996   0.66327   0.00000  Uiso   1.00
C752   C     0.16653   0.50004   0.83673   0.00000  Uiso   1.00
C753   C     0.17326   0.54048   0.90749   0.00000  Uiso   1.00
C754   C     0.16003   0.45953   0.59251   0.00000  Uiso   1.00
C755   C     0.16580   0.50017   0.88464   0.00000  Uiso   1.00
C756   C     0.24673   0.50000   0.75003   0.00000  Uiso   1.00
C757   C     0.16749   0.49984   0.61536   0.00000  Uiso   1.00
C758   C     0.15767   0.45999   0.90734   0.00000  Uiso   1.00
C759   C     0.17558   0.54003   0.59266   0.00000  Uiso   1.00
C760   C     0.15625   0.45957   0.95358   0.00000  Uiso   1.00
C761   C     0.17698   0.54045   0.54642   0.00000  Uiso   1.00
C762   C     0.16588   0.50013   0.97686   0.00000  Uiso   1.00
C763   C     0.16735   0.49989   0.52314   0.00000  Uiso   1.00
C764   C     0.17405   0.54094   0.95365   0.00000  Uiso   1.00
C765   C     0.15920   0.45908   0.54635   0.00000  Uiso   1.00
C766   C     0.14667   0.41921   0.97689   0.00000  Uiso   1.00
C767   C     0.14955   0.41867   0.52354   0.00000  Uiso   1.00
C768   C     0.18653   0.58082   0.52311   0.00000  Uiso   1.00
C769   C     0.18366   0.58135   0.97646   0.00000  Uiso   1.00
C770   C     0.02129   0.45949   0.74158   0.00000  Uiso   1.00
C771   C     0.31204   0.54051   0.75842   0.00000  Uiso   1.00
C772   C     0.31202   0.45948   0.74163   0.00000  Uiso   1.00
C773   C     0.02131   0.54052   0.75837   0.00000  Uiso   1.00
C774   C     0.29086   0.49999   0.75004   0.00000  Uiso   1.00
H775   H     0.17958   0.57127   0.88903   0.00000  Uiso   1.00
H776   H     0.12182   0.62435   0.69844   0.00000  Uiso   1.00
H777   H     0.12182   0.37551   0.69844   0.00000  Uiso   1.00
H778   H     0.21152   0.62449   0.80156   0.00000  Uiso   1.00
H779   H     0.11449   0.38868   0.93142   0.00000  Uiso   1.00
H780   H     0.21871   0.61138   0.56857   0.00000  Uiso   1.00
H781   H     0.13626   0.35378   0.52781   0.00000  Uiso   1.00
H782   H     0.19677   0.64628   0.97220   0.00000  Uiso   1.00
H783   H     0.15373   0.42872   0.61097   0.00000  Uiso   1.00
H784   H     0.15299   0.42908   0.88852   0.00000  Uiso   1.00
H785   H     0.18026   0.57093   0.61148   0.00000  Uiso   1.00
H786   H     0.03751   0.42800   0.73474   0.00000  Uiso   1.00
H787   H     0.29582   0.57200   0.76526   0.00000  Uiso   1.00
H788   H     0.29579   0.42799   0.73483   0.00000  Uiso   1.00
H789   H     0.03754   0.57201   0.76517   0.00000  Uiso   1.00
H790   H     0.21152   0.37565   0.80156   0.00000  Uiso   1.00
N791   N     0.16667   0.61907   0.75000   0.00000  Uiso   1.00
N792   N     0.16667   0.38093   0.75000   0.00000  Uiso   1.00
O793   O     0.10559   0.53821   0.74999   0.00000  Uiso   1.00
O794   O     0.19882   0.61993   0.54481   0.00000  Uiso   1.00
O795   O     0.14182   0.37969   0.54792   0.00000  Uiso   1.00
O796   O     0.19138   0.62033   0.95208   0.00000  Uiso   1.00
O797   O     0.22774   0.46179   0.75000   0.00000  Uiso   1.00
O798   O     0.22774   0.53821   0.75000   0.00000  Uiso   1.00
O799   O     0.10559   0.46179   0.74999   0.00000  Uiso   1.00
O800   O     0.16666   0.53823   0.68392   0.00000  Uiso   1.00
O801   O     0.16667   0.46177   0.81607   0.00000  Uiso   1.00
O802   O     0.16667   0.53823   0.81607   0.00000  Uiso   1.00
O803   O     0.16666   0.46177   0.68392   0.00000  Uiso   1.00
O804   O     0.13436   0.38010   0.95519   0.00000  Uiso   1.00
Zn805  Zn    0.16667   0.55104   0.75000   0.00000  Uiso   1.00
Zn806  Zn    0.16667   0.44896   0.75000   0.00000  Uiso   1.00
C807   C     0.41994   0.50000   0.74997   0.00000  Uiso   1.00
C808   C     0.37580   0.50001   0.74996   0.00000  Uiso   1.00
C809   C     0.52493   0.35738   0.77867   0.00000  Uiso   1.00
C810   C     0.47507   0.64262   0.72133   0.00000  Uiso   1.00
C811   C     0.47507   0.35730   0.72133   0.00000  Uiso   1.00
C812   C     0.52493   0.64270   0.77867   0.00000  Uiso   1.00
C813   C     0.50013   0.49996   0.66327   0.00000  Uiso   1.00
C814   C     0.49987   0.50004   0.83673   0.00000  Uiso   1.00
C815   C     0.50659   0.54048   0.90749   0.00000  Uiso   1.00
C816   C     0.49336   0.45953   0.59251   0.00000  Uiso   1.00
C817   C     0.49914   0.50017   0.88464   0.00000  Uiso   1.00
C818   C     0.58006   0.50000   0.75003   0.00000  Uiso   1.00
C819   C     0.50083   0.49984   0.61536   0.00000  Uiso   1.00
C820   C     0.49101   0.45999   0.90734   0.00000  Uiso   1.00
C821   C     0.50892   0.54003   0.59266   0.00000  Uiso   1.00
C822   C     0.48958   0.45957   0.95358   0.00000  Uiso   1.00
C823   C     0.51032   0.54045   0.54642   0.00000  Uiso   1.00
C824   C     0.49922   0.50013   0.97686   0.00000  Uiso   1.00
C825   C     0.50069   0.49989   0.52314   0.00000  Uiso   1.00
C826   C     0.50738   0.54094   0.95365   0.00000  Uiso   1.00
C827   C     0.49253   0.45908   0.54635   0.00000  Uiso   1.00
C828   C     0.48000   0.41921   0.97689   0.00000  Uiso   1.00
C829   C     0.48288   0.41867   0.52354   0.00000  Uiso   1.00
C830   C     0.51987   0.58082   0.52311   0.00000  Uiso   1.00
C831   C     0.51700   0.58135   0.97646   0.00000  Uiso   1.00
C832   C     0.35463   0.45949   0.74158   0.00000  Uiso   1.00
C833   C     0.64537   0.54051   0.75842   0.00000  Uiso   1.00
C834   C     0.64536   0.45948   0.74163   0.00000  Uiso   1.00
C835   C     0.35464   0.54052   0.75837   0.00000  Uiso   1.00
C836   C     0.62420   0.49999   0.75004   0.00000  Uiso   1.00
H837   H     0.51291   0.57127   0.88903   0.00000  Uiso   1.00
H838   H     0.45515   0.62435   0.69844   0.00000  Uiso   1.00
H839   H     0.45515   0.37551   0.69844   0.00000  Uiso   1.00
H840   H     0.54485   0.62449   0.80156   0.00000  Uiso   1.00
H841   H     0.44782   0.38868   0.93142   0.00000  Uiso   1.00
H842   H     0.55204   0.61138   0.56857   0.00000  Uiso   1.00
H843   H     0.46959   0.35378   0.52781   0.00000  Uiso   1.00
H844   H     0.53010   0.64628   0.97220   0.00000  Uiso   1.00
H845   H     0.48707   0.42872   0.61097   0.00000  Uiso   1.00
H846   H     0.48632   0.42908   0.88852   0.00000  Uiso   1.00
H847   H     0.51360   0.57093   0.61148   0.00000  Uiso   1.00
H848   H     0.37084   0.42800   0.73474   0.00000  Uiso   1.00
H849   H     0.62916   0.57200   0.76526   0.00000  Uiso   1.00
H850   H     0.62913   0.42799   0.73483   0.00000  Uiso   1.00
H851   H     0.37087   0.57201   0.76517   0.00000  Uiso   1.00
H852   H     0.54485   0.37565   0.80156   0.00000  Uiso   1.00
N853   N     0.50000   0.61907   0.75000   0.00000  Uiso   1.00
N854   N     0.50000   0.38093   0.75000   0.00000  Uiso   1.00
O855   O     0.43892   0.53821   0.74999   0.00000  Uiso   1.00
O856   O     0.53215   0.61993   0.54481   0.00000  Uiso   1.00
O857   O     0.47516   0.37969   0.54792   0.00000  Uiso   1.00
O858   O     0.52471   0.62033   0.95208   0.00000  Uiso   1.00
O859   O     0.56108   0.46179   0.75000   0.00000  Uiso   1.00
O860   O     0.56108   0.53821   0.75000   0.00000  Uiso   1.00
O861   O     0.43892   0.46179   0.74999   0.00000  Uiso   1.00
O862   O     0.49999   0.53823   0.68392   0.00000  Uiso   1.00
O863   O     0.50001   0.46177   0.81607   0.00000  Uiso   1.00
O864   O     0.50001   0.53823   0.81607   0.00000  Uiso   1.00
O865   O     0.49999   0.46177   0.68392   0.00000  Uiso   1.00
O866   O     0.46769   0.38010   0.95519   0.00000  Uiso   1.00
Zn867  Zn    0.50000   0.55104   0.75000   0.00000  Uiso   1.00
Zn868  Zn    0.50000   0.44896   0.75000   0.00000  Uiso   1.00
C869   C     0.75327   0.50000   0.74997   0.00000  Uiso   1.00
C870   C     0.70913   0.50001   0.74996   0.00000  Uiso   1.00
C871   C     0.85827   0.35738   0.77867   0.00000  Uiso   1.00
C872   C     0.80840   0.64262   0.72133   0.00000  Uiso   1.00
C873   C     0.80840   0.35730   0.72133   0.00000  Uiso   1.00
C874   C     0.85827   0.64270   0.77867   0.00000  Uiso   1.00
C875   C     0.83346   0.49996   0.66327   0.00000  Uiso   1.00
C876   C     0.83320   0.50004   0.83673   0.00000  Uiso   1.00
C877   C     0.83992   0.54048   0.90749   0.00000  Uiso   1.00
C878   C     0.82670   0.45953   0.59251   0.00000  Uiso   1.00
C879   C     0.83247   0.50017   0.88464   0.00000  Uiso   1.00
C880   C     0.91339   0.50000   0.75003   0.00000  Uiso   1.00
C881   C     0.83416   0.49984   0.61536   0.00000  Uiso   1.00
C882   C     0.82434   0.45999   0.90734   0.00000  Uiso   1.00
C883   C     0.84225   0.54003   0.59266   0.00000  Uiso   1.00
C884   C     0.82291   0.45957   0.95358   0.00000  Uiso   1.00
C885   C     0.84365   0.54045   0.54642   0.00000  Uiso   1.00
C886   C     0.83255   0.50013   0.97686   0.00000  Uiso   1.00
C887   C     0.83402   0.49989   0.52314   0.00000  Uiso   1.00
C888   C     0.84071   0.54094   0.95365   0.00000  Uiso   1.00
C889   C     0.82587   0.45908   0.54635   0.00000  Uiso   1.00
C890   C     0.81334   0.41921   0.97689   0.00000  Uiso   1.00
C891   C     0.81622   0.41867   0.52354   0.00000  Uiso   1.00
C892   C     0.85320   0.58082   0.52311   0.00000  Uiso   1.00
C893   C     0.85033   0.58135   0.97646   0.00000  Uiso   1.00
C894   C     0.68796   0.45949   0.74158   0.00000  Uiso   1.00
C895   C     0.97871   0.54051   0.75842   0.00000  Uiso   1.00
C896   C     0.97869   0.45948   0.74163   0.00000  Uiso   1.00
C897   C     0.68798   0.54052   0.75837   0.00000  Uiso   1.00
C898   C     0.95753   0.49999   0.75004   0.00000  Uiso   1.00
H899   H     0.84624   0.57127   0.88903   0.00000  Uiso   1.00
H900   H     0.78848   0.62435   0.69844   0.00000  Uiso   1.00
H901   H     0.78848   0.37551   0.69844   0.00000  Uiso   1.00
H902   H     0.87818   0.62449   0.80156   0.00000  Uiso   1.00
H903   H     0.78116   0.38868   0.93142   0.00000  Uiso   1.00
H904   H     0.88537   0.61138   0.56857   0.00000  Uiso   1.00
H905   H     0.80293   0.35378   0.52781   0.00000  Uiso   1.00
H906   H     0.86344   0.64628   0.97220   0.00000  Uiso   1.00
H907   H     0.82040   0.42872   0.61097   0.00000  Uiso   1.00
H908   H     0.81965   0.42908   0.88852   0.00000  Uiso   1.00
H909   H     0.84693   0.57093   0.61148   0.00000  Uiso   1.00
H910   H     0.70418   0.42800   0.73474   0.00000  Uiso   1.00
H911   H     0.96249   0.57200   0.76526   0.00000  Uiso   1.00
H912   H     0.96246   0.42799   0.73483   0.00000  Uiso   1.00
H913   H     0.70421   0.57201   0.76517   0.00000  Uiso   1.00
H914   H     0.87818   0.37565   0.80156   0.00000  Uiso   1.00
N915   N     0.83333   0.61907   0.75000   0.00000  Uiso   1.00
N916   N     0.83333   0.38093   0.75000   0.00000  Uiso   1.00
O917   O     0.77226   0.53821   0.74999   0.00000  Uiso   1.00
O918   O     0.86548   0.61993   0.54481   0.00000  Uiso   1.00
O919   O     0.80849   0.37969   0.54792   0.00000  Uiso   1.00
O920   O     0.85805   0.62033   0.95208   0.00000  Uiso   1.00
O921   O     0.89441   0.46179   0.75000   0.00000  Uiso   1.00
O922   O     0.89441   0.53821   0.75000   0.00000  Uiso   1.00
O923   O     0.77226   0.46179   0.74999   0.00000  Uiso   1.00
O924   O     0.83333   0.53823   0.68392   0.00000  Uiso   1.00
O925   O     0.83334   0.46177   0.81607   0.00000  Uiso   1.00
O926   O     0.83334   0.53823   0.81607   0.00000  Uiso   1.00
O927   O     0.83333   0.46177   0.68392   0.00000  Uiso   1.00
O928   O     0.80102   0.38010   0.95519   0.00000  Uiso   1.00
Zn929  Zn    0.83333   0.55104   0.75000   0.00000  Uiso   1.00
Zn930  Zn    0.83333   0.44896   0.75000   0.00000  Uiso   1.00
C931   C     0.08661   0.83334   0.74997   0.00000  Uiso   1.00
C932   C     0.04247   0.83334   0.74996   0.00000  Uiso   1.00
C933   C     0.19160   0.69071   0.77867   0.00000  Uiso   1.00
C934   C     0.14173   0.97596   0.72133   0.00000  Uiso   1.00
C935   C     0.14173   0.69063   0.72133   0.00000  Uiso   1.00
C936   C     0.19160   0.97603   0.77867   0.00000  Uiso   1.00
C937   C     0.16679   0.83329   0.66327   0.00000  Uiso   1.00
C938   C     0.16653   0.83337   0.83673   0.00000  Uiso   1.00
C939   C     0.17326   0.87381   0.90749   0.00000  Uiso   1.00
C940   C     0.16003   0.79286   0.59251   0.00000  Uiso   1.00
C941   C     0.16580   0.83350   0.88464   0.00000  Uiso   1.00
C942   C     0.24673   0.83333   0.75003   0.00000  Uiso   1.00
C943   C     0.16749   0.83317   0.61536   0.00000  Uiso   1.00
C944   C     0.15767   0.79332   0.90734   0.00000  Uiso   1.00
C945   C     0.17558   0.87336   0.59266   0.00000  Uiso   1.00
C946   C     0.15625   0.79290   0.95358   0.00000  Uiso   1.00
C947   C     0.17698   0.87378   0.54642   0.00000  Uiso   1.00
C948   C     0.16588   0.83346   0.97686   0.00000  Uiso   1.00
C949   C     0.16735   0.83323   0.52314   0.00000  Uiso   1.00
C950   C     0.17405   0.87427   0.95365   0.00000  Uiso   1.00
C951   C     0.15920   0.79241   0.54635   0.00000  Uiso   1.00
C952   C     0.14667   0.75254   0.97689   0.00000  Uiso   1.00
C953   C     0.14955   0.75201   0.52354   0.00000  Uiso   1.00
C954   C     0.18653   0.91415   0.52311   0.00000  Uiso   1.00
C955   C     0.18366   0.91468   0.97646   0.00000  Uiso   1.00
C956   C     0.02129   0.79282   0.74158   0.00000  Uiso   1.00
C957   C     0.31204   0.87385   0.75842   0.00000  Uiso   1.00
C958   C     0.31202   0.79281   0.74163   0.00000  Uiso   1.00
C959   C     0.02131   0.87386   0.75837   0.00000  Uiso   1.00
C960   C     0.29086   0.83333   0.75004   0.00000  Uiso   1.00
H961   H     0.17958   0.90461   0.88903   0.00000  Uiso   1.00
H962   H     0.12182   0.95769   0.69844   0.00000  Uiso   1.00
H963   H     0.12182   0.70884   0.69844   0.00000  Uiso   1.00
H964   H     0.21152   0.95783   0.80156   0.00000  Uiso   1.00
H965   H     0.11449   0.72201   0.93142   0.00000  Uiso   1.00
H966   H     0.21871   0.94471   0.56857   0.00000  Uiso   1.00
H967   H     0.13626   0.68711   0.52781   0.00000  Uiso   1.00
H968   H     0.19677   0.97962   0.97220   0.00000  Uiso   1.00
H969   H     0.15373   0.76206   0.61097   0.00000  Uiso   1.00
H970   H     0.15299   0.76242   0.88852   0.00000  Uiso   1.00
H971   H     0.18026   0.90427   0.61148   0.00000  Uiso   1.00
H972   H     0.03751   0.76134   0.73474   0.00000  Uiso   1.00
H973   H     0.29582   0.90533   0.76526   0.00000  Uiso   1.00
H974   H     0.29579   0.76132   0.73483   0.00000  Uiso   1.00
H975   H     0.03754   0.90535   0.76517   0.00000  Uiso   1.00
H976   H     0.21152   0.70898   0.80156   0.00000  Uiso   1.00
N977   N     0.16667   0.95240   0.75000   0.00000  Uiso   1.00
N978   N     0.16667   0.71427   0.75000   0.00000  Uiso   1.00
O979   O     0.10559   0.87154   0.74999   0.00000  Uiso   1.00
O980   O     0.19882   0.95327   0.54481   0.00000  Uiso   1.00
O981   O     0.14182   0.71303   0.54792   0.00000  Uiso   1.00
O982   O     0.19138   0.95366   0.95208   0.00000  Uiso   1.00
O983   O     0.22774   0.79513   0.75000   0.00000  Uiso   1.00
O984   O     0.22774   0.87154   0.75000   0.00000  Uiso   1.00
O985   O     0.10559   0.79513   0.74999   0.00000  Uiso   1.00
O986   O     0.16666   0.87156   0.68392   0.00000  Uiso   1.00
O987   O     0.16667   0.79511   0.81607   0.00000  Uiso   1.00
O988   O     0.16667   0.87156   0.81607   0.00000  Uiso   1.00
O989   O     0.16666   0.79511   0.68392   0.00000  Uiso   1.00
O990   O     0.13436   0.71344   0.95519   0.00000  Uiso   1.00
Zn991  Zn    0.16667   0.88437   0.75000   0.00000  Uiso   1.00
Zn992  Zn    0.16667   0.78229   0.75000   0.00000  Uiso   1.00
C993   C     0.41994   0.83334   0.74997   0.00000  Uiso   1.00
C994   C     0.37580   0.83334   0.74996   0.00000  Uiso   1.00
C995   C     0.52493   0.69071   0.77867   0.00000  Uiso   1.00
C996   C     0.47507   0.97596   0.72133   0.00000  Uiso   1.00
C997   C     0.47507   0.69063   0.72133   0.00000  Uiso   1.00
C998   C     0.52493   0.97603   0.77867   0.00000  Uiso   1.00
C999   C     0.50013   0.83329   0.66327   0.00000  Uiso   1.00
C1000  C     0.49987   0.83337   0.83673   0.00000  Uiso   1.00
C1001  C     0.50659   0.87381   0.90749   0.00000  Uiso   1.00
C1002  C     0.49336   0.79286   0.59251   0.00000  Uiso   1.00
C1003  C     0.49914   0.83350   0.88464   0.00000  Uiso   1.00
C1004  C     0.58006   0.83333   0.75003   0.00000  Uiso   1.00
C1005  C     0.50083   0.83317   0.61536   0.00000  Uiso   1.00
C1006  C     0.49101   0.79332   0.90734   0.00000  Uiso   1.00
C1007  C     0.50892   0.87336   0.59266   0.00000  Uiso   1.00
C1008  C     0.48958   0.79290   0.95358   0.00000  Uiso   1.00
C1009  C     0.51032   0.87378   0.54642   0.00000  Uiso   1.00
C1010  C     0.49922   0.83346   0.97686   0.00000  Uiso   1.00
C1011  C     0.50069   0.83323   0.52314   0.00000  Uiso   1.00
C1012  C     0.50738   0.87427   0.95365   0.00000  Uiso   1.00
C1013  C     0.49253   0.79241   0.54635   0.00000  Uiso   1.00
C1014  C     0.48000   0.75254   0.97689   0.00000  Uiso   1.00
C1015  C     0.48288   0.75201   0.52354   0.00000  Uiso   1.00
C1016  C     0.51987   0.91415   0.52311   0.00000  Uiso   1.00
C1017  C     0.51700   0.91468   0.97646   0.00000  Uiso   1.00
C1018  C     0.35463   0.79282   0.74158   0.00000  Uiso   1.00
C1019  C     0.64537   0.87385   0.75842   0.00000  Uiso   1.00
C1020  C     0.64536   0.79281   0.74163   0.00000  Uiso   1.00
C1021  C     0.35464   0.87386   0.75837   0.00000  Uiso   1.00
C1022  C     0.62420   0.83333   0.75004   0.00000  Uiso   1.00
H1023  H     0.51291   0.90461   0.88903   0.00000  Uiso   1.00
H1024  H     0.45515   0.95769   0.69844   0.00000  Uiso   1.00
H1025  H     0.45515   0.70884   0.69844   0.00000  Uiso   1.00
H1026  H     0.54485   0.95783   0.80156   0.00000  Uiso   1.00
H1027  H     0.44782   0.72201   0.93142   0.00000  Uiso   1.00
H1028  H     0.55204   0.94471   0.56857   0.00000  Uiso   1.00
H1029  H     0.46959   0.68711   0.52781   0.00000  Uiso   1.00
H1030  H     0.53010   0.97962   0.97220   0.00000  Uiso   1.00
H1031  H     0.48707   0.76206   0.61097   0.00000  Uiso   1.00
H1032  H     0.48632   0.76242   0.88852   0.00000  Uiso   1.00
H1033  H     0.51360   0.90427   0.61148   0.00000  Uiso   1.00
H1034  H     0.37084   0.76134   0.73474   0.00000  Uiso   1.00
H1035  H     0.62916   0.90533   0.76526   0.00000  Uiso   1.00
H1036  H     0.62913   0.76132   0.73483   0.00000  Uiso   1.00
H1037  H     0.37087   0.90535   0.76517   0.00000  Uiso   1.00
H1038  H     0.54485   0.70898   0.80156   0.00000  Uiso   1.00
N1039  N     0.50000   0.95240   0.75000   0.00000  Uiso   1.00
N1040  N     0.50000   0.71427   0.75000   0.00000  Uiso   1.00
O1041  O     0.43892   0.87154   0.74999   0.00000  Uiso   1.00
O1042  O     0.53215   0.95327   0.54481   0.00000  Uiso   1.00
O1043  O     0.47516   0.71303   0.54792   0.00000  Uiso   1.00
O1044  O     0.52471   0.95366   0.95208   0.00000  Uiso   1.00
O1045  O     0.56108   0.79513   0.75000   0.00000  Uiso   1.00
O1046  O     0.56108   0.87154   0.75000   0.00000  Uiso   1.00
O1047  O     0.43892   0.79513   0.74999   0.00000  Uiso   1.00
O1048  O     0.49999   0.87156   0.68392   0.00000  Uiso   1.00
O1049  O     0.50001   0.79511   0.81607   0.00000  Uiso   1.00
O1050  O     0.50001   0.87156   0.81607   0.00000  Uiso   1.00
O1051  O     0.49999   0.79511   0.68392   0.00000  Uiso   1.00
O1052  O     0.46769   0.71344   0.95519   0.00000  Uiso   1.00
Zn1053 Zn    0.50000   0.88437   0.75000   0.00000  Uiso   1.00
Zn1054 Zn    0.50000   0.78229   0.75000   0.00000  Uiso   1.00
C1055  C     0.75327   0.83334   0.74997   0.00000  Uiso   1.00
C1056  C     0.70913   0.83334   0.74996   0.00000  Uiso   1.00
C1057  C     0.85827   0.69071   0.77867   0.00000  Uiso   1.00
C1058  C     0.80840   0.97596   0.72133   0.00000  Uiso   1.00
C1059  C     0.80840   0.69063   0.72133   0.00000  Uiso   1.00
C1060  C     0.85827   0.97603   0.77867   0.00000  Uiso   1.00
C1061  C     0.83346   0.83329   0.66327   0.00000  Uiso   1.00
C1062  C     0.83320   0.83337   0.83673   0.00000  Uiso   1.00
C1063  C     0.83992   0.87381   0.90749   0.00000  Uiso   1.00
C1064  C     0.82670   0.79286   0.59251   0.00000  Uiso   1.00
C1065  C     0.83247   0.83350   0.88464   0.00000  Uiso   1.00
C1066  C     0.91339   0.83333   0.75003   0.00000  Uiso   1.00
C1067  C     0.83416   0.83317   0.61536   0.00000  Uiso   1.00
C1068  C     0.82434   0.79332   0.90734   0.00000  Uiso   1.00
C1069  C     0.84225   0.87336   0.59266   0.00000  Uiso   1.00
C1070  C     0.82291   0.79290   0.95358   0.00000  Uiso   1.00
C1071  C     0.84365   0.87378   0.54642   0.00000  Uiso   1.00
C1072  C     0.83255   0.83346   0.97686   0.00000  Uiso   1.00
C1073  C     0.83402   0.83323   0.52314   0.00000  Uiso   1.00
C1074  C     0.84071   0.87427   0.95365   0.00000  Uiso   1.00
C1075  C     0.82587   0.79241   0.54635   0.00000  Uiso   1.00
C1076  C     0.81334   0.75254   0.97689   0.00000  Uiso   1.00
C1077  C     0.81622   0.75201   0.52354   0.00000  Uiso   1.00
C1078  C     0.85320   0.91415   0.52311   0.00000  Uiso   1.00
C1079  C     0.85033   0.91468   0.97646   0.00000  Uiso   1.00
C1080  C     0.68796   0.79282   0.74158   0.00000  Uiso   1.00
C1081  C     0.97871   0.87385   0.75842   0.00000  Uiso   1.00
C1082  C     0.97869   0.79281   0.74163   0.00000  Uiso   1.00
C1083  C     0.68798   0.87386   0.75837   0.00000  Uiso   1.00
C1084  C     0.95753   0.83333   0.75004   0.00000  Uiso   1.00
H1085  H     0.84624   0.90461   0.88903   0.00000  Uiso   1.00
H1086  H     0.78848   0.95769   0.69844   0.00000  Uiso   1.00
H1087  H     0.78848   0.70884   0.69844   0.00000  Uiso   1.00
H1088  H     0.87818   0.95783   0.80156   0.00000  Uiso   1.00
H1089  H     0.78116   0.72201   0.93142   0.00000  Uiso   1.00
H1090  H     0.88537   0.94471   0.56857   0.00000  Uiso   1.00
H1091  H     0.80293   0.68711   0.52781   0.00000  Uiso   1.00
H1092  H     0.86344   0.97962   0.97220   0.00000  Uiso   1.00
H1093  H     0.82040   0.76206   0.61097   0.00000  Uiso   1.00
H1094  H     0.81965   0.76242   0.88852   0.00000  Uiso   1.00
H1095  H     0.84693   0.90427   0.61148   0.00000  Uiso   1.00
H1096  H     0.70418   0.76134   0.73474   0.00000  Uiso   1.00
H1097  H     0.96249   0.90533   0.76526   0.00000  Uiso   1.00
H1098  H     0.96246   0.76132   0.73483   0.00000  Uiso   1.00
H1099  H     0.70421   0.90535   0.76517   0.00000  Uiso   1.00
H1100  H     0.87818   0.70898   0.80156   0.00000  Uiso   1.00
N1101  N     0.83333   0.95240   0.75000   0.00000  Uiso   1.00
N1102  N     0.83333   0.71427   0.75000   0.00000  Uiso   1.00
O1103  O     0.77226   0.87154   0.74999   0.00000  Uiso   1.00
O1104  O     0.86548   0.95327   0.54481   0.00000  Uiso   1.00
O1105  O     0.80849   0.71303   0.54792   0.00000  Uiso   1.00
O1106  O     0.85805   0.95366   0.95208   0.00000  Uiso   1.00
O1107  O     0.89441   0.79513   0.75000   0.00000  Uiso   1.00
O1108  O     0.89441   0.87154   0.75000   0.00000  Uiso   1.00
O1109  O     0.77226   0.79513   0.74999   0.00000  Uiso   1.00
O1110  O     0.83333   0.87156   0.68392   0.00000  Uiso   1.00
O1111  O     0.83334   0.79511   0.81607   0.00000  Uiso   1.00
O1112  O     0.83334   0.87156   0.81607   0.00000  Uiso   1.00
O1113  O     0.83333   0.79511   0.68392   0.00000  Uiso   1.00
O1114  O     0.80102   0.71344   0.95519   0.00000  Uiso   1.00
Zn1115 Zn    0.83333   0.88437   0.75000   0.00000  Uiso   1.00
Zn1116 Zn    0.83333   0.78229   0.75000   0.00000  Uiso   1.00
loop_
_geom_bond_atom_site_label_1
_geom_bond_atom_site_label_2
_geom_bond_distance
_geom_bond_site_symmetry_2
_ccdc_geom_bond_type
C1     O55     1.281   .     A
C1     O49     1.281   .     A
C1     C2      1.419   .     S
C2     C26     1.397   .     A
C2     C29     1.397   .     A
C3     N48     1.366   .     A
C3     H46     1.082   .     S
C3     C378    1.415   1_545 S
C4     N47     1.366   .     A
C4     H32     1.082   .     S
C4     C191    1.415   .     S
C5     N48     1.366   .     A
C5     H33     1.082   .     S
C5     C376    1.415   1_545 S
C6     N47     1.366   .     A
C6     H34     1.082   .     S
C6     C189    1.415   .     S
C7     O56     1.286   .     A
C7     O59     1.286   .     A
C7     C13     1.440   .     S
C8     O57     1.286   .     A
C8     C11     1.440   .     S
C8     O58     1.286   .     A
C9     C20     1.387   .     A
C9     C11     1.392   .     A
C9     H31     1.084   .     S
C10    C21     1.387   .     A
C10    H39     1.084   .     S
C10    C13     1.392   .     A
C11    C14     1.392   .     A
C12    O53     1.281   .     A
C12    C30     1.419   .     S
C12    O54     1.281   .     A
C13    C15     1.392   .     A
C14    C16     1.390   .     A
C14    H40     1.082   .     S
C15    H41     1.082   .     S
C15    C17     1.390   .     A
C16    C18     1.418   .     A
C16    C22     1.416   .     A
C17    C19     1.418   .     A
C17    C24     1.416   .     A
C18    C20     1.416   .     A
C18    C577    1.391   .     S
C19    C21     1.416   .     A
C19    C576    1.391   1_554 S
C20    C25     1.407   .     A
C21    C23     1.407   .     A
C22    O60     1.381   .     S
C22    C581    1.405   .     S
C23    O51     1.386   .     S
C23    C580    1.405   1_554 S
C24    O50     1.381   .     S
C24    C583    1.405   1_554 S
C25    O52     1.386   .     S
C25    C582    1.405   .     S
C26    H42     1.084   .     S
C26    C152    1.370   1_455 S
C27    C30     1.397   .     A
C27    H43     1.084   .     S
C27    C91     1.370   .     S
C28    C30     1.397   .     A
C28    H44     1.084   .     S
C28    C88     1.370   .     S
C29    H45     1.084   .     S
C29    C151    1.370   1_455 S
H35    O60     0.990   .     S
H36    O50     0.990   .     S
H37    O51     0.989   .     S
H38    O52     0.989   .     S
N47    Zn61    2.005   .     S
N48    Zn62    2.005   .     S
O49    Zn61    2.000   .     S
O53    Zn62    2.000   .     S
O54    Zn61    2.000   .     S
O55    Zn62    2.000   .     S
O56    Zn61    2.020   .     S
O57    Zn62    2.020   .     S
O58    Zn61    2.022   .     S
O59    Zn62    2.022   .     S
C63    O117    1.281   .     A
C63    O111    1.281   .     A
C63    C64     1.419   .     S
C64    C88     1.397   .     A
C64    C91     1.397   .     A
C65    N110    1.366   .     A
C65    H108    1.082   .     S
C65    C440    1.415   1_545 S
C66    N109    1.366   .     A
C66    H94     1.082   .     S
C66    C253    1.415   .     S
C67    N110    1.366   .     A
C67    H95     1.082   .     S
C67    C438    1.415   1_545 S
C68    N109    1.366   .     A
C68    H96     1.082   .     S
C68    C251    1.415   .     S
C69    O118    1.286   .     A
C69    O121    1.286   .     A
C69    C75     1.440   .     S
C70    O119    1.286   .     A
C70    C73     1.440   .     S
C70    O120    1.286   .     A
C71    C82     1.387   .     A
C71    C73     1.392   .     A
C71    H93     1.084   .     S
C72    C83     1.387   .     A
C72    H101    1.084   .     S
C72    C75     1.392   .     A
C73    C76     1.392   .     A
C74    O115    1.281   .     A
C74    C92     1.419   .     S
C74    O116    1.281   .     A
C75    C77     1.392   .     A
C76    C78     1.390   .     A
C76    H102    1.082   .     S
C77    H103    1.082   .     S
C77    C79     1.390   .     A
C78    C80     1.418   .     A
C78    C84     1.416   .     A
C79    C81     1.418   .     A
C79    C86     1.416   .     A
C80    C82     1.416   .     A
C80    C639    1.391   .     S
C81    C83     1.416   .     A
C81    C638    1.391   1_554 S
C82    C87     1.407   .     A
C83    C85     1.407   .     A
C84    O122    1.381   .     S
C84    C643    1.405   .     S
C85    O113    1.386   .     S
C85    C642    1.405   1_554 S
C86    O112    1.381   .     S
C86    C645    1.405   1_554 S
C87    O114    1.386   .     S
C87    C644    1.405   .     S
C88    H104    1.084   .     S
C89    C92     1.397   .     A
C89    H105    1.084   .     S
C89    C153    1.370   .     S
C90    C92     1.397   .     A
C90    H106    1.084   .     S
C90    C150    1.370   .     S
C91    H107    1.084   .     S
H97    O122    0.990   .     S
H98    O112    0.990   .     S
H99    O113    0.989   .     S
H100   O114    0.989   .     S
N109   Zn123   2.005   .     S
N110   Zn124   2.005   .     S
O111   Zn123   2.000   .     S
O115   Zn124   2.000   .     S
O116   Zn123   2.000   .     S
O117   Zn124   2.000   .     S
O118   Zn123   2.020   .     S
O119   Zn124   2.020   .     S
O120   Zn123   2.022   .     S
O121   Zn124   2.022   .     S
C125   O179    1.281   .     A
C125   O173    1.281   .     A
C125   C126    1.419   .     S
C126   C150    1.397   .     A
C126   C153    1.397   .     A
C127   N172    1.366   .     A
C127   H170    1.082   .     S
C127   C502    1.415   1_545 S
C128   N171    1.366   .     A
C128   H156    1.082   .     S
C128   C315    1.415   .     S
C129   N172    1.366   .     A
C129   H157    1.082   .     S
C129   C500    1.415   1_545 S
C130   N171    1.366   .     A
C130   H158    1.082   .     S
C130   C313    1.415   .     S
C131   O180    1.286   .     A
C131   O183    1.286   .     A
C131   C137    1.440   .     S
C132   O181    1.286   .     A
C132   C135    1.440   .     S
C132   O182    1.286   .     A
C133   C144    1.387   .     A
C133   C135    1.392   .     A
C133   H155    1.084   .     S
C134   C145    1.387   .     A
C134   H163    1.084   .     S
C134   C137    1.392   .     A
C135   C138    1.392   .     A
C136   O177    1.281   .     A
C136   C154    1.419   .     S
C136   O178    1.281   .     A
C137   C139    1.392   .     A
C138   C140    1.390   .     A
C138   H164    1.082   .     S
C139   H165    1.082   .     S
C139   C141    1.390   .     A
C140   C142    1.418   .     A
C140   C146    1.416   .     A
C141   C143    1.418   .     A
C141   C148    1.416   .     A
C142   C144    1.416   .     A
C142   C701    1.391   .     S
C143   C145    1.416   .     A
C143   C700    1.391   1_554 S
C144   C149    1.407   .     A
C145   C147    1.407   .     A
C146   O184    1.381   .     S
C146   C705    1.405   .     S
C147   O175    1.386   .     S
C147   C704    1.405   1_554 S
C148   O174    1.381   .     S
C148   C707    1.405   1_554 S
C149   O176    1.386   .     S
C149   C706    1.405   .     S
C150   H166    1.084   .     S
C151   C154    1.397   .     A
C151   H167    1.084   .     S
C151   C29     1.370   1_655 S
C152   C154    1.397   .     A
C152   H168    1.084   .     S
C152   C26     1.370   1_655 S
C153   H169    1.084   .     S
H159   O184    0.990   .     S
H160   O174    0.990   .     S
H161   O175    0.989   .     S
H162   O176    0.989   .     S
N171   Zn185   2.005   .     S
N172   Zn186   2.005   .     S
O173   Zn185   2.000   .     S
O177   Zn186   2.000   .     S
O178   Zn185   2.000   .     S
O179   Zn186   2.000   .     S
O180   Zn185   2.020   .     S
O181   Zn186   2.020   .     S
O182   Zn185   2.022   .     S
O183   Zn186   2.022   .     S
C187   O241    1.281   .     A
C187   O235    1.281   .     A
C187   C188    1.419   .     S
C188   C212    1.397   .     A
C188   C215    1.397   .     A
C189   N234    1.366   .     A
C189   H232    1.082   .     S
C190   N233    1.366   .     A
C190   H218    1.082   .     S
C190   C377    1.415   .     S
C191   N234    1.366   .     A
C191   H219    1.082   .     S
C192   N233    1.366   .     A
C192   H220    1.082   .     S
C192   C375    1.415   .     S
C193   O242    1.286   .     A
C193   O245    1.286   .     A
C193   C199    1.440   .     S
C194   O243    1.286   .     A
C194   C197    1.440   .     S
C194   O244    1.286   .     A
C195   C206    1.387   .     A
C195   C197    1.392   .     A
C195   H217    1.084   .     S
C196   C207    1.387   .     A
C196   H225    1.084   .     S
C196   C199    1.392   .     A
C197   C200    1.392   .     A
C198   O239    1.281   .     A
C198   C216    1.419   .     S
C198   O240    1.281   .     A
C199   C201    1.392   .     A
C200   C202    1.390   .     A
C200   H226    1.082   .     S
C201   H227    1.082   .     S
C201   C203    1.390   .     A
C202   C204    1.418   .     A
C202   C208    1.416   .     A
C203   C205    1.418   .     A
C203   C210    1.416   .     A
C204   C206    1.416   .     A
C204   C763    1.391   .     S
C205   C207    1.416   .     A
C205   C762    1.391   1_554 S
C206   C211    1.407   .     A
C207   C209    1.407   .     A
C208   O246    1.381   .     S
C208   C767    1.405   .     S
C209   O237    1.386   .     S
C209   C766    1.405   1_554 S
C210   O236    1.381   .     S
C210   C769    1.405   1_554 S
C211   O238    1.386   .     S
C211   C768    1.405   .     S
C212   H228    1.084   .     S
C212   C338    1.370   1_455 S
C213   C216    1.397   .     A
C213   H229    1.084   .     S
C213   C277    1.370   .     S
C214   C216    1.397   .     A
C214   H230    1.084   .     S
C214   C274    1.370   .     S
C215   H231    1.084   .     S
C215   C337    1.370   1_455 S
H221   O246    0.990   .     S
H222   O236    0.990   .     S
H223   O237    0.989   .     S
H224   O238    0.989   .     S
N233   Zn247   2.005   .     S
N234   Zn248   2.005   .     S
O235   Zn247   2.000   .     S
O239   Zn248   2.000   .     S
O240   Zn247   2.000   .     S
O241   Zn248   2.000   .     S
O242   Zn247   2.020   .     S
O243   Zn248   2.020   .     S
O244   Zn247   2.022   .     S
O245   Zn248   2.022   .     S
C249   O303    1.281   .     A
C249   O297    1.281   .     A
C249   C250    1.419   .     S
C250   C274    1.397   .     A
C250   C277    1.397   .     A
C251   N296    1.366   .     A
C251   H294    1.082   .     S
C252   N295    1.366   .     A
C252   H280    1.082   .     S
C252   C439    1.415   .     S
C253   N296    1.366   .     A
C253   H281    1.082   .     S
C254   N295    1.366   .     A
C254   H282    1.082   .     S
C254   C437    1.415   .     S
C255   O304    1.286   .     A
C255   O307    1.286   .     A
C255   C261    1.440   .     S
C256   O305    1.286   .     A
C256   C259    1.440   .     S
C256   O306    1.286   .     A
C257   C268    1.387   .     A
C257   C259    1.392   .     A
C257   H279    1.084   .     S
C258   C269    1.387   .     A
C258   H287    1.084   .     S
C258   C261    1.392   .     A
C259   C262    1.392   .     A
C260   O301    1.281   .     A
C260   C278    1.419   .     S
C260   O302    1.281   .     A
C261   C263    1.392   .     A
C262   C264    1.390   .     A
C262   H288    1.082   .     S
C263   H289    1.082   .     S
C263   C265    1.390   .     A
C264   C266    1.418   .     A
C264   C270    1.416   .     A
C265   C267    1.418   .     A
C265   C272    1.416   .     A
C266   C268    1.416   .     A
C266   C825    1.391   .     S
C267   C269    1.416   .     A
C267   C824    1.391   1_554 S
C268   C273    1.407   .     A
C269   C271    1.407   .     A
C270   O308    1.381   .     S
C270   C829    1.405   .     S
C271   O299    1.386   .     S
C271   C828    1.405   1_554 S
C272   O298    1.381   .     S
C272   C831    1.405   1_554 S
C273   O300    1.386   .     S
C273   C830    1.405   .     S
C274   H290    1.084   .     S
C275   C278    1.397   .     A
C275   H291    1.084   .     S
C275   C339    1.370   .     S
C276   C278    1.397   .     A
C276   H292    1.084   .     S
C276   C336    1.370   .     S
C277   H293    1.084   .     S
H283   O308    0.990   .     S
H284   O298    0.990   .     S
H285   O299    0.989   .     S
H286   O300    0.989   .     S
N295   Zn309   2.005   .     S
N296   Zn310   2.005   .     S
O297   Zn309   2.000   .     S
O301   Zn310   2.000   .     S
O302   Zn309   2.000   .     S
O303   Zn310   2.000   .     S
O304   Zn309   2.020   .     S
O305   Zn310   2.020   .     S
O306   Zn309   2.022   .     S
O307   Zn310   2.022   .     S
C311   O365    1.281   .     A
C311   O359    1.281   .     A
C311   C312    1.419   .     S
C312   C336    1.397   .     A
C312   C339    1.397   .     A
C313   N358    1.366   .     A
C313   H356    1.082   .     S
C314   N357    1.366   .     A
C314   H342    1.082   .     S
C314   C501    1.415   .     S
C315   N358    1.366   .     A
C315   H343    1.082   .     S
C316   N357    1.366   .     A
C316   H344    1.082   .     S
C316   C499    1.415   .     S
C317   O366    1.286   .     A
C317   O369    1.286   .     A
C317   C323    1.440   .     S
C318   O367    1.286   .     A
C318   C321    1.440   .     S
C318   O368    1.286   .     A
C319   C330    1.387   .     A
C319   C321    1.392   .     A
C319   H341    1.084   .     S
C320   C331    1.387   .     A
C320   H349    1.084   .     S
C320   C323    1.392   .     A
C321   C324    1.392   .     A
C322   O363    1.281   .     A
C322   C340    1.419   .     S
C322   O364    1.281   .     A
C323   C325    1.392   .     A
C324   C326    1.390   .     A
C324   H350    1.082   .     S
C325   H351    1.082   .     S
C325   C327    1.390   .     A
C326   C328    1.418   .     A
C326   C332    1.416   .     A
C327   C329    1.418   .     A
C327   C334    1.416   .     A
C328   C330    1.416   .     A
C328   C887    1.391   .     S
C329   C331    1.416   .     A
C329   C886    1.391   1_554 S
C330   C335    1.407   .     A
C331   C333    1.407   .     A
C332   O370    1.381   .     S
C332   C891    1.405   .     S
C333   O361    1.386   .     S
C333   C890    1.405   1_554 S
C334   O360    1.381   .     S
C334   C893    1.405   1_554 S
C335   O362    1.386   .     S
C335   C892    1.405   .     S
C336   H352    1.084   .     S
C337   C340    1.397   .     A
C337   H353    1.084   .     S
C337   C215    1.370   1_655 S
C338   C340    1.397   .     A
C338   H354    1.084   .     S
C338   C212    1.370   1_655 S
C339   H355    1.084   .     S
H345   O370    0.990   .     S
H346   O360    0.990   .     S
H347   O361    0.989   .     S
H348   O362    0.989   .     S
N357   Zn371   2.005   .     S
N358   Zn372   2.005   .     S
O359   Zn371   2.000   .     S
O363   Zn372   2.000   .     S
O364   Zn371   2.000   .     S
O365   Zn372   2.000   .     S
O366   Zn371   2.020   .     S
O367   Zn372   2.020   .     S
O368   Zn371   2.022   .     S
O369   Zn372   2.022   .     S
C373   O427    1.281   .     A
C373   O421    1.281   .     A
C373   C374    1.419   .     S
C374   C398    1.397   .     A
C374   C401    1.397   .     A
C375   N420    1.366   .     A
C375   H418    1.082   .     S
C376   N419    1.366   .     A
C376   H404    1.082   .     S
C376   C5      1.415   1_565 S
C377   N420    1.366   .     A
C377   H405    1.082   .     S
C378   N419    1.366   .     A
C378   H406    1.082   .     S
C378   C3      1.415   1_565 S
C379   O428    1.286   .     A
C379   O431    1.286   .     A
C379   C385    1.440   .     S
C380   O429    1.286   .     A
C380   C383    1.440   .     S
C380   O430    1.286   .     A
C381   C392    1.387   .     A
C381   C383    1.392   .     A
C381   H403    1.084   .     S
C382   C393    1.387   .     A
C382   H411    1.084   .     S
C382   C385    1.392   .     A
C383   C386    1.392   .     A
C384   O425    1.281   .     A
C384   C402    1.419   .     S
C384   O426    1.281   .     A
C385   C387    1.392   .     A
C386   C388    1.390   .     A
C386   H412    1.082   .     S
C387   H413    1.082   .     S
C387   C389    1.390   .     A
C388   C390    1.418   .     A
C388   C394    1.416   .     A
C389   C391    1.418   .     A
C389   C396    1.416   .     A
C390   C392    1.416   .     A
C390   C949    1.391   .     S
C391   C393    1.416   .     A
C391   C948    1.391   1_554 S
C392   C397    1.407   .     A
C393   C395    1.407   .     A
C394   O432    1.381   .     S
C394   C953    1.405   .     S
C395   O423    1.386   .     S
C395   C952    1.405   1_554 S
C396   O422    1.381   .     S
C396   C955    1.405   1_554 S
C397   O424    1.386   .     S
C397   C954    1.405   .     S
C398   H414    1.084   .     S
C398   C524    1.370   1_455 S
C399   C402    1.397   .     A
C399   H415    1.084   .     S
C399   C463    1.370   .     S
C400   C402    1.397   .     A
C400   H416    1.084   .     S
C400   C460    1.370   .     S
C401   H417    1.084   .     S
C401   C523    1.370   1_455 S
H407   O432    0.990   .     S
H408   O422    0.990   .     S
H409   O423    0.989   .     S
H410   O424    0.989   .     S
N419   Zn433   2.005   .     S
N420   Zn434   2.005   .     S
O421   Zn433   2.000   .     S
O425   Zn434   2.000   .     S
O426   Zn433   2.000   .     S
O427   Zn434   2.000   .     S
O428   Zn433   2.020   .     S
O429   Zn434   2.020   .     S
O430   Zn433   2.022   .     S
O431   Zn434   2.022   .     S
C435   O489    1.281   .     A
C435   O483    1.281   .     A
C435   C436    1.419   .     S
C436   C460    1.397   .     A
C436   C463    1.397   .     A
C437   N482    1.366   .     A
C437   H480    1.082   .     S
C438   N481    1.366   .     A
C438   H466    1.082   .     S
C438   C67     1.415   1_565 S
C439   N482    1.366   .     A
C439   H467    1.082   .     S
C440   N481    1.366   .     A
C440   H468    1.082   .     S
C440   C65     1.415   1_565 S
C441   O490    1.286   .     A
C441   O493    1.286   .     A
C441   C447    1.440   .     S
C442   O491    1.286   .     A
C442   C445    1.440   .     S
C442   O492    1.286   .     A
C443   C454    1.387   .     A
C443   C445    1.392   .     A
C443   H465    1.084   .     S
C444   C455    1.387   .     A
C444   H473    1.084   .     S
C444   C447    1.392   .     A
C445   C448    1.392   .     A
C446   O487    1.281   .     A
C446   C464    1.419   .     S
C446   O488    1.281   .     A
C447   C449    1.392   .     A
C448   C450    1.390   .     A
C448   H474    1.082   .     S
C449   H475    1.082   .     S
C449   C451    1.390   .     A
C450   C452    1.418   .     A
C450   C456    1.416   .     A
C451   C453    1.418   .     A
C451   C458    1.416   .     A
C452   C454    1.416   .     A
C452   C1011   1.391   .     S
C453   C455    1.416   .     A
C453   C1010   1.391   1_554 S
C454   C459    1.407   .     A
C455   C457    1.407   .     A
C456   O494    1.381   .     S
C456   C1015   1.405   .     S
C457   O485    1.386   .     S
C457   C1014   1.405   1_554 S
C458   O484    1.381   .     S
C458   C1017   1.405   1_554 S
C459   O486    1.386   .     S
C459   C1016   1.405   .     S
C460   H476    1.084   .     S
C461   C464    1.397   .     A
C461   H477    1.084   .     S
C461   C525    1.370   .     S
C462   C464    1.397   .     A
C462   H478    1.084   .     S
C462   C522    1.370   .     S
C463   H479    1.084   .     S
H469   O494    0.990   .     S
H470   O484    0.990   .     S
H471   O485    0.989   .     S
H472   O486    0.989   .     S
N481   Zn495   2.005   .     S
N482   Zn496   2.005   .     S
O483   Zn495   2.000   .     S
O487   Zn496   2.000   .     S
O488   Zn495   2.000   .     S
O489   Zn496   2.000   .     S
O490   Zn495   2.020   .     S
O491   Zn496   2.020   .     S
O492   Zn495   2.022   .     S
O493   Zn496   2.022   .     S
C497   O551    1.281   .     A
C497   O545    1.281   .     A
C497   C498    1.419   .     S
C498   C522    1.397   .     A
C498   C525    1.397   .     A
C499   N544    1.366   .     A
C499   H542    1.082   .     S
C500   N543    1.366   .     A
C500   H528    1.082   .     S
C500   C129    1.415   1_565 S
C501   N544    1.366   .     A
C501   H529    1.082   .     S
C502   N543    1.366   .     A
C502   H530    1.082   .     S
C502   C127    1.415   1_565 S
C503   O552    1.286   .     A
C503   O555    1.286   .     A
C503   C509    1.440   .     S
C504   O553    1.286   .     A
C504   C507    1.440   .     S
C504   O554    1.286   .     A
C505   C516    1.387   .     A
C505   C507    1.392   .     A
C505   H527    1.084   .     S
C506   C517    1.387   .     A
C506   H535    1.084   .     S
C506   C509    1.392   .     A
C507   C510    1.392   .     A
C508   O549    1.281   .     A
C508   C526    1.419   .     S
C508   O550    1.281   .     A
C509   C511    1.392   .     A
C510   C512    1.390   .     A
C510   H536    1.082   .     S
C511   H537    1.082   .     S
C511   C513    1.390   .     A
C512   C514    1.418   .     A
C512   C518    1.416   .     A
C513   C515    1.418   .     A
C513   C520    1.416   .     A
C514   C516    1.416   .     A
C514   C1073   1.391   .     S
C515   C517    1.416   .     A
C515   C1072   1.391   1_554 S
C516   C521    1.407   .     A
C517   C519    1.407   .     A
C518   O556    1.381   .     S
C518   C1077   1.405   .     S
C519   O547    1.386   .     S
C519   C1076   1.405   1_554 S
C520   O546    1.381   .     S
C520   C1079   1.405   1_554 S
C521   O548    1.386   .     S
C521   C1078   1.405   .     S
C522   H538    1.084   .     S
C523   C526    1.397   .     A
C523   H539    1.084   .     S
C523   C401    1.370   1_655 S
C524   C526    1.397   .     A
C524   H540    1.084   .     S
C524   C398    1.370   1_655 S
C525   H541    1.084   .     S
H531   O556    0.990   .     S
H532   O546    0.990   .     S
H533   O547    0.989   .     S
H534   O548    0.989   .     S
N543   Zn557   2.005   .     S
N544   Zn558   2.005   .     S
O545   Zn557   2.000   .     S
O549   Zn558   2.000   .     S
O550   Zn557   2.000   .     S
O551   Zn558   2.000   .     S
O552   Zn557   2.020   .     S
O553   Zn558   2.020   .     S
O554   Zn557   2.022   .     S
O555   Zn558   2.022   .     S
C559   O613    1.281   .     A
C559   O607    1.281   .     A
C559   C560    1.419   .     S
C560   C584    1.397   .     A
C560   C587    1.397   .     A
C561   N606    1.366   .     A
C561   H604    1.082   .     S
C561   C936    1.415   1_545 S
C562   N605    1.366   .     A
C562   H590    1.082   .     S
C562   C749    1.415   .     S
C563   N606    1.366   .     A
C563   H591    1.082   .     S
C563   C934    1.415   1_545 S
C564   N605    1.366   .     A
C564   H592    1.082   .     S
C564   C747    1.415   .     S
C565   O614    1.286   .     A
C565   O617    1.286   .     A
C565   C571    1.440   .     S
C566   O615    1.286   .     A
C566   C569    1.440   .     S
C566   O616    1.286   .     A
C567   C578    1.387   .     A
C567   C569    1.392   .     A
C567   H589    1.084   .     S
C568   C579    1.387   .     A
C568   H597    1.084   .     S
C568   C571    1.392   .     A
C569   C572    1.392   .     A
C570   O611    1.281   .     A
C570   C588    1.419   .     S
C570   O612    1.281   .     A
C571   C573    1.392   .     A
C572   C574    1.390   .     A
C572   H598    1.082   .     S
C573   H599    1.082   .     S
C573   C575    1.390   .     A
C574   C576    1.418   .     A
C574   C580    1.416   .     A
C575   C577    1.418   .     A
C575   C582    1.416   .     A
C576   C578    1.416   .     A
C576   C19     1.391   1_556 S
C577   C579    1.416   .     A
C578   C583    1.407   .     A
C579   C581    1.407   .     A
C580   O618    1.381   .     S
C580   C23     1.405   1_556 S
C581   O609    1.386   .     S
C582   O608    1.381   .     S
C583   O610    1.386   .     S
C583   C24     1.405   1_556 S
C584   H600    1.084   .     S
C584   C710    1.370   1_455 S
C585   C588    1.397   .     A
C585   H601    1.084   .     S
C585   C649    1.370   .     S
C586   C588    1.397   .     A
C586   H602    1.084   .     S
C586   C646    1.370   .     S
C587   H603    1.084   .     S
C587   C709    1.370   1_455 S
H593   O618    0.990   .     S
H594   O608    0.990   .     S
H595   O609    0.989   .     S
H596   O610    0.989   .     S
N605   Zn619   2.005   .     S
N606   Zn620   2.005   .     S
O607   Zn619   2.000   .     S
O611   Zn620   2.000   .     S
O612   Zn619   2.000   .     S
O613   Zn620   2.000   .     S
O614   Zn619   2.020   .     S
O615   Zn620   2.020   .     S
O616   Zn619   2.022   .     S
O617   Zn620   2.022   .     S
C621   O675    1.281   .     A
C621   O669    1.281   .     A
C621   C622    1.419   .     S
C622   C646    1.397   .     A
C622   C649    1.397   .     A
C623   N668    1.366   .     A
C623   H666    1.082   .     S
C623   C998    1.415   1_545 S
C624   N667    1.366   .     A
C624   H652    1.082   .     S
C624   C811    1.415   .     S
C625   N668    1.366   .     A
C625   H653    1.082   .     S
C625   C996    1.415   1_545 S
C626   N667    1.366   .     A
C626   H654    1.082   .     S
C626   C809    1.415   .     S
C627   O676    1.286   .     A
C627   O679    1.286   .     A
C627   C633    1.440   .     S
C628   O677    1.286   .     A
C628   C631    1.440   .     S
C628   O678    1.286   .     A
C629   C640    1.387   .     A
C629   C631    1.392   .     A
C629   H651    1.084   .     S
C630   C641    1.387   .     A
C630   H659    1.084   .     S
C630   C633    1.392   .     A
C631   C634    1.392   .     A
C632   O673    1.281   .     A
C632   C650    1.419   .     S
C632   O674    1.281   .     A
C633   C635    1.392   .     A
C634   C636    1.390   .     A
C634   H660    1.082   .     S
C635   H661    1.082   .     S
C635   C637    1.390   .     A
C636   C638    1.418   .     A
C636   C642    1.416   .     A
C637   C639    1.418   .     A
C637   C644    1.416   .     A
C638   C640    1.416   .     A
C638   C81     1.391   1_556 S
C639   C641    1.416   .     A
C640   C645    1.407   .     A
C641   C643    1.407   .     A
C642   O680    1.381   .     S
C642   C85     1.405   1_556 S
C643   O671    1.386   .     S
C644   O670    1.381   .     S
C645   O672    1.386   .     S
C645   C86     1.405   1_556 S
C646   H662    1.084   .     S
C647   C650    1.397   .     A
C647   H663    1.084   .     S
C647   C711    1.370   .     S
C648   C650    1.397   .     A
C648   H664    1.084   .     S
C648   C708    1.370   .     S
C649   H665    1.084   .     S
H655   O680    0.990   .     S
H656   O670    0.990   .     S
H657   O671    0.989   .     S
H658   O672    0.989   .     S
N667   Zn681   2.005   .     S
N668   Zn682   2.005   .     S
O669   Zn681   2.000   .     S
O673   Zn682   2.000   .     S
O674   Zn681   2.000   .     S
O675   Zn682   2.000   .     S
O676   Zn681   2.020   .     S
O677   Zn682   2.020   .     S
O678   Zn681   2.022   .     S
O679   Zn682   2.022   .     S
C683   O737    1.281   .     A
C683   O731    1.281   .     A
C683   C684    1.419   .     S
C684   C708    1.397   .     A
C684   C711    1.397   .     A
C685   N730    1.366   .     A
C685   H728    1.082   .     S
C685   C1060   1.415   1_545 S
C686   N729    1.366   .     A
C686   H714    1.082   .     S
C686   C873    1.415   .     S
C687   N730    1.366   .     A
C687   H715    1.082   .     S
C687   C1058   1.415   1_545 S
C688   N729    1.366   .     A
C688   H716    1.082   .     S
C688   C871    1.415   .     S
C689   O738    1.286   .     A
C689   O741    1.286   .     A
C689   C695    1.440   .     S
C690   O739    1.286   .     A
C690   C693    1.440   .     S
C690   O740    1.286   .     A
C691   C702    1.387   .     A
C691   C693    1.392   .     A
C691   H713    1.084   .     S
C692   C703    1.387   .     A
C692   H721    1.084   .     S
C692   C695    1.392   .     A
C693   C696    1.392   .     A
C694   O735    1.281   .     A
C694   C712    1.419   .     S
C694   O736    1.281   .     A
C695   C697    1.392   .     A
C696   C698    1.390   .     A
C696   H722    1.082   .     S
C697   H723    1.082   .     S
C697   C699    1.390   .     A
C698   C700    1.418   .     A
C698   C704    1.416   .     A
C699   C701    1.418   .     A
C699   C706    1.416   .     A
C700   C702    1.416   .     A
C700   C143    1.391   1_556 S
C701   C703    1.416   .     A
C702   C707    1.407   .     A
C703   C705    1.407   .     A
C704   O742    1.381   .     S
C704   C147    1.405   1_556 S
C705   O733    1.386   .     S
C706   O732    1.381   .     S
C707   O734    1.386   .     S
C707   C148    1.405   1_556 S
C708   H724    1.084   .     S
C709   C712    1.397   .     A
C709   H725    1.084   .     S
C709   C587    1.370   1_655 S
C710   C712    1.397   .     A
C710   H726    1.084   .     S
C710   C584    1.370   1_655 S
C711   H727    1.084   .     S
H717   O742    0.990   .     S
H718   O732    0.990   .     S
H719   O733    0.989   .     S
H720   O734    0.989   .     S
N729   Zn743   2.005   .     S
N730   Zn744   2.005   .     S
O731   Zn743   2.000   .     S
O735   Zn744   2.000   .     S
O736   Zn743   2.000   .     S
O737   Zn744   2.000   .     S
O738   Zn743   2.020   .     S
O739   Zn744   2.020   .     S
O740   Zn743   2.022   .     S
O741   Zn744   2.022   .     S
C745   O799    1.281   .     A
C745   O793    1.281   .     A
C745   C746    1.419   .     S
C746   C770    1.397   .     A
C746   C773    1.397   .     A
C747   N792    1.366   .     A
C747   H790    1.082   .     S
C748   N791    1.366   .     A
C748   H776    1.082   .     S
C748   C935    1.415   .     S
C749   N792    1.366   .     A
C749   H777    1.082   .     S
C750   N791    1.366   .     A
C750   H778    1.082   .     S
C750   C933    1.415   .     S
C751   O800    1.286   .     A
C751   O803    1.286   .     A
C751   C757    1.440   .     S
C752   O801    1.286   .     A
C752   C755    1.440   .     S
C752   O802    1.286   .     A
C753   C764    1.387   .     A
C753   C755    1.392   .     A
C753   H775    1.084   .     S
C754   C765    1.387   .     A
C754   H783    1.084   .     S
C754   C757    1.392   .     A
C755   C758    1.392   .     A
C756   O797    1.281   .     A
C756   C774    1.419   .     S
C756   O798    1.281   .     A
C757   C759    1.392   .     A
C758   C760    1.390   .     A
C758   H784    1.082   .     S
C759   H785    1.082   .     S
C759   C761    1.390   .     A
C760   C762    1.418   .     A
C760   C766    1.416   .     A
C761   C763    1.418   .     A
C761   C768    1.416   .     A
C762   C764    1.416   .     A
C762   C205    1.391   1_556 S
C763   C765    1.416   .     A
C764   C769    1.407   .     A
C765   C767    1.407   .     A
C766   O804    1.381   .     S
C766   C209    1.405   1_556 S
C767   O795    1.386   .     S
C768   O794    1.381   .     S
C769   O796    1.386   .     S
C769   C210    1.405   1_556 S
C770   H786    1.084   .     S
C770   C896    1.370   1_455 S
C771   C774    1.397   .     A
C771   H787    1.084   .     S
C771   C835    1.370   .     S
C772   C774    1.397   .     A
C772   H788    1.084   .     S
C772   C832    1.370   .     S
C773   H789    1.084   .     S
C773   C895    1.370   1_455 S
H779   O804    0.990   .     S
H780   O794    0.990   .     S
H781   O795    0.989   .     S
H782   O796    0.989   .     S
N791   Zn805   2.005   .     S
N792   Zn806   2.005   .     S
O793   Zn805   2.000   .     S
O797   Zn806   2.000   .     S
O798   Zn805   2.000   .     S
O799   Zn806   2.000   .     S
O800   Zn805   2.020   .     S
O801   Zn806   2.020   .     S
O802   Zn805   2.022   .     S
O803   Zn806   2.022   .     S
C807   O861    1.281   .     A
C807   O855    1.281   .     A
C807   C808    1.419   .     S
C808   C832    1.397   .     A
C808   C835    1.397   .     A
C809   N854    1.366   .     A
C809   H852    1.082   .     S
C810   N853    1.366   .     A
C810   H838    1.082   .     S
C810   C997    1.415   .     S
C811   N854    1.366   .     A
C811   H839    1.082   .     S
C812   N853    1.366   .     A
C812   H840    1.082   .     S
C812   C995    1.415   .     S
C813   O862    1.286   .     A
C813   O865    1.286   .     A
C813   C819    1.440   .     S
C814   O863    1.286   .     A
C814   C817    1.440   .     S
C814   O864    1.286   .     A
C815   C826    1.387   .     A
C815   C817    1.392   .     A
C815   H837    1.084   .     S
C816   C827    1.387   .     A
C816   H845    1.084   .     S
C816   C819    1.392   .     A
C817   C820    1.392   .     A
C818   O859    1.281   .     A
C818   C836    1.419   .     S
C818   O860    1.281   .     A
C819   C821    1.392   .     A
C820   C822    1.390   .     A
C820   H846    1.082   .     S
C821   H847    1.082   .     S
C821   C823    1.390   .     A
C822   C824    1.418   .     A
C822   C828    1.416   .     A
C823   C825    1.418   .     A
C823   C830    1.416   .     A
C824   C826    1.416   .     A
C824   C267    1.391   1_556 S
C825   C827    1.416   .     A
C826   C831    1.407   .     A
C827   C829    1.407   .     A
C828   O866    1.381   .     S
C828   C271    1.405   1_556 S
C829   O857    1.386   .     S
C830   O856    1.381   .     S
C831   O858    1.386   .     S
C831   C272    1.405   1_556 S
C832   H848    1.084   .     S
C833   C836    1.397   .     A
C833   H849    1.084   .     S
C833   C897    1.370   .     S
C834   C836    1.397   .     A
C834   H850    1.084   .     S
C834   C894    1.370   .     S
C835   H851    1.084   .     S
H841   O866    0.990   .     S
H842   O856    0.990   .     S
H843   O857    0.989   .     S
H844   O858    0.989   .     S
N853   Zn867   2.005   .     S
N854   Zn868   2.005   .     S
O855   Zn867   2.000   .     S
O859   Zn868   2.000   .     S
O860   Zn867   2.000   .     S
O861   Zn868   2.000   .     S
O862   Zn867   2.020   .     S
O863   Zn868   2.020   .     S
O864   Zn867   2.022   .     S
O865   Zn868   2.022   .     S
C869   O923    1.281   .     A
C869   O917    1.281   .     A
C869   C870    1.419   .     S
C870   C894    1.397   .     A
C870   C897    1.397   .     A
C871   N916    1.366   .     A
C871   H914    1.082   .     S
C872   N915    1.366   .     A
C872   H900    1.082   .     S
C872   C1059   1.415   .     S
C873   N916    1.366   .     A
C873   H901    1.082   .     S
C874   N915    1.366   .     A
C874   H902    1.082   .     S
C874   C1057   1.415   .     S
C875   O924    1.286   .     A
C875   O927    1.286   .     A
C875   C881    1.440   .     S
C876   O925    1.286   .     A
C876   C879    1.440   .     S
C876   O926    1.286   .     A
C877   C888    1.387   .     A
C877   C879    1.392   .     A
C877   H899    1.084   .     S
C878   C889    1.387   .     A
C878   H907    1.084   .     S
C878   C881    1.392   .     A
C879   C882    1.392   .     A
C880   O921    1.281   .     A
C880   C898    1.419   .     S
C880   O922    1.281   .     A
C881   C883    1.392   .     A
C882   C884    1.390   .     A
C882   H908    1.082   .     S
C883   H909    1.082   .     S
C883   C885    1.390   .     A
C884   C886    1.418   .     A
C884   C890    1.416   .     A
C885   C887    1.418   .     A
C885   C892    1.416   .     A
C886   C888    1.416   .     A
C886   C329    1.391   1_556 S
C887   C889    1.416   .     A
C888   C893    1.407   .     A
C889   C891    1.407   .     A
C890   O928    1.381   .     S
C890   C333    1.405   1_556 S
C891   O919    1.386   .     S
C892   O918    1.381   .     S
C893   O920    1.386   .     S
C893   C334    1.405   1_556 S
C894   H910    1.084   .     S
C895   C898    1.397   .     A
C895   H911    1.084   .     S
C895   C773    1.370   1_655 S
C896   C898    1.397   .     A
C896   H912    1.084   .     S
C896   C770    1.370   1_655 S
C897   H913    1.084   .     S
H903   O928    0.990   .     S
H904   O918    0.990   .     S
H905   O919    0.989   .     S
H906   O920    0.989   .     S
N915   Zn929   2.005   .     S
N916   Zn930   2.005   .     S
O917   Zn929   2.000   .     S
O921   Zn930   2.000   .     S
O922   Zn929   2.000   .     S
O923   Zn930   2.000   .     S
O924   Zn929   2.020   .     S
O925   Zn930   2.020   .     S
O926   Zn929   2.022   .     S
O927   Zn930   2.022   .     S
C931   O985    1.281   .     A
C931   O979    1.281   .     A
C931   C932    1.419   .     S
C932   C956    1.397   .     A
C932   C959    1.397   .     A
C933   N978    1.366   .     A
C933   H976    1.082   .     S
C934   N977    1.366   .     A
C934   H962    1.082   .     S
C934   C563    1.415   1_565 S
C935   N978    1.366   .     A
C935   H963    1.082   .     S
C936   N977    1.366   .     A
C936   H964    1.082   .     S
C936   C561    1.415   1_565 S
C937   O986    1.286   .     A
C937   O989    1.286   .     A
C937   C943    1.440   .     S
C938   O987    1.286   .     A
C938   C941    1.440   .     S
C938   O988    1.286   .     A
C939   C950    1.387   .     A
C939   C941    1.392   .     A
C939   H961    1.084   .     S
C940   C951    1.387   .     A
C940   H969    1.084   .     S
C940   C943    1.392   .     A
C941   C944    1.392   .     A
C942   O983    1.281   .     A
C942   C960    1.419   .     S
C942   O984    1.281   .     A
C943   C945    1.392   .     A
C944   C946    1.390   .     A
C944   H970    1.082   .     S
C945   H971    1.082   .     S
C945   C947    1.390   .     A
C946   C948    1.418   .     A
C946   C952    1.416   .     A
C947   C949    1.418   .     A
C947   C954    1.416   .     A
C948   C950    1.416   .     A
C948   C391    1.391   1_556 S
C949   C951    1.416   .     A
C950   C955    1.407   .     A
C951   C953    1.407   .     A
C952   O990    1.381   .     S
C952   C395    1.405   1_556 S
C953   O981    1.386   .     S
C954   O980    1.381   .     S
C955   O982    1.386   .     S
C955   C396    1.405   1_556 S
C956   H972    1.084   .     S
C956   C1082   1.370   1_455 S
C957   C960    1.397   .     A
C957   H973    1.084   .     S
C957   C1021   1.370   .     S
C958   C960    1.397   .     A
C958   H974    1.084   .     S
C958   C1018   1.370   .     S
C959   H975    1.084   .     S
C959   C1081   1.370   1_455 S
H965   O990    0.990   .     S
H966   O980    0.990   .     S
H967   O981    0.989   .     S
H968   O982    0.989   .     S
N977   Zn991   2.005   .     S
N978   Zn992   2.005   .     S
O979   Zn991   2.000   .     S
O983   Zn992   2.000   .     S
O984   Zn991   2.000   .     S
O985   Zn992   2.000   .     S
O986   Zn991   2.020   .     S
O987   Zn992   2.020   .     S
O988   Zn991   2.022   .     S
O989   Zn992   2.022   .     S
C993   O1047   1.281   .     A
C993   O1041   1.281   .     A
C993   C994    1.419   .     S
C994   C1018   1.397   .     A
C994   C1021   1.397   .     A
C995   N1040   1.366   .     A
C995   H1038   1.082   .     S
C996   N1039   1.366   .     A
C996   H1024   1.082   .     S
C996   C625    1.415   1_565 S
C997   N1040   1.366   .     A
C997   H1025   1.082   .     S
C998   N1039   1.366   .     A
C998   H1026   1.082   .     S
C998   C623    1.415   1_565 S
C999   O1048   1.286   .     A
C999   O1051   1.286   .     A
C999   C1005   1.440   .     S
C1000  O1049   1.286   .     A
C1000  C1003   1.440   .     S
C1000  O1050   1.286   .     A
C1001  C1012   1.387   .     A
C1001  C1003   1.392   .     A
C1001  H1023   1.084   .     S
C1002  C1013   1.387   .     A
C1002  H1031   1.084   .     S
C1002  C1005   1.392   .     A
C1003  C1006   1.392   .     A
C1004  O1045   1.281   .     A
C1004  C1022   1.419   .     S
C1004  O1046   1.281   .     A
C1005  C1007   1.392   .     A
C1006  C1008   1.390   .     A
C1006  H1032   1.082   .     S
C1007  H1033   1.082   .     S
C1007  C1009   1.390   .     A
C1008  C1010   1.418   .     A
C1008  C1014   1.416   .     A
C1009  C1011   1.418   .     A
C1009  C1016   1.416   .     A
C1010  C1012   1.416   .     A
C1010  C453    1.391   1_556 S
C1011  C1013   1.416   .     A
C1012  C1017   1.407   .     A
C1013  C1015   1.407   .     A
C1014  O1052   1.381   .     S
C1014  C457    1.405   1_556 S
C1015  O1043   1.386   .     S
C1016  O1042   1.381   .     S
C1017  O1044   1.386   .     S
C1017  C458    1.405   1_556 S
C1018  H1034   1.084   .     S
C1019  C1022   1.397   .     A
C1019  H1035   1.084   .     S
C1019  C1083   1.370   .     S
C1020  C1022   1.397   .     A
C1020  H1036   1.084   .     S
C1020  C1080   1.370   .     S
C1021  H1037   1.084   .     S
H1027  O1052   0.990   .     S
H1028  O1042   0.990   .     S
H1029  O1043   0.989   .     S
H1030  O1044   0.989   .     S
N1039  Zn1053  2.005   .     S
N1040  Zn1054  2.005   .     S
O1041  Zn1053  2.000   .     S
O1045  Zn1054  2.000   .     S
O1046  Zn1053  2.000   .     S
O1047  Zn1054  2.000   .     S
O1048  Zn1053  2.020   .     S
O1049  Zn1054  2.020   .     S
O1050  Zn1053  2.022   .     S
O1051  Zn1054  2.022   .     S
C1055  O1109   1.281   .     A
C1055  O1103   1.281   .     A
C1055  C1056   1.419   .     S
C1056  C1080   1.397   .     A
C1056  C1083   1.397   .     A
C1057  N1102   1.366   .     A
C1057  H1100   1.082   .     S
C1058  N1101   1.366   .     A
C1058  H1086   1.082   .     S
C1058  C687    1.415   1_565 S
C1059  N1102   1.366   .     A
C1059  H1087   1.082   .     S
C1060  N1101   1.366   .     A
C1060  H1088   1.082   .     S
C1060  C685    1.415   1_565 S
C1061  O1110   1.286   .     A
C1061  O1113   1.286   .     A
C1061  C1067   1.440   .     S
C1062  O1111   1.286   .     A
C1062  C1065   1.440   .     S
C1062  O1112   1.286   .     A
C1063  C1074   1.387   .     A
C1063  C1065   1.392   .     A
C1063  H1085   1.084   .     S
C1064  C1075   1.387   .     A
C1064  H1093   1.084   .     S
C1064  C1067   1.392   .     A
C1065  C1068   1.392   .     A
C1066  O1107   1.281   .     A
C1066  C1084   1.419   .     S
C1066  O1108   1.281   .     A
C1067  C1069   1.392   .     A
C1068  C1070   1.390   .     A
C1068  H1094   1.082   .     S
C1069  H1095   1.082   .     S
C1069  C1071   1.390   .     A
C1070  C1072   1.418   .     A
C1070  C1076   1.416   .     A
C1071  C1073   1.418   .     A
C1071  C1078   1.416   .     A
C1072  C1074   1.416   .     A
C1072  C515    1.391   1_556 S
C1073  C1075   1.416   .     A
C1074  C1079   1.407   .     A
C1075  C1077   1.407   .     A
C1076  O1114   1.381   .     S
C1076  C519    1.405   1_556 S
C1077  O1105   1.386   .     S
C1078  O1104   1.381   .     S
C1079  O1106   1.386   .     S
C1079  C520    1.405   1_556 S
C1080  H1096   1.084   .     S
C1081  C1084   1.397   .     A
C1081  H1097   1.084   .     S
C1081  C959    1.370   1_655 S
C1082  C1084   1.397   .     A
C1082  H1098   1.084   .     S
C1082  C956    1.370   1_655 S
C1083  H1099   1.084   .     S
H1089  O1114   0.990   .     S
H1090  O1104   0.990   .     S
H1091  O1105   0.989   .     S
H1092  O1106   0.989   .     S
N1101  Zn1115  2.005   .     S
N1102  Zn1116  2.005   .     S
O1103  Zn1115  2.000   .     S
O1107  Zn1116  2.000   .     S
O1108  Zn1115  2.000   .     S
O1109  Zn1116  2.000   .     S
O1110  Zn1115  2.020   .     S
O1111  Zn1116  2.020   .     S
O1112  Zn1115  2.022   .     S
O1113  Zn1116  2.022   .     S
