data_str_m3_o1_o1_pcu_sym.60
_audit_creation_date              2020-01-03
_audit_creation_method            'Materials Studio'
_symmetry_space_group_name_H-M    'P1'
_symmetry_Int_Tables_number       1
_symmetry_cell_setting            triclinic
loop_
_symmetry_equiv_pos_as_xyz
  x,y,z
_cell_length_a                    31.5195
_cell_length_b                    30.9967
_cell_length_c                    30.2135
_cell_angle_alpha                 90.2933
_cell_angle_beta                  90.6871
_cell_angle_gamma                 89.6205
loop_
_atom_site_label
_atom_site_type_symbol
_atom_site_fract_x
_atom_site_fract_y
_atom_site_fract_z
_atom_site_U_iso_or_equiv
_atom_site_adp_type
_atom_site_occupancy
C1     C     0.06124   0.19133   0.16669   0.00000  Uiso   1.00
C2     C     0.00372   0.21290   0.30976   0.00000  Uiso   1.00
C3     C     0.49796   0.21264   0.02317   0.00000  Uiso   1.00
C4     C     0.49347   0.28700   0.31033   0.00000  Uiso   1.00
C5     C     0.24928   0.03739   0.02385   0.00000  Uiso   1.00
C6     C     0.25373   0.46290   0.30976   0.00000  Uiso   1.00
C7     C     0.24797   0.46264   0.02317   0.00000  Uiso   1.00
C8     C     0.24347   0.03699   0.31033   0.00000  Uiso   1.00
C9     C     0.38929   0.14095   0.12646   0.00000  Uiso   1.00
C10    C     0.10848   0.36147   0.20689   0.00000  Uiso   1.00
C11    C     0.11235   0.35541   0.12696   0.00000  Uiso   1.00
C12    C     0.44026   0.31003   0.16681   0.00000  Uiso   1.00
C13    C     0.39489   0.13639   0.20610   0.00000  Uiso   1.00
C14    C     0.10954   0.14055   0.20674   0.00000  Uiso   1.00
C15    C     0.40505   0.37304   0.13186   0.00000  Uiso   1.00
C16    C     0.38416   0.35305   0.20520   0.00000  Uiso   1.00
C17    C     0.11959   0.14954   0.12814   0.00000  Uiso   1.00
C18    C     0.13929   0.39095   0.12646   0.00000  Uiso   1.00
C19    C     0.35848   0.11147   0.20689   0.00000  Uiso   1.00
C20    C     0.36235   0.10541   0.12696   0.00000  Uiso   1.00
C21    C     0.14488   0.38640   0.20610   0.00000  Uiso   1.00
C22    C     0.35955   0.39055   0.20674   0.00000  Uiso   1.00
C23    C     0.44061   0.18946   0.16650   0.00000  Uiso   1.00
C24    C     0.15504   0.12302   0.13186   0.00000  Uiso   1.00
C25    C     0.13415   0.10305   0.20520   0.00000  Uiso   1.00
C26    C     0.36960   0.39956   0.12815   0.00000  Uiso   1.00
C27    C     0.09337   0.34295   0.16702   0.00000  Uiso   1.00
C28    C     0.40793   0.15556   0.16632   0.00000  Uiso   1.00
C29    C     0.40870   0.34480   0.16759   0.00000  Uiso   1.00
C30    C     0.09649   0.15991   0.16679   0.00000  Uiso   1.00
C31    C     0.34337   0.09295   0.16701   0.00000  Uiso   1.00
C32    C     0.15793   0.40557   0.16632   0.00000  Uiso   1.00
C33    C     0.15869   0.09479   0.16760   0.00000  Uiso   1.00
C34    C     0.06011   0.30976   0.16687   0.00000  Uiso   1.00
C35    C     0.34650   0.40992   0.16680   0.00000  Uiso   1.00
C36    C     0.37365   0.19480   0.07754   0.00000  Uiso   1.00
C37    C     0.32758   0.18191   0.06860   0.00000  Uiso   1.00
C38    C     0.30173   0.22001   0.05244   0.00000  Uiso   1.00
C39    C     0.05755   0.36786   0.26021   0.00000  Uiso   1.00
C40    C     0.06099   0.41566   0.27122   0.00000  Uiso   1.00
C41    C     0.01791   0.43218   0.28693   0.00000  Uiso   1.00
C42    C     0.13249   0.29865   0.08364   0.00000  Uiso   1.00
C43    C     0.17075   0.31108   0.05576   0.00000  Uiso   1.00
C44    C     0.20262   0.27421   0.05261   0.00000  Uiso   1.00
C45    C     0.31124   0.44134   0.16669   0.00000  Uiso   1.00
C46    C     0.45050   0.10864   0.24668   0.00000  Uiso   1.00
C47    C     0.43756   0.06154   0.23814   0.00000  Uiso   1.00
C48    C     0.47387   0.03129   0.25066   0.00000  Uiso   1.00
C49    C     0.13933   0.18772   0.25473   0.00000  Uiso   1.00
C50    C     0.13851   0.20668   0.30139   0.00000  Uiso   1.00
C51    C     0.10457   0.24180   0.30674   0.00000  Uiso   1.00
C52    C     0.47110   0.40198   0.12522   0.00000  Uiso   1.00
C53    C     0.45752   0.44596   0.14447   0.00000  Uiso   1.00
C54    C     0.49559   0.47248   0.15950   0.00000  Uiso   1.00
C55    C     0.35152   0.30470   0.24846   0.00000  Uiso   1.00
C56    C     0.19026   0.06002   0.16682   0.00000  Uiso   1.00
C57    C     0.35984   0.27053   0.28335   0.00000  Uiso   1.00
C58    C     0.39194   0.23711   0.26863   0.00000  Uiso   1.00
C59    C     0.07995   0.14681   0.06540   0.00000  Uiso   1.00
C60    C     0.09345   0.10396   0.04431   0.00000  Uiso   1.00
C61    C     0.05350   0.08018   0.02925   0.00000  Uiso   1.00
C62    C     0.12367   0.44480   0.07755   0.00000  Uiso   1.00
C63    C     0.07759   0.43193   0.06860   0.00000  Uiso   1.00
C64    C     0.05177   0.47004   0.05244   0.00000  Uiso   1.00
C65    C     0.30754   0.11787   0.26020   0.00000  Uiso   1.00
C66    C     0.31098   0.16567   0.27118   0.00000  Uiso   1.00
C67    C     0.19060   0.43946   0.16650   0.00000  Uiso   1.00
C68    C     0.26790   0.18220   0.28690   0.00000  Uiso   1.00
C69    C     0.38247   0.04864   0.08365   0.00000  Uiso   1.00
C70    C     0.42077   0.06106   0.05581   0.00000  Uiso   1.00
C71    C     0.45263   0.02417   0.05268   0.00000  Uiso   1.00
C72    C     0.20050   0.35867   0.24668   0.00000  Uiso   1.00
C73    C     0.18757   0.31157   0.23816   0.00000  Uiso   1.00
C74    C     0.22391   0.28134   0.25062   0.00000  Uiso   1.00
C75    C     0.38933   0.43771   0.25474   0.00000  Uiso   1.00
C76    C     0.38850   0.45669   0.30140   0.00000  Uiso   1.00
C77    C     0.35457   0.49182   0.30673   0.00000  Uiso   1.00
C78    C     0.31010   0.05976   0.16687   0.00000  Uiso   1.00
C79    C     0.22109   0.15197   0.12525   0.00000  Uiso   1.00
C80    C     0.20751   0.19598   0.14441   0.00000  Uiso   1.00
C81    C     0.24558   0.22249   0.15948   0.00000  Uiso   1.00
C82    C     0.10149   0.05479   0.24857   0.00000  Uiso   1.00
C83    C     0.10983   0.02052   0.28336   0.00000  Uiso   1.00
C84    C     0.14191   0.48713   0.26852   0.00000  Uiso   1.00
C85    C     0.32996   0.39680   0.06540   0.00000  Uiso   1.00
C86    C     0.34347   0.35396   0.04433   0.00000  Uiso   1.00
C87    C     0.30354   0.33017   0.02925   0.00000  Uiso   1.00
C88    C     0.49928   0.28739   0.02385   0.00000  Uiso   1.00
Cl89   Cl    0.00510   0.33660   0.05100   0.00000  Uiso   1.00
Cl90   Cl    0.02057   0.16610   0.28403   0.00000  Uiso   1.00
Cl91   Cl    0.48311   0.16438   0.04795   0.00000  Uiso   1.00
Cl92   Cl    0.46943   0.33272   0.28704   0.00000  Uiso   1.00
Cl93   Cl    0.25509   0.08660   0.05100   0.00000  Uiso   1.00
Cl94   Cl    0.27060   0.41611   0.28404   0.00000  Uiso   1.00
Cl95   Cl    0.23312   0.41437   0.04795   0.00000  Uiso   1.00
Cl96   Cl    0.21943   0.08272   0.28704   0.00000  Uiso   1.00
H97    H     0.38625   0.21095   0.04773   0.00000  Uiso   1.00
H98    H     0.08521   0.42036   0.29766   0.00000  Uiso   1.00
H99    H     0.07568   0.07640   0.26059   0.00000  Uiso   1.00
H100   H     0.12207   0.03564   0.31430   0.00000  Uiso   1.00
H101   H     0.07952   0.00431   0.28920   0.00000  Uiso   1.00
H102   H     0.13145   0.47241   0.23679   0.00000  Uiso   1.00
H103   H     0.14595   0.46193   0.29418   0.00000  Uiso   1.00
H104   H     0.17275   0.00265   0.26413   0.00000  Uiso   1.00
H105   H     0.31863   0.41798   0.03842   0.00000  Uiso   1.00
H106   H     0.30309   0.39007   0.08778   0.00000  Uiso   1.00
H107   H     0.36435   0.35976   0.01565   0.00000  Uiso   1.00
H108   H     0.36067   0.33322   0.06847   0.00000  Uiso   1.00
H109   H     0.06976   0.43374   0.24116   0.00000  Uiso   1.00
H110   H     0.28262   0.32421   0.05784   0.00000  Uiso   1.00
H111   H     0.31164   0.29901   0.01470   0.00000  Uiso   1.00
H112   H     0.28580   0.34864   0.00389   0.00000  Uiso   1.00
H113   H     0.49329   0.42633   0.26114   0.00000  Uiso   1.00
H114   H     0.01900   0.46716   0.29357   0.00000  Uiso   1.00
H115   H     0.00862   0.41555   0.31774   0.00000  Uiso   1.00
H116   H     0.11529   0.27211   0.06661   0.00000  Uiso   1.00
H117   H     0.14333   0.28516   0.11616   0.00000  Uiso   1.00
H118   H     0.15994   0.32071   0.02210   0.00000  Uiso   1.00
H119   H     0.18734   0.33875   0.07121   0.00000  Uiso   1.00
H120   H     0.22082   0.27183   0.08410   0.00000  Uiso   1.00
H121   H     0.37529   0.21878   0.10513   0.00000  Uiso   1.00
H122   H     0.22542   0.28072   0.02603   0.00000  Uiso   1.00
H123   H     0.18662   0.24314   0.04560   0.00000  Uiso   1.00
H124   H     0.46287   0.10911   0.28112   0.00000  Uiso   1.00
H125   H     0.47618   0.11747   0.22351   0.00000  Uiso   1.00
H126   H     0.41002   0.05327   0.25857   0.00000  Uiso   1.00
H127   H     0.42942   0.05645   0.20261   0.00000  Uiso   1.00
H128   H     0.00272   0.03890   0.23158   0.00000  Uiso   1.00
H129   H     0.46411   0.49763   0.24391   0.00000  Uiso   1.00
H130   H     0.48168   0.03456   0.28626   0.00000  Uiso   1.00
H131   H     0.13967   0.21463   0.23040   0.00000  Uiso   1.00
H132   H     0.32622   0.15562   0.04351   0.00000  Uiso   1.00
H133   H     0.16952   0.16906   0.25197   0.00000  Uiso   1.00
H134   H     0.13355   0.18046   0.32557   0.00000  Uiso   1.00
H135   H     0.17012   0.22079   0.30862   0.00000  Uiso   1.00
H136   H     0.08323   0.24380   0.27739   0.00000  Uiso   1.00
H137   H     0.11940   0.27373   0.31146   0.00000  Uiso   1.00
H138   H     0.08549   0.23537   0.00315   0.00000  Uiso   1.00
H139   H     0.49531   0.40830   0.10023   0.00000  Uiso   1.00
H140   H     0.48650   0.38180   0.15126   0.00000  Uiso   1.00
H141   H     0.43889   0.46388   0.11922   0.00000  Uiso   1.00
H142   H     0.43706   0.44128   0.17355   0.00000  Uiso   1.00
H143   H     0.31374   0.17033   0.09977   0.00000  Uiso   1.00
H144   H     0.00949   0.45907   0.19041   0.00000  Uiso   1.00
H145   H     0.48534   0.00631   0.16481   0.00000  Uiso   1.00
H146   H     0.02045   0.47273   0.13432   0.00000  Uiso   1.00
H147   H     0.34081   0.28837   0.21723   0.00000  Uiso   1.00
H148   H     0.32561   0.32627   0.26034   0.00000  Uiso   1.00
H149   H     0.37206   0.28574   0.31426   0.00000  Uiso   1.00
H150   H     0.32953   0.25433   0.28923   0.00000  Uiso   1.00
H151   H     0.38153   0.22228   0.23694   0.00000  Uiso   1.00
H152   H     0.39597   0.21199   0.29439   0.00000  Uiso   1.00
H153   H     0.42278   0.25264   0.26422   0.00000  Uiso   1.00
H154   H     0.30538   0.24799   0.07518   0.00000  Uiso   1.00
H155   H     0.06862   0.16799   0.03843   0.00000  Uiso   1.00
H156   H     0.05308   0.14007   0.08778   0.00000  Uiso   1.00
H157   H     0.11431   0.10977   0.01562   0.00000  Uiso   1.00
H158   H     0.11066   0.08322   0.06844   0.00000  Uiso   1.00
H159   H     0.03263   0.07417   0.05788   0.00000  Uiso   1.00
H160   H     0.06159   0.04905   0.01462   0.00000  Uiso   1.00
H161   H     0.03572   0.09869   0.00396   0.00000  Uiso   1.00
H162   H     0.13627   0.46096   0.04774   0.00000  Uiso   1.00
H163   H     0.12531   0.46878   0.10514   0.00000  Uiso   1.00
H164   H     0.07623   0.40564   0.04351   0.00000  Uiso   1.00
H165   H     0.26781   0.21119   0.04959   0.00000  Uiso   1.00
H166   H     0.06374   0.42036   0.09977   0.00000  Uiso   1.00
H167   H     0.05540   0.49800   0.07520   0.00000  Uiso   1.00
H168   H     0.01785   0.46122   0.04953   0.00000  Uiso   1.00
H169   H     0.06338   0.47875   0.01969   0.00000  Uiso   1.00
H170   H     0.29847   0.10171   0.29113   0.00000  Uiso   1.00
H171   H     0.28225   0.11396   0.23460   0.00000  Uiso   1.00
H172   H     0.33520   0.17039   0.29762   0.00000  Uiso   1.00
H173   H     0.31974   0.18375   0.24111   0.00000  Uiso   1.00
H174   H     0.24328   0.17633   0.26112   0.00000  Uiso   1.00
H175   H     0.26899   0.21718   0.29350   0.00000  Uiso   1.00
H176   H     0.31329   0.22870   0.01967   0.00000  Uiso   1.00
H177   H     0.25862   0.16559   0.31772   0.00000  Uiso   1.00
H178   H     0.36528   0.02211   0.06659   0.00000  Uiso   1.00
H179   H     0.39329   0.03513   0.11617   0.00000  Uiso   1.00
H180   H     0.40999   0.07071   0.02214   0.00000  Uiso   1.00
H181   H     0.43735   0.08873   0.07128   0.00000  Uiso   1.00
H182   H     0.47080   0.02179   0.08418   0.00000  Uiso   1.00
H183   H     0.47544   0.03068   0.02611   0.00000  Uiso   1.00
H184   H     0.43662   0.49312   0.04565   0.00000  Uiso   1.00
H185   H     0.21287   0.35916   0.28112   0.00000  Uiso   1.00
H186   H     0.22617   0.36751   0.22350   0.00000  Uiso   1.00
H187   H     0.04848   0.35168   0.29113   0.00000  Uiso   1.00
H188   H     0.16007   0.30329   0.25865   0.00000  Uiso   1.00
H189   H     0.17937   0.30647   0.20265   0.00000  Uiso   1.00
H190   H     0.25271   0.28893   0.23144   0.00000  Uiso   1.00
H191   H     0.21414   0.24767   0.24394   0.00000  Uiso   1.00
H192   H     0.23184   0.28466   0.28620   0.00000  Uiso   1.00
H193   H     0.38968   0.46462   0.23041   0.00000  Uiso   1.00
H194   H     0.41953   0.41905   0.25200   0.00000  Uiso   1.00
H195   H     0.38352   0.43047   0.32558   0.00000  Uiso   1.00
H196   H     0.42011   0.47078   0.30864   0.00000  Uiso   1.00
H197   H     0.33327   0.49387   0.27736   0.00000  Uiso   1.00
H198   H     0.03226   0.36396   0.23461   0.00000  Uiso   1.00
H199   H     0.36943   0.02373   0.31151   0.00000  Uiso   1.00
H200   H     0.33546   0.48538   0.00312   0.00000  Uiso   1.00
H201   H     0.24534   0.15824   0.10029   0.00000  Uiso   1.00
H202   H     0.23644   0.13182   0.15134   0.00000  Uiso   1.00
H203   H     0.18894   0.21388   0.11911   0.00000  Uiso   1.00
H204   H     0.18700   0.19136   0.17346   0.00000  Uiso   1.00
H205   H     0.25938   0.20912   0.19045   0.00000  Uiso   1.00
H206   H     0.23535   0.25634   0.16470   0.00000  Uiso   1.00
H207   H     0.27050   0.22266   0.13437   0.00000  Uiso   1.00
H208   H     0.09063   0.03855   0.21736   0.00000  Uiso   1.00
N209   N    -0.00000   0.25000   0.28573   0.00000  Uiso   1.00
N210   N     0.00000   0.25000   0.04760   0.00000  Uiso   1.00
N211   N     0.25000   0.00000   0.28573   0.00000  Uiso   1.00
N212   N     0.25000   0.00000   0.04760   0.00000  Uiso   1.00
O213   O     0.04580   0.20419   0.20487   0.00000  Uiso   1.00
O214   O     0.20419   0.04581   0.12846   0.00000  Uiso   1.00
O215   O     0.20419   0.04581   0.20487   0.00000  Uiso   1.00
O216   O     0.29580   0.45419   0.12846   0.00000  Uiso   1.00
O217   O     0.20419   0.45419   0.12846   0.00000  Uiso   1.00
O218   O     0.29580   0.04581   0.20487   0.00000  Uiso   1.00
O219   O     0.29580   0.04581   0.12846   0.00000  Uiso   1.00
O220   O     0.20419   0.45419   0.20487   0.00000  Uiso   1.00
O221   O     0.39949   0.15828   0.08597   0.00000  Uiso   1.00
O222   O     0.09582   0.34770   0.24799   0.00000  Uiso   1.00
O223   O     0.10406   0.33406   0.08752   0.00000  Uiso   1.00
O224   O     0.45419   0.29581   0.12846   0.00000  Uiso   1.00
O225   O     0.41753   0.14007   0.24522   0.00000  Uiso   1.00
O226   O     0.10384   0.16072   0.24712   0.00000  Uiso   1.00
O227   O     0.43784   0.37950   0.10295   0.00000  Uiso   1.00
O228   O     0.38886   0.32848   0.24264   0.00000  Uiso   1.00
O229   O     0.11259   0.16920   0.08790   0.00000  Uiso   1.00
O230   O     0.14949   0.40827   0.08598   0.00000  Uiso   1.00
O231   O     0.34582   0.09771   0.24799   0.00000  Uiso   1.00
O232   O     0.35406   0.08406   0.08752   0.00000  Uiso   1.00
O233   O     0.16752   0.39009   0.24522   0.00000  Uiso   1.00
O234   O     0.35384   0.41072   0.24713   0.00000  Uiso   1.00
O235   O     0.45419   0.29581   0.20487   0.00000  Uiso   1.00
O236   O     0.18784   0.12949   0.10296   0.00000  Uiso   1.00
O237   O     0.13886   0.07848   0.24265   0.00000  Uiso   1.00
O238   O     0.36259   0.41921   0.08790   0.00000  Uiso   1.00
O239   O     0.04580   0.20419   0.12846   0.00000  Uiso   1.00
O240   O     0.45419   0.20419   0.12846   0.00000  Uiso   1.00
O241   O     0.04580   0.29581   0.20487   0.00000  Uiso   1.00
O242   O     0.04580   0.29581   0.12846   0.00000  Uiso   1.00
O243   O     0.45419   0.20419   0.20487   0.00000  Uiso   1.00
O244   O     0.29580   0.45419   0.20487   0.00000  Uiso   1.00
Zn245  Zn   -0.00000   0.25000   0.21771   0.00000  Uiso   1.00
Zn246  Zn    0.00000   0.25000   0.11563   0.00000  Uiso   1.00
Zn247  Zn    0.25000   0.00000   0.21771   0.00000  Uiso   1.00
Zn248  Zn    0.25000   0.00000   0.11563   0.00000  Uiso   1.00
C249   C     0.56124   0.19133   0.16669   0.00000  Uiso   1.00
C250   C     0.50372   0.21290   0.30976   0.00000  Uiso   1.00
C251   C     0.99796   0.21264   0.02317   0.00000  Uiso   1.00
C252   C     0.99347   0.28700   0.31033   0.00000  Uiso   1.00
C253   C     0.74928   0.03739   0.02385   0.00000  Uiso   1.00
C254   C     0.75373   0.46290   0.30976   0.00000  Uiso   1.00
C255   C     0.74797   0.46264   0.02317   0.00000  Uiso   1.00
C256   C     0.74347   0.03699   0.31033   0.00000  Uiso   1.00
C257   C     0.88929   0.14095   0.12646   0.00000  Uiso   1.00
C258   C     0.60848   0.36147   0.20689   0.00000  Uiso   1.00
C259   C     0.61235   0.35541   0.12696   0.00000  Uiso   1.00
C260   C     0.94026   0.31003   0.16681   0.00000  Uiso   1.00
C261   C     0.89489   0.13639   0.20610   0.00000  Uiso   1.00
C262   C     0.60954   0.14055   0.20674   0.00000  Uiso   1.00
C263   C     0.90505   0.37304   0.13186   0.00000  Uiso   1.00
C264   C     0.88416   0.35305   0.20520   0.00000  Uiso   1.00
C265   C     0.61959   0.14954   0.12814   0.00000  Uiso   1.00
C266   C     0.63929   0.39095   0.12646   0.00000  Uiso   1.00
C267   C     0.85848   0.11147   0.20689   0.00000  Uiso   1.00
C268   C     0.86235   0.10541   0.12696   0.00000  Uiso   1.00
C269   C     0.64488   0.38640   0.20610   0.00000  Uiso   1.00
C270   C     0.85955   0.39055   0.20674   0.00000  Uiso   1.00
C271   C     0.94061   0.18946   0.16650   0.00000  Uiso   1.00
C272   C     0.65504   0.12302   0.13186   0.00000  Uiso   1.00
C273   C     0.63415   0.10305   0.20520   0.00000  Uiso   1.00
C274   C     0.86960   0.39956   0.12815   0.00000  Uiso   1.00
C275   C     0.59337   0.34295   0.16702   0.00000  Uiso   1.00
C276   C     0.90793   0.15556   0.16632   0.00000  Uiso   1.00
C277   C     0.90870   0.34480   0.16759   0.00000  Uiso   1.00
C278   C     0.59649   0.15991   0.16679   0.00000  Uiso   1.00
C279   C     0.84337   0.09295   0.16701   0.00000  Uiso   1.00
C280   C     0.65793   0.40557   0.16632   0.00000  Uiso   1.00
C281   C     0.65869   0.09479   0.16760   0.00000  Uiso   1.00
C282   C     0.56011   0.30976   0.16687   0.00000  Uiso   1.00
C283   C     0.84650   0.40992   0.16680   0.00000  Uiso   1.00
C284   C     0.87365   0.19480   0.07754   0.00000  Uiso   1.00
C285   C     0.82758   0.18191   0.06860   0.00000  Uiso   1.00
C286   C     0.80173   0.22001   0.05244   0.00000  Uiso   1.00
C287   C     0.55755   0.36786   0.26021   0.00000  Uiso   1.00
C288   C     0.56099   0.41566   0.27122   0.00000  Uiso   1.00
C289   C     0.51791   0.43218   0.28693   0.00000  Uiso   1.00
C290   C     0.63249   0.29865   0.08364   0.00000  Uiso   1.00
C291   C     0.67075   0.31108   0.05576   0.00000  Uiso   1.00
C292   C     0.70262   0.27421   0.05261   0.00000  Uiso   1.00
C293   C     0.81124   0.44134   0.16669   0.00000  Uiso   1.00
C294   C     0.95050   0.10864   0.24668   0.00000  Uiso   1.00
C295   C     0.93756   0.06154   0.23814   0.00000  Uiso   1.00
C296   C     0.97387   0.03129   0.25066   0.00000  Uiso   1.00
C297   C     0.63933   0.18772   0.25473   0.00000  Uiso   1.00
C298   C     0.63851   0.20668   0.30139   0.00000  Uiso   1.00
C299   C     0.60457   0.24180   0.30674   0.00000  Uiso   1.00
C300   C     0.97110   0.40198   0.12522   0.00000  Uiso   1.00
C301   C     0.95752   0.44596   0.14447   0.00000  Uiso   1.00
C302   C     0.99559   0.47248   0.15950   0.00000  Uiso   1.00
C303   C     0.85152   0.30470   0.24846   0.00000  Uiso   1.00
C304   C     0.69026   0.06002   0.16682   0.00000  Uiso   1.00
C305   C     0.85984   0.27053   0.28335   0.00000  Uiso   1.00
C306   C     0.89194   0.23711   0.26863   0.00000  Uiso   1.00
C307   C     0.57995   0.14681   0.06540   0.00000  Uiso   1.00
C308   C     0.59345   0.10396   0.04431   0.00000  Uiso   1.00
C309   C     0.55350   0.08018   0.02925   0.00000  Uiso   1.00
C310   C     0.62367   0.44480   0.07755   0.00000  Uiso   1.00
C311   C     0.57759   0.43193   0.06860   0.00000  Uiso   1.00
C312   C     0.55177   0.47004   0.05244   0.00000  Uiso   1.00
C313   C     0.80754   0.11787   0.26020   0.00000  Uiso   1.00
C314   C     0.81098   0.16567   0.27118   0.00000  Uiso   1.00
C315   C     0.69060   0.43946   0.16650   0.00000  Uiso   1.00
C316   C     0.76790   0.18220   0.28690   0.00000  Uiso   1.00
C317   C     0.88247   0.04864   0.08365   0.00000  Uiso   1.00
C318   C     0.92077   0.06106   0.05581   0.00000  Uiso   1.00
C319   C     0.95263   0.02417   0.05268   0.00000  Uiso   1.00
C320   C     0.70050   0.35867   0.24668   0.00000  Uiso   1.00
C321   C     0.68757   0.31157   0.23816   0.00000  Uiso   1.00
C322   C     0.72391   0.28134   0.25062   0.00000  Uiso   1.00
C323   C     0.88933   0.43771   0.25474   0.00000  Uiso   1.00
C324   C     0.88850   0.45669   0.30140   0.00000  Uiso   1.00
C325   C     0.85457   0.49182   0.30673   0.00000  Uiso   1.00
C326   C     0.81010   0.05976   0.16687   0.00000  Uiso   1.00
C327   C     0.72109   0.15197   0.12525   0.00000  Uiso   1.00
C328   C     0.70751   0.19598   0.14441   0.00000  Uiso   1.00
C329   C     0.74558   0.22249   0.15948   0.00000  Uiso   1.00
C330   C     0.60149   0.05479   0.24857   0.00000  Uiso   1.00
C331   C     0.60983   0.02052   0.28336   0.00000  Uiso   1.00
C332   C     0.64191   0.48713   0.26852   0.00000  Uiso   1.00
C333   C     0.82996   0.39680   0.06540   0.00000  Uiso   1.00
C334   C     0.84347   0.35396   0.04433   0.00000  Uiso   1.00
C335   C     0.80354   0.33017   0.02925   0.00000  Uiso   1.00
C336   C     0.99928   0.28739   0.02385   0.00000  Uiso   1.00
Cl337  Cl    0.50510   0.33660   0.05100   0.00000  Uiso   1.00
Cl338  Cl    0.52057   0.16610   0.28403   0.00000  Uiso   1.00
Cl339  Cl    0.98311   0.16438   0.04795   0.00000  Uiso   1.00
Cl340  Cl    0.96943   0.33272   0.28704   0.00000  Uiso   1.00
Cl341  Cl    0.75509   0.08660   0.05100   0.00000  Uiso   1.00
Cl342  Cl    0.77060   0.41611   0.28404   0.00000  Uiso   1.00
Cl343  Cl    0.73312   0.41437   0.04795   0.00000  Uiso   1.00
Cl344  Cl    0.71943   0.08272   0.28704   0.00000  Uiso   1.00
H345   H     0.88625   0.21095   0.04773   0.00000  Uiso   1.00
H346   H     0.58521   0.42036   0.29766   0.00000  Uiso   1.00
H347   H     0.57568   0.07640   0.26059   0.00000  Uiso   1.00
H348   H     0.62207   0.03564   0.31430   0.00000  Uiso   1.00
H349   H     0.57952   0.00431   0.28920   0.00000  Uiso   1.00
H350   H     0.63145   0.47241   0.23679   0.00000  Uiso   1.00
H351   H     0.64595   0.46193   0.29418   0.00000  Uiso   1.00
H352   H     0.67275   0.00265   0.26413   0.00000  Uiso   1.00
H353   H     0.81863   0.41798   0.03842   0.00000  Uiso   1.00
H354   H     0.80309   0.39007   0.08778   0.00000  Uiso   1.00
H355   H     0.86435   0.35976   0.01565   0.00000  Uiso   1.00
H356   H     0.86067   0.33322   0.06847   0.00000  Uiso   1.00
H357   H     0.56976   0.43374   0.24116   0.00000  Uiso   1.00
H358   H     0.78262   0.32421   0.05784   0.00000  Uiso   1.00
H359   H     0.81164   0.29901   0.01470   0.00000  Uiso   1.00
H360   H     0.78580   0.34864   0.00389   0.00000  Uiso   1.00
H361   H     0.99329   0.42633   0.26114   0.00000  Uiso   1.00
H362   H     0.51900   0.46716   0.29357   0.00000  Uiso   1.00
H363   H     0.50862   0.41555   0.31774   0.00000  Uiso   1.00
H364   H     0.61529   0.27211   0.06661   0.00000  Uiso   1.00
H365   H     0.64333   0.28516   0.11616   0.00000  Uiso   1.00
H366   H     0.65994   0.32071   0.02210   0.00000  Uiso   1.00
H367   H     0.68734   0.33875   0.07121   0.00000  Uiso   1.00
H368   H     0.72082   0.27183   0.08410   0.00000  Uiso   1.00
H369   H     0.87529   0.21878   0.10513   0.00000  Uiso   1.00
H370   H     0.72542   0.28072   0.02603   0.00000  Uiso   1.00
H371   H     0.68662   0.24314   0.04560   0.00000  Uiso   1.00
H372   H     0.96287   0.10911   0.28112   0.00000  Uiso   1.00
H373   H     0.97618   0.11747   0.22351   0.00000  Uiso   1.00
H374   H     0.91002   0.05327   0.25857   0.00000  Uiso   1.00
H375   H     0.92942   0.05645   0.20261   0.00000  Uiso   1.00
H376   H     0.50272   0.03890   0.23158   0.00000  Uiso   1.00
H377   H     0.96411   0.49763   0.24391   0.00000  Uiso   1.00
H378   H     0.98168   0.03456   0.28626   0.00000  Uiso   1.00
H379   H     0.63967   0.21463   0.23040   0.00000  Uiso   1.00
H380   H     0.82622   0.15562   0.04351   0.00000  Uiso   1.00
H381   H     0.66952   0.16906   0.25197   0.00000  Uiso   1.00
H382   H     0.63355   0.18046   0.32557   0.00000  Uiso   1.00
H383   H     0.67012   0.22079   0.30862   0.00000  Uiso   1.00
H384   H     0.58323   0.24380   0.27739   0.00000  Uiso   1.00
H385   H     0.61940   0.27373   0.31146   0.00000  Uiso   1.00
H386   H     0.58549   0.23537   0.00315   0.00000  Uiso   1.00
H387   H     0.99531   0.40830   0.10023   0.00000  Uiso   1.00
H388   H     0.98650   0.38180   0.15126   0.00000  Uiso   1.00
H389   H     0.93889   0.46388   0.11922   0.00000  Uiso   1.00
H390   H     0.93706   0.44128   0.17355   0.00000  Uiso   1.00
H391   H     0.81374   0.17033   0.09977   0.00000  Uiso   1.00
H392   H     0.50949   0.45907   0.19041   0.00000  Uiso   1.00
H393   H     0.98534   0.00631   0.16481   0.00000  Uiso   1.00
H394   H     0.52045   0.47273   0.13432   0.00000  Uiso   1.00
H395   H     0.84081   0.28837   0.21723   0.00000  Uiso   1.00
H396   H     0.82561   0.32627   0.26034   0.00000  Uiso   1.00
H397   H     0.87206   0.28574   0.31426   0.00000  Uiso   1.00
H398   H     0.82953   0.25433   0.28923   0.00000  Uiso   1.00
H399   H     0.88153   0.22228   0.23694   0.00000  Uiso   1.00
H400   H     0.89597   0.21199   0.29439   0.00000  Uiso   1.00
H401   H     0.92278   0.25264   0.26422   0.00000  Uiso   1.00
H402   H     0.80538   0.24799   0.07518   0.00000  Uiso   1.00
H403   H     0.56862   0.16799   0.03843   0.00000  Uiso   1.00
H404   H     0.55308   0.14007   0.08778   0.00000  Uiso   1.00
H405   H     0.61431   0.10977   0.01562   0.00000  Uiso   1.00
H406   H     0.61066   0.08322   0.06844   0.00000  Uiso   1.00
H407   H     0.53263   0.07417   0.05788   0.00000  Uiso   1.00
H408   H     0.56159   0.04905   0.01462   0.00000  Uiso   1.00
H409   H     0.53572   0.09869   0.00396   0.00000  Uiso   1.00
H410   H     0.63627   0.46096   0.04774   0.00000  Uiso   1.00
H411   H     0.62531   0.46878   0.10514   0.00000  Uiso   1.00
H412   H     0.57623   0.40564   0.04351   0.00000  Uiso   1.00
H413   H     0.76781   0.21119   0.04959   0.00000  Uiso   1.00
H414   H     0.56374   0.42036   0.09977   0.00000  Uiso   1.00
H415   H     0.55540   0.49800   0.07520   0.00000  Uiso   1.00
H416   H     0.51785   0.46122   0.04953   0.00000  Uiso   1.00
H417   H     0.56338   0.47875   0.01969   0.00000  Uiso   1.00
H418   H     0.79847   0.10171   0.29113   0.00000  Uiso   1.00
H419   H     0.78225   0.11396   0.23460   0.00000  Uiso   1.00
H420   H     0.83520   0.17039   0.29762   0.00000  Uiso   1.00
H421   H     0.81974   0.18375   0.24111   0.00000  Uiso   1.00
H422   H     0.74328   0.17633   0.26112   0.00000  Uiso   1.00
H423   H     0.76899   0.21718   0.29350   0.00000  Uiso   1.00
H424   H     0.81329   0.22870   0.01967   0.00000  Uiso   1.00
H425   H     0.75862   0.16559   0.31772   0.00000  Uiso   1.00
H426   H     0.86528   0.02211   0.06659   0.00000  Uiso   1.00
H427   H     0.89329   0.03513   0.11617   0.00000  Uiso   1.00
H428   H     0.90999   0.07071   0.02214   0.00000  Uiso   1.00
H429   H     0.93735   0.08873   0.07128   0.00000  Uiso   1.00
H430   H     0.97080   0.02179   0.08418   0.00000  Uiso   1.00
H431   H     0.97544   0.03068   0.02611   0.00000  Uiso   1.00
H432   H     0.93662   0.49312   0.04565   0.00000  Uiso   1.00
H433   H     0.71287   0.35916   0.28112   0.00000  Uiso   1.00
H434   H     0.72617   0.36751   0.22350   0.00000  Uiso   1.00
H435   H     0.54848   0.35168   0.29113   0.00000  Uiso   1.00
H436   H     0.66007   0.30329   0.25865   0.00000  Uiso   1.00
H437   H     0.67937   0.30647   0.20265   0.00000  Uiso   1.00
H438   H     0.75271   0.28893   0.23144   0.00000  Uiso   1.00
H439   H     0.71414   0.24767   0.24394   0.00000  Uiso   1.00
H440   H     0.73184   0.28466   0.28620   0.00000  Uiso   1.00
H441   H     0.88968   0.46462   0.23041   0.00000  Uiso   1.00
H442   H     0.91953   0.41905   0.25200   0.00000  Uiso   1.00
H443   H     0.88352   0.43047   0.32558   0.00000  Uiso   1.00
H444   H     0.92011   0.47078   0.30864   0.00000  Uiso   1.00
H445   H     0.83327   0.49387   0.27736   0.00000  Uiso   1.00
H446   H     0.53226   0.36396   0.23461   0.00000  Uiso   1.00
H447   H     0.86943   0.02373   0.31151   0.00000  Uiso   1.00
H448   H     0.83546   0.48538   0.00312   0.00000  Uiso   1.00
H449   H     0.74534   0.15824   0.10029   0.00000  Uiso   1.00
H450   H     0.73644   0.13182   0.15134   0.00000  Uiso   1.00
H451   H     0.68894   0.21388   0.11911   0.00000  Uiso   1.00
H452   H     0.68700   0.19136   0.17346   0.00000  Uiso   1.00
H453   H     0.75938   0.20912   0.19045   0.00000  Uiso   1.00
H454   H     0.73535   0.25634   0.16470   0.00000  Uiso   1.00
H455   H     0.77050   0.22266   0.13437   0.00000  Uiso   1.00
H456   H     0.59063   0.03855   0.21736   0.00000  Uiso   1.00
N457   N     0.50000   0.25000   0.28573   0.00000  Uiso   1.00
N458   N     0.50000   0.25000   0.04760   0.00000  Uiso   1.00
N459   N     0.75000   0.00000   0.28573   0.00000  Uiso   1.00
N460   N     0.75000   0.00000   0.04760   0.00000  Uiso   1.00
O461   O     0.54580   0.20419   0.20487   0.00000  Uiso   1.00
O462   O     0.70419   0.04581   0.12846   0.00000  Uiso   1.00
O463   O     0.70419   0.04581   0.20487   0.00000  Uiso   1.00
O464   O     0.79580   0.45419   0.12846   0.00000  Uiso   1.00
O465   O     0.70419   0.45419   0.12846   0.00000  Uiso   1.00
O466   O     0.79580   0.04581   0.20487   0.00000  Uiso   1.00
O467   O     0.79580   0.04581   0.12846   0.00000  Uiso   1.00
O468   O     0.70419   0.45419   0.20487   0.00000  Uiso   1.00
O469   O     0.89949   0.15828   0.08597   0.00000  Uiso   1.00
O470   O     0.59582   0.34770   0.24799   0.00000  Uiso   1.00
O471   O     0.60406   0.33406   0.08752   0.00000  Uiso   1.00
O472   O     0.95419   0.29581   0.12846   0.00000  Uiso   1.00
O473   O     0.91753   0.14007   0.24522   0.00000  Uiso   1.00
O474   O     0.60384   0.16072   0.24712   0.00000  Uiso   1.00
O475   O     0.93784   0.37950   0.10295   0.00000  Uiso   1.00
O476   O     0.88886   0.32848   0.24264   0.00000  Uiso   1.00
O477   O     0.61259   0.16920   0.08790   0.00000  Uiso   1.00
O478   O     0.64949   0.40827   0.08598   0.00000  Uiso   1.00
O479   O     0.84582   0.09771   0.24799   0.00000  Uiso   1.00
O480   O     0.85406   0.08406   0.08752   0.00000  Uiso   1.00
O481   O     0.66752   0.39009   0.24522   0.00000  Uiso   1.00
O482   O     0.85384   0.41072   0.24713   0.00000  Uiso   1.00
O483   O     0.95419   0.29581   0.20487   0.00000  Uiso   1.00
O484   O     0.68784   0.12949   0.10296   0.00000  Uiso   1.00
O485   O     0.63886   0.07848   0.24265   0.00000  Uiso   1.00
O486   O     0.86259   0.41921   0.08790   0.00000  Uiso   1.00
O487   O     0.54580   0.20419   0.12846   0.00000  Uiso   1.00
O488   O     0.95419   0.20419   0.12846   0.00000  Uiso   1.00
O489   O     0.54580   0.29581   0.20487   0.00000  Uiso   1.00
O490   O     0.54580   0.29581   0.12846   0.00000  Uiso   1.00
O491   O     0.95419   0.20419   0.20487   0.00000  Uiso   1.00
O492   O     0.79580   0.45419   0.20487   0.00000  Uiso   1.00
Zn493  Zn    0.50000   0.25000   0.21771   0.00000  Uiso   1.00
Zn494  Zn    0.50000   0.25000   0.11563   0.00000  Uiso   1.00
Zn495  Zn    0.75000   0.00000   0.21771   0.00000  Uiso   1.00
Zn496  Zn    0.75000   0.00000   0.11563   0.00000  Uiso   1.00
C497   C     0.06124   0.69133   0.16669   0.00000  Uiso   1.00
C498   C     0.00372   0.71290   0.30976   0.00000  Uiso   1.00
C499   C     0.49796   0.71264   0.02317   0.00000  Uiso   1.00
C500   C     0.49347   0.78700   0.31033   0.00000  Uiso   1.00
C501   C     0.24928   0.53739   0.02385   0.00000  Uiso   1.00
C502   C     0.25373   0.96290   0.30976   0.00000  Uiso   1.00
C503   C     0.24797   0.96264   0.02317   0.00000  Uiso   1.00
C504   C     0.24347   0.53699   0.31033   0.00000  Uiso   1.00
C505   C     0.38929   0.64095   0.12646   0.00000  Uiso   1.00
C506   C     0.10848   0.86147   0.20689   0.00000  Uiso   1.00
C507   C     0.11235   0.85541   0.12696   0.00000  Uiso   1.00
C508   C     0.44026   0.81003   0.16681   0.00000  Uiso   1.00
C509   C     0.39489   0.63639   0.20610   0.00000  Uiso   1.00
C510   C     0.10954   0.64055   0.20674   0.00000  Uiso   1.00
C511   C     0.40505   0.87304   0.13186   0.00000  Uiso   1.00
C512   C     0.38416   0.85305   0.20520   0.00000  Uiso   1.00
C513   C     0.11959   0.64954   0.12814   0.00000  Uiso   1.00
C514   C     0.13929   0.89095   0.12646   0.00000  Uiso   1.00
C515   C     0.35848   0.61147   0.20689   0.00000  Uiso   1.00
C516   C     0.36235   0.60541   0.12696   0.00000  Uiso   1.00
C517   C     0.14488   0.88640   0.20610   0.00000  Uiso   1.00
C518   C     0.35955   0.89055   0.20674   0.00000  Uiso   1.00
C519   C     0.44061   0.68946   0.16650   0.00000  Uiso   1.00
C520   C     0.15504   0.62302   0.13186   0.00000  Uiso   1.00
C521   C     0.13415   0.60305   0.20520   0.00000  Uiso   1.00
C522   C     0.36960   0.89956   0.12815   0.00000  Uiso   1.00
C523   C     0.09337   0.84295   0.16702   0.00000  Uiso   1.00
C524   C     0.40793   0.65556   0.16632   0.00000  Uiso   1.00
C525   C     0.40870   0.84480   0.16759   0.00000  Uiso   1.00
C526   C     0.09649   0.65991   0.16679   0.00000  Uiso   1.00
C527   C     0.34337   0.59295   0.16701   0.00000  Uiso   1.00
C528   C     0.15793   0.90557   0.16632   0.00000  Uiso   1.00
C529   C     0.15869   0.59479   0.16760   0.00000  Uiso   1.00
C530   C     0.06011   0.80976   0.16687   0.00000  Uiso   1.00
C531   C     0.34650   0.90992   0.16680   0.00000  Uiso   1.00
C532   C     0.37365   0.69480   0.07754   0.00000  Uiso   1.00
C533   C     0.32758   0.68191   0.06860   0.00000  Uiso   1.00
C534   C     0.30173   0.72001   0.05244   0.00000  Uiso   1.00
C535   C     0.05755   0.86786   0.26021   0.00000  Uiso   1.00
C536   C     0.06099   0.91566   0.27122   0.00000  Uiso   1.00
C537   C     0.01791   0.93218   0.28693   0.00000  Uiso   1.00
C538   C     0.13249   0.79865   0.08364   0.00000  Uiso   1.00
C539   C     0.17075   0.81108   0.05576   0.00000  Uiso   1.00
C540   C     0.20262   0.77421   0.05261   0.00000  Uiso   1.00
C541   C     0.31124   0.94134   0.16669   0.00000  Uiso   1.00
C542   C     0.45050   0.60864   0.24668   0.00000  Uiso   1.00
C543   C     0.43756   0.56154   0.23814   0.00000  Uiso   1.00
C544   C     0.47387   0.53129   0.25066   0.00000  Uiso   1.00
C545   C     0.13933   0.68772   0.25473   0.00000  Uiso   1.00
C546   C     0.13851   0.70668   0.30139   0.00000  Uiso   1.00
C547   C     0.10457   0.74180   0.30674   0.00000  Uiso   1.00
C548   C     0.47110   0.90198   0.12522   0.00000  Uiso   1.00
C549   C     0.45752   0.94596   0.14447   0.00000  Uiso   1.00
C550   C     0.49559   0.97248   0.15950   0.00000  Uiso   1.00
C551   C     0.35152   0.80470   0.24846   0.00000  Uiso   1.00
C552   C     0.19026   0.56002   0.16682   0.00000  Uiso   1.00
C553   C     0.35984   0.77053   0.28335   0.00000  Uiso   1.00
C554   C     0.39194   0.73711   0.26863   0.00000  Uiso   1.00
C555   C     0.07995   0.64681   0.06540   0.00000  Uiso   1.00
C556   C     0.09345   0.60396   0.04431   0.00000  Uiso   1.00
C557   C     0.05350   0.58018   0.02925   0.00000  Uiso   1.00
C558   C     0.12367   0.94480   0.07755   0.00000  Uiso   1.00
C559   C     0.07759   0.93193   0.06860   0.00000  Uiso   1.00
C560   C     0.05177   0.97004   0.05244   0.00000  Uiso   1.00
C561   C     0.30754   0.61787   0.26020   0.00000  Uiso   1.00
C562   C     0.31098   0.66567   0.27118   0.00000  Uiso   1.00
C563   C     0.19060   0.93946   0.16650   0.00000  Uiso   1.00
C564   C     0.26790   0.68220   0.28690   0.00000  Uiso   1.00
C565   C     0.38247   0.54864   0.08365   0.00000  Uiso   1.00
C566   C     0.42077   0.56106   0.05581   0.00000  Uiso   1.00
C567   C     0.45263   0.52417   0.05268   0.00000  Uiso   1.00
C568   C     0.20050   0.85867   0.24668   0.00000  Uiso   1.00
C569   C     0.18757   0.81157   0.23816   0.00000  Uiso   1.00
C570   C     0.22391   0.78134   0.25062   0.00000  Uiso   1.00
C571   C     0.38933   0.93771   0.25474   0.00000  Uiso   1.00
C572   C     0.38850   0.95669   0.30140   0.00000  Uiso   1.00
C573   C     0.35457   0.99182   0.30673   0.00000  Uiso   1.00
C574   C     0.31010   0.55976   0.16687   0.00000  Uiso   1.00
C575   C     0.22109   0.65197   0.12525   0.00000  Uiso   1.00
C576   C     0.20751   0.69598   0.14441   0.00000  Uiso   1.00
C577   C     0.24558   0.72249   0.15948   0.00000  Uiso   1.00
C578   C     0.10149   0.55479   0.24857   0.00000  Uiso   1.00
C579   C     0.10983   0.52052   0.28336   0.00000  Uiso   1.00
C580   C     0.14191   0.98713   0.26852   0.00000  Uiso   1.00
C581   C     0.32996   0.89680   0.06540   0.00000  Uiso   1.00
C582   C     0.34347   0.85396   0.04433   0.00000  Uiso   1.00
C583   C     0.30354   0.83017   0.02925   0.00000  Uiso   1.00
C584   C     0.49928   0.78739   0.02385   0.00000  Uiso   1.00
Cl585  Cl    0.00510   0.83660   0.05100   0.00000  Uiso   1.00
Cl586  Cl    0.02057   0.66610   0.28403   0.00000  Uiso   1.00
Cl587  Cl    0.48311   0.66438   0.04795   0.00000  Uiso   1.00
Cl588  Cl    0.46943   0.83272   0.28704   0.00000  Uiso   1.00
Cl589  Cl    0.25509   0.58660   0.05100   0.00000  Uiso   1.00
Cl590  Cl    0.27060   0.91611   0.28404   0.00000  Uiso   1.00
Cl591  Cl    0.23312   0.91437   0.04795   0.00000  Uiso   1.00
Cl592  Cl    0.21943   0.58272   0.28704   0.00000  Uiso   1.00
H593   H     0.38625   0.71095   0.04773   0.00000  Uiso   1.00
H594   H     0.08521   0.92036   0.29766   0.00000  Uiso   1.00
H595   H     0.07568   0.57640   0.26059   0.00000  Uiso   1.00
H596   H     0.12207   0.53564   0.31430   0.00000  Uiso   1.00
H597   H     0.07952   0.50431   0.28920   0.00000  Uiso   1.00
H598   H     0.13145   0.97241   0.23679   0.00000  Uiso   1.00
H599   H     0.14595   0.96193   0.29418   0.00000  Uiso   1.00
H600   H     0.17275   0.50265   0.26413   0.00000  Uiso   1.00
H601   H     0.31863   0.91798   0.03842   0.00000  Uiso   1.00
H602   H     0.30309   0.89007   0.08778   0.00000  Uiso   1.00
H603   H     0.36435   0.85976   0.01565   0.00000  Uiso   1.00
H604   H     0.36067   0.83322   0.06847   0.00000  Uiso   1.00
H605   H     0.06976   0.93374   0.24116   0.00000  Uiso   1.00
H606   H     0.28262   0.82421   0.05784   0.00000  Uiso   1.00
H607   H     0.31164   0.79901   0.01470   0.00000  Uiso   1.00
H608   H     0.28580   0.84864   0.00389   0.00000  Uiso   1.00
H609   H     0.49329   0.92633   0.26114   0.00000  Uiso   1.00
H610   H     0.01900   0.96716   0.29357   0.00000  Uiso   1.00
H611   H     0.00862   0.91555   0.31774   0.00000  Uiso   1.00
H612   H     0.11529   0.77211   0.06661   0.00000  Uiso   1.00
H613   H     0.14333   0.78516   0.11616   0.00000  Uiso   1.00
H614   H     0.15994   0.82071   0.02210   0.00000  Uiso   1.00
H615   H     0.18734   0.83875   0.07121   0.00000  Uiso   1.00
H616   H     0.22082   0.77183   0.08410   0.00000  Uiso   1.00
H617   H     0.37529   0.71878   0.10513   0.00000  Uiso   1.00
H618   H     0.22542   0.78072   0.02603   0.00000  Uiso   1.00
H619   H     0.18662   0.74314   0.04560   0.00000  Uiso   1.00
H620   H     0.46287   0.60911   0.28112   0.00000  Uiso   1.00
H621   H     0.47618   0.61747   0.22351   0.00000  Uiso   1.00
H622   H     0.41002   0.55327   0.25857   0.00000  Uiso   1.00
H623   H     0.42942   0.55645   0.20261   0.00000  Uiso   1.00
H624   H     0.00272   0.53890   0.23158   0.00000  Uiso   1.00
H625   H     0.46411   0.99763   0.24391   0.00000  Uiso   1.00
H626   H     0.48168   0.53456   0.28626   0.00000  Uiso   1.00
H627   H     0.13967   0.71463   0.23040   0.00000  Uiso   1.00
H628   H     0.32622   0.65562   0.04351   0.00000  Uiso   1.00
H629   H     0.16952   0.66906   0.25197   0.00000  Uiso   1.00
H630   H     0.13355   0.68046   0.32557   0.00000  Uiso   1.00
H631   H     0.17012   0.72079   0.30862   0.00000  Uiso   1.00
H632   H     0.08323   0.74380   0.27739   0.00000  Uiso   1.00
H633   H     0.11940   0.77373   0.31146   0.00000  Uiso   1.00
H634   H     0.08549   0.73537   0.00315   0.00000  Uiso   1.00
H635   H     0.49531   0.90830   0.10023   0.00000  Uiso   1.00
H636   H     0.48650   0.88180   0.15126   0.00000  Uiso   1.00
H637   H     0.43889   0.96388   0.11922   0.00000  Uiso   1.00
H638   H     0.43706   0.94128   0.17355   0.00000  Uiso   1.00
H639   H     0.31374   0.67033   0.09977   0.00000  Uiso   1.00
H640   H     0.00949   0.95907   0.19041   0.00000  Uiso   1.00
H641   H     0.48534   0.50631   0.16481   0.00000  Uiso   1.00
H642   H     0.02045   0.97273   0.13432   0.00000  Uiso   1.00
H643   H     0.34081   0.78837   0.21723   0.00000  Uiso   1.00
H644   H     0.32561   0.82627   0.26034   0.00000  Uiso   1.00
H645   H     0.37206   0.78574   0.31426   0.00000  Uiso   1.00
H646   H     0.32953   0.75433   0.28923   0.00000  Uiso   1.00
H647   H     0.38153   0.72228   0.23694   0.00000  Uiso   1.00
H648   H     0.39597   0.71199   0.29439   0.00000  Uiso   1.00
H649   H     0.42278   0.75264   0.26422   0.00000  Uiso   1.00
H650   H     0.30538   0.74799   0.07518   0.00000  Uiso   1.00
H651   H     0.06862   0.66799   0.03843   0.00000  Uiso   1.00
H652   H     0.05308   0.64007   0.08778   0.00000  Uiso   1.00
H653   H     0.11431   0.60977   0.01562   0.00000  Uiso   1.00
H654   H     0.11066   0.58322   0.06844   0.00000  Uiso   1.00
H655   H     0.03263   0.57417   0.05788   0.00000  Uiso   1.00
H656   H     0.06159   0.54905   0.01462   0.00000  Uiso   1.00
H657   H     0.03572   0.59869   0.00396   0.00000  Uiso   1.00
H658   H     0.13627   0.96096   0.04774   0.00000  Uiso   1.00
H659   H     0.12531   0.96878   0.10514   0.00000  Uiso   1.00
H660   H     0.07623   0.90564   0.04351   0.00000  Uiso   1.00
H661   H     0.26781   0.71119   0.04959   0.00000  Uiso   1.00
H662   H     0.06374   0.92036   0.09977   0.00000  Uiso   1.00
H663   H     0.05540   0.99800   0.07520   0.00000  Uiso   1.00
H664   H     0.01785   0.96122   0.04953   0.00000  Uiso   1.00
H665   H     0.06338   0.97875   0.01969   0.00000  Uiso   1.00
H666   H     0.29847   0.60171   0.29113   0.00000  Uiso   1.00
H667   H     0.28225   0.61396   0.23460   0.00000  Uiso   1.00
H668   H     0.33520   0.67039   0.29762   0.00000  Uiso   1.00
H669   H     0.31974   0.68375   0.24111   0.00000  Uiso   1.00
H670   H     0.24328   0.67633   0.26112   0.00000  Uiso   1.00
H671   H     0.26899   0.71718   0.29350   0.00000  Uiso   1.00
H672   H     0.31329   0.72870   0.01967   0.00000  Uiso   1.00
H673   H     0.25862   0.66559   0.31772   0.00000  Uiso   1.00
H674   H     0.36528   0.52211   0.06659   0.00000  Uiso   1.00
H675   H     0.39329   0.53513   0.11617   0.00000  Uiso   1.00
H676   H     0.40999   0.57071   0.02214   0.00000  Uiso   1.00
H677   H     0.43735   0.58873   0.07128   0.00000  Uiso   1.00
H678   H     0.47080   0.52179   0.08418   0.00000  Uiso   1.00
H679   H     0.47544   0.53068   0.02611   0.00000  Uiso   1.00
H680   H     0.43662   0.99312   0.04565   0.00000  Uiso   1.00
H681   H     0.21287   0.85916   0.28112   0.00000  Uiso   1.00
H682   H     0.22617   0.86751   0.22350   0.00000  Uiso   1.00
H683   H     0.04848   0.85168   0.29113   0.00000  Uiso   1.00
H684   H     0.16007   0.80329   0.25865   0.00000  Uiso   1.00
H685   H     0.17937   0.80647   0.20265   0.00000  Uiso   1.00
H686   H     0.25271   0.78893   0.23144   0.00000  Uiso   1.00
H687   H     0.21414   0.74767   0.24394   0.00000  Uiso   1.00
H688   H     0.23184   0.78466   0.28620   0.00000  Uiso   1.00
H689   H     0.38968   0.96462   0.23041   0.00000  Uiso   1.00
H690   H     0.41953   0.91905   0.25200   0.00000  Uiso   1.00
H691   H     0.38352   0.93047   0.32558   0.00000  Uiso   1.00
H692   H     0.42011   0.97078   0.30864   0.00000  Uiso   1.00
H693   H     0.33327   0.99387   0.27736   0.00000  Uiso   1.00
H694   H     0.03226   0.86396   0.23461   0.00000  Uiso   1.00
H695   H     0.36943   0.52373   0.31151   0.00000  Uiso   1.00
H696   H     0.33546   0.98538   0.00312   0.00000  Uiso   1.00
H697   H     0.24534   0.65824   0.10029   0.00000  Uiso   1.00
H698   H     0.23644   0.63182   0.15134   0.00000  Uiso   1.00
H699   H     0.18894   0.71388   0.11911   0.00000  Uiso   1.00
H700   H     0.18700   0.69136   0.17346   0.00000  Uiso   1.00
H701   H     0.25938   0.70912   0.19045   0.00000  Uiso   1.00
H702   H     0.23535   0.75634   0.16470   0.00000  Uiso   1.00
H703   H     0.27050   0.72266   0.13437   0.00000  Uiso   1.00
H704   H     0.09063   0.53855   0.21736   0.00000  Uiso   1.00
N705   N    -0.00000   0.75000   0.28573   0.00000  Uiso   1.00
N706   N     0.00000   0.75000   0.04760   0.00000  Uiso   1.00
N707   N     0.25000   0.50000   0.28573   0.00000  Uiso   1.00
N708   N     0.25000   0.50000   0.04760   0.00000  Uiso   1.00
O709   O     0.04580   0.70419   0.20487   0.00000  Uiso   1.00
O710   O     0.20419   0.54581   0.12846   0.00000  Uiso   1.00
O711   O     0.20419   0.54581   0.20487   0.00000  Uiso   1.00
O712   O     0.29580   0.95419   0.12846   0.00000  Uiso   1.00
O713   O     0.20419   0.95419   0.12846   0.00000  Uiso   1.00
O714   O     0.29580   0.54581   0.20487   0.00000  Uiso   1.00
O715   O     0.29580   0.54581   0.12846   0.00000  Uiso   1.00
O716   O     0.20419   0.95419   0.20487   0.00000  Uiso   1.00
O717   O     0.39949   0.65828   0.08597   0.00000  Uiso   1.00
O718   O     0.09582   0.84770   0.24799   0.00000  Uiso   1.00
O719   O     0.10406   0.83406   0.08752   0.00000  Uiso   1.00
O720   O     0.45419   0.79581   0.12846   0.00000  Uiso   1.00
O721   O     0.41753   0.64007   0.24522   0.00000  Uiso   1.00
O722   O     0.10384   0.66072   0.24712   0.00000  Uiso   1.00
O723   O     0.43784   0.87950   0.10295   0.00000  Uiso   1.00
O724   O     0.38886   0.82848   0.24264   0.00000  Uiso   1.00
O725   O     0.11259   0.66920   0.08790   0.00000  Uiso   1.00
O726   O     0.14949   0.90827   0.08598   0.00000  Uiso   1.00
O727   O     0.34582   0.59771   0.24799   0.00000  Uiso   1.00
O728   O     0.35406   0.58406   0.08752   0.00000  Uiso   1.00
O729   O     0.16752   0.89009   0.24522   0.00000  Uiso   1.00
O730   O     0.35384   0.91072   0.24713   0.00000  Uiso   1.00
O731   O     0.45419   0.79581   0.20487   0.00000  Uiso   1.00
O732   O     0.18784   0.62949   0.10296   0.00000  Uiso   1.00
O733   O     0.13886   0.57848   0.24265   0.00000  Uiso   1.00
O734   O     0.36259   0.91921   0.08790   0.00000  Uiso   1.00
O735   O     0.04580   0.70419   0.12846   0.00000  Uiso   1.00
O736   O     0.45419   0.70419   0.12846   0.00000  Uiso   1.00
O737   O     0.04580   0.79581   0.20487   0.00000  Uiso   1.00
O738   O     0.04580   0.79581   0.12846   0.00000  Uiso   1.00
O739   O     0.45419   0.70419   0.20487   0.00000  Uiso   1.00
O740   O     0.29580   0.95419   0.20487   0.00000  Uiso   1.00
Zn741  Zn   -0.00000   0.75000   0.21771   0.00000  Uiso   1.00
Zn742  Zn    0.00000   0.75000   0.11563   0.00000  Uiso   1.00
Zn743  Zn    0.25000   0.50000   0.21771   0.00000  Uiso   1.00
Zn744  Zn    0.25000   0.50000   0.11563   0.00000  Uiso   1.00
C745   C     0.56124   0.69133   0.16669   0.00000  Uiso   1.00
C746   C     0.50372   0.71290   0.30976   0.00000  Uiso   1.00
C747   C     0.99796   0.71264   0.02317   0.00000  Uiso   1.00
C748   C     0.99347   0.78700   0.31033   0.00000  Uiso   1.00
C749   C     0.74928   0.53739   0.02385   0.00000  Uiso   1.00
C750   C     0.75373   0.96290   0.30976   0.00000  Uiso   1.00
C751   C     0.74797   0.96264   0.02317   0.00000  Uiso   1.00
C752   C     0.74347   0.53699   0.31033   0.00000  Uiso   1.00
C753   C     0.88929   0.64095   0.12646   0.00000  Uiso   1.00
C754   C     0.60848   0.86147   0.20689   0.00000  Uiso   1.00
C755   C     0.61235   0.85541   0.12696   0.00000  Uiso   1.00
C756   C     0.94026   0.81003   0.16681   0.00000  Uiso   1.00
C757   C     0.89489   0.63639   0.20610   0.00000  Uiso   1.00
C758   C     0.60954   0.64055   0.20674   0.00000  Uiso   1.00
C759   C     0.90505   0.87304   0.13186   0.00000  Uiso   1.00
C760   C     0.88416   0.85305   0.20520   0.00000  Uiso   1.00
C761   C     0.61959   0.64954   0.12814   0.00000  Uiso   1.00
C762   C     0.63929   0.89095   0.12646   0.00000  Uiso   1.00
C763   C     0.85848   0.61147   0.20689   0.00000  Uiso   1.00
C764   C     0.86235   0.60541   0.12696   0.00000  Uiso   1.00
C765   C     0.64488   0.88640   0.20610   0.00000  Uiso   1.00
C766   C     0.85955   0.89055   0.20674   0.00000  Uiso   1.00
C767   C     0.94061   0.68946   0.16650   0.00000  Uiso   1.00
C768   C     0.65504   0.62302   0.13186   0.00000  Uiso   1.00
C769   C     0.63415   0.60305   0.20520   0.00000  Uiso   1.00
C770   C     0.86960   0.89956   0.12815   0.00000  Uiso   1.00
C771   C     0.59337   0.84295   0.16702   0.00000  Uiso   1.00
C772   C     0.90793   0.65556   0.16632   0.00000  Uiso   1.00
C773   C     0.90870   0.84480   0.16759   0.00000  Uiso   1.00
C774   C     0.59649   0.65991   0.16679   0.00000  Uiso   1.00
C775   C     0.84337   0.59295   0.16701   0.00000  Uiso   1.00
C776   C     0.65793   0.90557   0.16632   0.00000  Uiso   1.00
C777   C     0.65869   0.59479   0.16760   0.00000  Uiso   1.00
C778   C     0.56011   0.80976   0.16687   0.00000  Uiso   1.00
C779   C     0.84650   0.90992   0.16680   0.00000  Uiso   1.00
C780   C     0.87365   0.69480   0.07754   0.00000  Uiso   1.00
C781   C     0.82758   0.68191   0.06860   0.00000  Uiso   1.00
C782   C     0.80173   0.72001   0.05244   0.00000  Uiso   1.00
C783   C     0.55755   0.86786   0.26021   0.00000  Uiso   1.00
C784   C     0.56099   0.91566   0.27122   0.00000  Uiso   1.00
C785   C     0.51791   0.93218   0.28693   0.00000  Uiso   1.00
C786   C     0.63249   0.79865   0.08364   0.00000  Uiso   1.00
C787   C     0.67075   0.81108   0.05576   0.00000  Uiso   1.00
C788   C     0.70262   0.77421   0.05261   0.00000  Uiso   1.00
C789   C     0.81124   0.94134   0.16669   0.00000  Uiso   1.00
C790   C     0.95050   0.60864   0.24668   0.00000  Uiso   1.00
C791   C     0.93756   0.56154   0.23814   0.00000  Uiso   1.00
C792   C     0.97387   0.53129   0.25066   0.00000  Uiso   1.00
C793   C     0.63933   0.68772   0.25473   0.00000  Uiso   1.00
C794   C     0.63851   0.70668   0.30139   0.00000  Uiso   1.00
C795   C     0.60457   0.74180   0.30674   0.00000  Uiso   1.00
C796   C     0.97110   0.90198   0.12522   0.00000  Uiso   1.00
C797   C     0.95752   0.94596   0.14447   0.00000  Uiso   1.00
C798   C     0.99559   0.97248   0.15950   0.00000  Uiso   1.00
C799   C     0.85152   0.80470   0.24846   0.00000  Uiso   1.00
C800   C     0.69026   0.56002   0.16682   0.00000  Uiso   1.00
C801   C     0.85984   0.77053   0.28335   0.00000  Uiso   1.00
C802   C     0.89194   0.73711   0.26863   0.00000  Uiso   1.00
C803   C     0.57995   0.64681   0.06540   0.00000  Uiso   1.00
C804   C     0.59345   0.60396   0.04431   0.00000  Uiso   1.00
C805   C     0.55350   0.58018   0.02925   0.00000  Uiso   1.00
C806   C     0.62367   0.94480   0.07755   0.00000  Uiso   1.00
C807   C     0.57759   0.93193   0.06860   0.00000  Uiso   1.00
C808   C     0.55177   0.97004   0.05244   0.00000  Uiso   1.00
C809   C     0.80754   0.61787   0.26020   0.00000  Uiso   1.00
C810   C     0.81098   0.66567   0.27118   0.00000  Uiso   1.00
C811   C     0.69060   0.93946   0.16650   0.00000  Uiso   1.00
C812   C     0.76790   0.68220   0.28690   0.00000  Uiso   1.00
C813   C     0.88247   0.54864   0.08365   0.00000  Uiso   1.00
C814   C     0.92077   0.56106   0.05581   0.00000  Uiso   1.00
C815   C     0.95263   0.52417   0.05268   0.00000  Uiso   1.00
C816   C     0.70050   0.85867   0.24668   0.00000  Uiso   1.00
C817   C     0.68757   0.81157   0.23816   0.00000  Uiso   1.00
C818   C     0.72391   0.78134   0.25062   0.00000  Uiso   1.00
C819   C     0.88933   0.93771   0.25474   0.00000  Uiso   1.00
C820   C     0.88850   0.95669   0.30140   0.00000  Uiso   1.00
C821   C     0.85457   0.99182   0.30673   0.00000  Uiso   1.00
C822   C     0.81010   0.55976   0.16687   0.00000  Uiso   1.00
C823   C     0.72109   0.65197   0.12525   0.00000  Uiso   1.00
C824   C     0.70751   0.69598   0.14441   0.00000  Uiso   1.00
C825   C     0.74558   0.72249   0.15948   0.00000  Uiso   1.00
C826   C     0.60149   0.55479   0.24857   0.00000  Uiso   1.00
C827   C     0.60983   0.52052   0.28336   0.00000  Uiso   1.00
C828   C     0.64191   0.98713   0.26852   0.00000  Uiso   1.00
C829   C     0.82996   0.89680   0.06540   0.00000  Uiso   1.00
C830   C     0.84347   0.85396   0.04433   0.00000  Uiso   1.00
C831   C     0.80354   0.83017   0.02925   0.00000  Uiso   1.00
C832   C     0.99928   0.78739   0.02385   0.00000  Uiso   1.00
Cl833  Cl    0.50510   0.83660   0.05100   0.00000  Uiso   1.00
Cl834  Cl    0.52057   0.66610   0.28403   0.00000  Uiso   1.00
Cl835  Cl    0.98311   0.66438   0.04795   0.00000  Uiso   1.00
Cl836  Cl    0.96943   0.83272   0.28704   0.00000  Uiso   1.00
Cl837  Cl    0.75509   0.58660   0.05100   0.00000  Uiso   1.00
Cl838  Cl    0.77060   0.91611   0.28404   0.00000  Uiso   1.00
Cl839  Cl    0.73312   0.91437   0.04795   0.00000  Uiso   1.00
Cl840  Cl    0.71943   0.58272   0.28704   0.00000  Uiso   1.00
H841   H     0.88625   0.71095   0.04773   0.00000  Uiso   1.00
H842   H     0.58521   0.92036   0.29766   0.00000  Uiso   1.00
H843   H     0.57568   0.57640   0.26059   0.00000  Uiso   1.00
H844   H     0.62207   0.53564   0.31430   0.00000  Uiso   1.00
H845   H     0.57952   0.50431   0.28920   0.00000  Uiso   1.00
H846   H     0.63145   0.97241   0.23679   0.00000  Uiso   1.00
H847   H     0.64595   0.96193   0.29418   0.00000  Uiso   1.00
H848   H     0.67275   0.50265   0.26413   0.00000  Uiso   1.00
H849   H     0.81863   0.91798   0.03842   0.00000  Uiso   1.00
H850   H     0.80309   0.89007   0.08778   0.00000  Uiso   1.00
H851   H     0.86435   0.85976   0.01565   0.00000  Uiso   1.00
H852   H     0.86067   0.83322   0.06847   0.00000  Uiso   1.00
H853   H     0.56976   0.93374   0.24116   0.00000  Uiso   1.00
H854   H     0.78262   0.82421   0.05784   0.00000  Uiso   1.00
H855   H     0.81164   0.79901   0.01470   0.00000  Uiso   1.00
H856   H     0.78580   0.84864   0.00389   0.00000  Uiso   1.00
H857   H     0.99329   0.92633   0.26114   0.00000  Uiso   1.00
H858   H     0.51900   0.96716   0.29357   0.00000  Uiso   1.00
H859   H     0.50862   0.91555   0.31774   0.00000  Uiso   1.00
H860   H     0.61529   0.77211   0.06661   0.00000  Uiso   1.00
H861   H     0.64333   0.78516   0.11616   0.00000  Uiso   1.00
H862   H     0.65994   0.82071   0.02210   0.00000  Uiso   1.00
H863   H     0.68734   0.83875   0.07121   0.00000  Uiso   1.00
H864   H     0.72082   0.77183   0.08410   0.00000  Uiso   1.00
H865   H     0.87529   0.71878   0.10513   0.00000  Uiso   1.00
H866   H     0.72542   0.78072   0.02603   0.00000  Uiso   1.00
H867   H     0.68662   0.74314   0.04560   0.00000  Uiso   1.00
H868   H     0.96287   0.60911   0.28112   0.00000  Uiso   1.00
H869   H     0.97618   0.61747   0.22351   0.00000  Uiso   1.00
H870   H     0.91002   0.55327   0.25857   0.00000  Uiso   1.00
H871   H     0.92942   0.55645   0.20261   0.00000  Uiso   1.00
H872   H     0.50272   0.53890   0.23158   0.00000  Uiso   1.00
H873   H     0.96411   0.99763   0.24391   0.00000  Uiso   1.00
H874   H     0.98168   0.53456   0.28626   0.00000  Uiso   1.00
H875   H     0.63967   0.71463   0.23040   0.00000  Uiso   1.00
H876   H     0.82622   0.65562   0.04351   0.00000  Uiso   1.00
H877   H     0.66952   0.66906   0.25197   0.00000  Uiso   1.00
H878   H     0.63355   0.68046   0.32557   0.00000  Uiso   1.00
H879   H     0.67012   0.72079   0.30862   0.00000  Uiso   1.00
H880   H     0.58323   0.74380   0.27739   0.00000  Uiso   1.00
H881   H     0.61940   0.77373   0.31146   0.00000  Uiso   1.00
H882   H     0.58549   0.73537   0.00315   0.00000  Uiso   1.00
H883   H     0.99531   0.90830   0.10023   0.00000  Uiso   1.00
H884   H     0.98650   0.88180   0.15126   0.00000  Uiso   1.00
H885   H     0.93889   0.96388   0.11922   0.00000  Uiso   1.00
H886   H     0.93706   0.94128   0.17355   0.00000  Uiso   1.00
H887   H     0.81374   0.67033   0.09977   0.00000  Uiso   1.00
H888   H     0.50949   0.95907   0.19041   0.00000  Uiso   1.00
H889   H     0.98534   0.50631   0.16481   0.00000  Uiso   1.00
H890   H     0.52045   0.97273   0.13432   0.00000  Uiso   1.00
H891   H     0.84081   0.78837   0.21723   0.00000  Uiso   1.00
H892   H     0.82561   0.82627   0.26034   0.00000  Uiso   1.00
H893   H     0.87206   0.78574   0.31426   0.00000  Uiso   1.00
H894   H     0.82953   0.75433   0.28923   0.00000  Uiso   1.00
H895   H     0.88153   0.72228   0.23694   0.00000  Uiso   1.00
H896   H     0.89597   0.71199   0.29439   0.00000  Uiso   1.00
H897   H     0.92278   0.75264   0.26422   0.00000  Uiso   1.00
H898   H     0.80538   0.74799   0.07518   0.00000  Uiso   1.00
H899   H     0.56862   0.66799   0.03843   0.00000  Uiso   1.00
H900   H     0.55308   0.64007   0.08778   0.00000  Uiso   1.00
H901   H     0.61431   0.60977   0.01562   0.00000  Uiso   1.00
H902   H     0.61066   0.58322   0.06844   0.00000  Uiso   1.00
H903   H     0.53263   0.57417   0.05788   0.00000  Uiso   1.00
H904   H     0.56159   0.54905   0.01462   0.00000  Uiso   1.00
H905   H     0.53572   0.59869   0.00396   0.00000  Uiso   1.00
H906   H     0.63627   0.96096   0.04774   0.00000  Uiso   1.00
H907   H     0.62531   0.96878   0.10514   0.00000  Uiso   1.00
H908   H     0.57623   0.90564   0.04351   0.00000  Uiso   1.00
H909   H     0.76781   0.71119   0.04959   0.00000  Uiso   1.00
H910   H     0.56374   0.92036   0.09977   0.00000  Uiso   1.00
H911   H     0.55540   0.99800   0.07520   0.00000  Uiso   1.00
H912   H     0.51785   0.96122   0.04953   0.00000  Uiso   1.00
H913   H     0.56338   0.97875   0.01969   0.00000  Uiso   1.00
H914   H     0.79847   0.60171   0.29113   0.00000  Uiso   1.00
H915   H     0.78225   0.61396   0.23460   0.00000  Uiso   1.00
H916   H     0.83520   0.67039   0.29762   0.00000  Uiso   1.00
H917   H     0.81974   0.68375   0.24111   0.00000  Uiso   1.00
H918   H     0.74328   0.67633   0.26112   0.00000  Uiso   1.00
H919   H     0.76899   0.71718   0.29350   0.00000  Uiso   1.00
H920   H     0.81329   0.72870   0.01967   0.00000  Uiso   1.00
H921   H     0.75862   0.66559   0.31772   0.00000  Uiso   1.00
H922   H     0.86528   0.52211   0.06659   0.00000  Uiso   1.00
H923   H     0.89329   0.53513   0.11617   0.00000  Uiso   1.00
H924   H     0.90999   0.57071   0.02214   0.00000  Uiso   1.00
H925   H     0.93735   0.58873   0.07128   0.00000  Uiso   1.00
H926   H     0.97080   0.52179   0.08418   0.00000  Uiso   1.00
H927   H     0.97544   0.53068   0.02611   0.00000  Uiso   1.00
H928   H     0.93662   0.99312   0.04565   0.00000  Uiso   1.00
H929   H     0.71287   0.85916   0.28112   0.00000  Uiso   1.00
H930   H     0.72617   0.86751   0.22350   0.00000  Uiso   1.00
H931   H     0.54848   0.85168   0.29113   0.00000  Uiso   1.00
H932   H     0.66007   0.80329   0.25865   0.00000  Uiso   1.00
H933   H     0.67937   0.80647   0.20265   0.00000  Uiso   1.00
H934   H     0.75271   0.78893   0.23144   0.00000  Uiso   1.00
H935   H     0.71414   0.74767   0.24394   0.00000  Uiso   1.00
H936   H     0.73184   0.78466   0.28620   0.00000  Uiso   1.00
H937   H     0.88968   0.96462   0.23041   0.00000  Uiso   1.00
H938   H     0.91953   0.91905   0.25200   0.00000  Uiso   1.00
H939   H     0.88352   0.93047   0.32558   0.00000  Uiso   1.00
H940   H     0.92011   0.97078   0.30864   0.00000  Uiso   1.00
H941   H     0.83327   0.99387   0.27736   0.00000  Uiso   1.00
H942   H     0.53226   0.86396   0.23461   0.00000  Uiso   1.00
H943   H     0.86943   0.52373   0.31151   0.00000  Uiso   1.00
H944   H     0.83546   0.98538   0.00312   0.00000  Uiso   1.00
H945   H     0.74534   0.65824   0.10029   0.00000  Uiso   1.00
H946   H     0.73644   0.63182   0.15134   0.00000  Uiso   1.00
H947   H     0.68894   0.71388   0.11911   0.00000  Uiso   1.00
H948   H     0.68700   0.69136   0.17346   0.00000  Uiso   1.00
H949   H     0.75938   0.70912   0.19045   0.00000  Uiso   1.00
H950   H     0.73535   0.75634   0.16470   0.00000  Uiso   1.00
H951   H     0.77050   0.72266   0.13437   0.00000  Uiso   1.00
H952   H     0.59063   0.53855   0.21736   0.00000  Uiso   1.00
N953   N     0.50000   0.75000   0.28573   0.00000  Uiso   1.00
N954   N     0.50000   0.75000   0.04760   0.00000  Uiso   1.00
N955   N     0.75000   0.50000   0.28573   0.00000  Uiso   1.00
N956   N     0.75000   0.50000   0.04760   0.00000  Uiso   1.00
O957   O     0.54580   0.70419   0.20487   0.00000  Uiso   1.00
O958   O     0.70419   0.54581   0.12846   0.00000  Uiso   1.00
O959   O     0.70419   0.54581   0.20487   0.00000  Uiso   1.00
O960   O     0.79580   0.95419   0.12846   0.00000  Uiso   1.00
O961   O     0.70419   0.95419   0.12846   0.00000  Uiso   1.00
O962   O     0.79580   0.54581   0.20487   0.00000  Uiso   1.00
O963   O     0.79580   0.54581   0.12846   0.00000  Uiso   1.00
O964   O     0.70419   0.95419   0.20487   0.00000  Uiso   1.00
O965   O     0.89949   0.65828   0.08597   0.00000  Uiso   1.00
O966   O     0.59582   0.84770   0.24799   0.00000  Uiso   1.00
O967   O     0.60406   0.83406   0.08752   0.00000  Uiso   1.00
O968   O     0.95419   0.79581   0.12846   0.00000  Uiso   1.00
O969   O     0.91753   0.64007   0.24522   0.00000  Uiso   1.00
O970   O     0.60384   0.66072   0.24712   0.00000  Uiso   1.00
O971   O     0.93784   0.87950   0.10295   0.00000  Uiso   1.00
O972   O     0.88886   0.82848   0.24264   0.00000  Uiso   1.00
O973   O     0.61259   0.66920   0.08790   0.00000  Uiso   1.00
O974   O     0.64949   0.90827   0.08598   0.00000  Uiso   1.00
O975   O     0.84582   0.59771   0.24799   0.00000  Uiso   1.00
O976   O     0.85406   0.58406   0.08752   0.00000  Uiso   1.00
O977   O     0.66752   0.89009   0.24522   0.00000  Uiso   1.00
O978   O     0.85384   0.91072   0.24713   0.00000  Uiso   1.00
O979   O     0.95419   0.79581   0.20487   0.00000  Uiso   1.00
O980   O     0.68784   0.62949   0.10296   0.00000  Uiso   1.00
O981   O     0.63886   0.57848   0.24265   0.00000  Uiso   1.00
O982   O     0.86259   0.91921   0.08790   0.00000  Uiso   1.00
O983   O     0.54580   0.70419   0.12846   0.00000  Uiso   1.00
O984   O     0.95419   0.70419   0.12846   0.00000  Uiso   1.00
O985   O     0.54580   0.79581   0.20487   0.00000  Uiso   1.00
O986   O     0.54580   0.79581   0.12846   0.00000  Uiso   1.00
O987   O     0.95419   0.70419   0.20487   0.00000  Uiso   1.00
O988   O     0.79580   0.95419   0.20487   0.00000  Uiso   1.00
Zn989  Zn    0.50000   0.75000   0.21771   0.00000  Uiso   1.00
Zn990  Zn    0.50000   0.75000   0.11563   0.00000  Uiso   1.00
Zn991  Zn    0.75000   0.50000   0.21771   0.00000  Uiso   1.00
Zn992  Zn    0.75000   0.50000   0.11563   0.00000  Uiso   1.00
C993   C     0.06124   0.19133   0.50002   0.00000  Uiso   1.00
C994   C     0.00372   0.21290   0.64309   0.00000  Uiso   1.00
C995   C     0.49796   0.21264   0.35650   0.00000  Uiso   1.00
C996   C     0.49347   0.28700   0.64367   0.00000  Uiso   1.00
C997   C     0.24928   0.03739   0.35718   0.00000  Uiso   1.00
C998   C     0.25373   0.46290   0.64310   0.00000  Uiso   1.00
C999   C     0.24797   0.46264   0.35650   0.00000  Uiso   1.00
C1000  C     0.24347   0.03699   0.64367   0.00000  Uiso   1.00
C1001  C     0.38929   0.14095   0.45979   0.00000  Uiso   1.00
C1002  C     0.10848   0.36147   0.54023   0.00000  Uiso   1.00
C1003  C     0.11235   0.35541   0.46029   0.00000  Uiso   1.00
C1004  C     0.44026   0.31003   0.50015   0.00000  Uiso   1.00
C1005  C     0.39489   0.13639   0.53944   0.00000  Uiso   1.00
C1006  C     0.10954   0.14055   0.54007   0.00000  Uiso   1.00
C1007  C     0.40505   0.37304   0.46519   0.00000  Uiso   1.00
C1008  C     0.38416   0.35305   0.53853   0.00000  Uiso   1.00
C1009  C     0.11959   0.14954   0.46148   0.00000  Uiso   1.00
C1010  C     0.13929   0.39095   0.45979   0.00000  Uiso   1.00
C1011  C     0.35848   0.11147   0.54023   0.00000  Uiso   1.00
C1012  C     0.36235   0.10541   0.46029   0.00000  Uiso   1.00
C1013  C     0.14488   0.38640   0.53944   0.00000  Uiso   1.00
C1014  C     0.35955   0.39055   0.54007   0.00000  Uiso   1.00
C1015  C     0.44061   0.18946   0.49983   0.00000  Uiso   1.00
C1016  C     0.15504   0.12302   0.46519   0.00000  Uiso   1.00
C1017  C     0.13415   0.10305   0.53853   0.00000  Uiso   1.00
C1018  C     0.36960   0.39956   0.46148   0.00000  Uiso   1.00
C1019  C     0.09337   0.34295   0.50035   0.00000  Uiso   1.00
C1020  C     0.40793   0.15556   0.49966   0.00000  Uiso   1.00
C1021  C     0.40870   0.34480   0.50093   0.00000  Uiso   1.00
C1022  C     0.09649   0.15991   0.50013   0.00000  Uiso   1.00
C1023  C     0.34337   0.09295   0.50035   0.00000  Uiso   1.00
C1024  C     0.15793   0.40557   0.49966   0.00000  Uiso   1.00
C1025  C     0.15869   0.09479   0.50093   0.00000  Uiso   1.00
C1026  C     0.06011   0.30976   0.50020   0.00000  Uiso   1.00
C1027  C     0.34650   0.40992   0.50013   0.00000  Uiso   1.00
C1028  C     0.37365   0.19480   0.41087   0.00000  Uiso   1.00
C1029  C     0.32758   0.18191   0.40193   0.00000  Uiso   1.00
C1030  C     0.30173   0.22001   0.38578   0.00000  Uiso   1.00
C1031  C     0.05755   0.36786   0.59355   0.00000  Uiso   1.00
C1032  C     0.06099   0.41566   0.60455   0.00000  Uiso   1.00
C1033  C     0.01791   0.43218   0.62026   0.00000  Uiso   1.00
C1034  C     0.13249   0.29865   0.41697   0.00000  Uiso   1.00
C1035  C     0.17075   0.31108   0.38910   0.00000  Uiso   1.00
C1036  C     0.20262   0.27421   0.38595   0.00000  Uiso   1.00
C1037  C     0.31124   0.44134   0.50002   0.00000  Uiso   1.00
C1038  C     0.45050   0.10864   0.58001   0.00000  Uiso   1.00
C1039  C     0.43756   0.06154   0.57147   0.00000  Uiso   1.00
C1040  C     0.47387   0.03129   0.58400   0.00000  Uiso   1.00
C1041  C     0.13933   0.18772   0.58806   0.00000  Uiso   1.00
C1042  C     0.13851   0.20668   0.63473   0.00000  Uiso   1.00
C1043  C     0.10457   0.24180   0.64007   0.00000  Uiso   1.00
C1044  C     0.47110   0.40198   0.45855   0.00000  Uiso   1.00
C1045  C     0.45752   0.44596   0.47780   0.00000  Uiso   1.00
C1046  C     0.49559   0.47248   0.49284   0.00000  Uiso   1.00
C1047  C     0.35152   0.30470   0.58179   0.00000  Uiso   1.00
C1048  C     0.19026   0.06002   0.50015   0.00000  Uiso   1.00
C1049  C     0.35984   0.27053   0.61669   0.00000  Uiso   1.00
C1050  C     0.39194   0.23711   0.60196   0.00000  Uiso   1.00
C1051  C     0.07995   0.14681   0.39873   0.00000  Uiso   1.00
C1052  C     0.09345   0.10396   0.37765   0.00000  Uiso   1.00
C1053  C     0.05350   0.08018   0.36259   0.00000  Uiso   1.00
C1054  C     0.12367   0.44480   0.41088   0.00000  Uiso   1.00
C1055  C     0.07759   0.43193   0.40193   0.00000  Uiso   1.00
C1056  C     0.05177   0.47004   0.38577   0.00000  Uiso   1.00
C1057  C     0.30754   0.11787   0.59353   0.00000  Uiso   1.00
C1058  C     0.31098   0.16567   0.60452   0.00000  Uiso   1.00
C1059  C     0.19060   0.43946   0.49983   0.00000  Uiso   1.00
C1060  C     0.26790   0.18220   0.62023   0.00000  Uiso   1.00
C1061  C     0.38247   0.04864   0.41698   0.00000  Uiso   1.00
C1062  C     0.42077   0.06106   0.38914   0.00000  Uiso   1.00
C1063  C     0.45263   0.02417   0.38601   0.00000  Uiso   1.00
C1064  C     0.20050   0.35867   0.58001   0.00000  Uiso   1.00
C1065  C     0.18757   0.31157   0.57150   0.00000  Uiso   1.00
C1066  C     0.22391   0.28134   0.58395   0.00000  Uiso   1.00
C1067  C     0.38933   0.43771   0.58807   0.00000  Uiso   1.00
C1068  C     0.38850   0.45669   0.63474   0.00000  Uiso   1.00
C1069  C     0.35457   0.49182   0.64007   0.00000  Uiso   1.00
C1070  C     0.31010   0.05976   0.50020   0.00000  Uiso   1.00
C1071  C     0.22109   0.15197   0.45858   0.00000  Uiso   1.00
C1072  C     0.20751   0.19598   0.47774   0.00000  Uiso   1.00
C1073  C     0.24558   0.22249   0.49282   0.00000  Uiso   1.00
C1074  C     0.10149   0.05479   0.58190   0.00000  Uiso   1.00
C1075  C     0.10983   0.02052   0.61669   0.00000  Uiso   1.00
C1076  C     0.14191   0.48713   0.60185   0.00000  Uiso   1.00
C1077  C     0.32996   0.39680   0.39873   0.00000  Uiso   1.00
C1078  C     0.34347   0.35396   0.37766   0.00000  Uiso   1.00
C1079  C     0.30354   0.33017   0.36258   0.00000  Uiso   1.00
C1080  C     0.49928   0.28739   0.35718   0.00000  Uiso   1.00
Cl1081 Cl    0.00510   0.33660   0.38434   0.00000  Uiso   1.00
Cl1082 Cl    0.02057   0.16610   0.61737   0.00000  Uiso   1.00
Cl1083 Cl    0.48311   0.16438   0.38129   0.00000  Uiso   1.00
Cl1084 Cl    0.46943   0.33272   0.62037   0.00000  Uiso   1.00
Cl1085 Cl    0.25509   0.08660   0.38433   0.00000  Uiso   1.00
Cl1086 Cl    0.27060   0.41611   0.61737   0.00000  Uiso   1.00
Cl1087 Cl    0.23312   0.41437   0.38129   0.00000  Uiso   1.00
Cl1088 Cl    0.21943   0.08272   0.62037   0.00000  Uiso   1.00
H1089  H     0.38625   0.21095   0.38107   0.00000  Uiso   1.00
H1090  H     0.08521   0.42036   0.63099   0.00000  Uiso   1.00
H1091  H     0.07568   0.07640   0.59393   0.00000  Uiso   1.00
H1092  H     0.12207   0.03564   0.64763   0.00000  Uiso   1.00
H1093  H     0.07952   0.00431   0.62253   0.00000  Uiso   1.00
H1094  H     0.13145   0.47241   0.57012   0.00000  Uiso   1.00
H1095  H     0.14595   0.46193   0.62752   0.00000  Uiso   1.00
H1096  H     0.17275   0.00265   0.59746   0.00000  Uiso   1.00
H1097  H     0.31863   0.41798   0.37176   0.00000  Uiso   1.00
H1098  H     0.30309   0.39007   0.42111   0.00000  Uiso   1.00
H1099  H     0.36435   0.35976   0.34898   0.00000  Uiso   1.00
H1100  H     0.36067   0.33322   0.40180   0.00000  Uiso   1.00
H1101  H     0.06976   0.43374   0.57449   0.00000  Uiso   1.00
H1102  H     0.28262   0.32421   0.39118   0.00000  Uiso   1.00
H1103  H     0.31164   0.29901   0.34803   0.00000  Uiso   1.00
H1104  H     0.28580   0.34864   0.33723   0.00000  Uiso   1.00
H1105  H     0.49329   0.42633   0.59447   0.00000  Uiso   1.00
H1106  H     0.01900   0.46716   0.62690   0.00000  Uiso   1.00
H1107  H     0.00862   0.41555   0.65107   0.00000  Uiso   1.00
H1108  H     0.11529   0.27211   0.39994   0.00000  Uiso   1.00
H1109  H     0.14333   0.28516   0.44950   0.00000  Uiso   1.00
H1110  H     0.15994   0.32071   0.35543   0.00000  Uiso   1.00
H1111  H     0.18734   0.33875   0.40454   0.00000  Uiso   1.00
H1112  H     0.22082   0.27183   0.41743   0.00000  Uiso   1.00
H1113  H     0.37529   0.21878   0.43846   0.00000  Uiso   1.00
H1114  H     0.22542   0.28072   0.35936   0.00000  Uiso   1.00
H1115  H     0.18662   0.24314   0.37894   0.00000  Uiso   1.00
H1116  H     0.46287   0.10911   0.61446   0.00000  Uiso   1.00
H1117  H     0.47618   0.11747   0.55684   0.00000  Uiso   1.00
H1118  H     0.41002   0.05327   0.59191   0.00000  Uiso   1.00
H1119  H     0.42942   0.05645   0.53595   0.00000  Uiso   1.00
H1120  H     0.00272   0.03890   0.56492   0.00000  Uiso   1.00
H1121  H     0.46411   0.49763   0.57724   0.00000  Uiso   1.00
H1122  H     0.48168   0.03456   0.61960   0.00000  Uiso   1.00
H1123  H     0.13967   0.21463   0.56374   0.00000  Uiso   1.00
H1124  H     0.32622   0.15562   0.37684   0.00000  Uiso   1.00
H1125  H     0.16952   0.16906   0.58531   0.00000  Uiso   1.00
H1126  H     0.13355   0.18046   0.65891   0.00000  Uiso   1.00
H1127  H     0.17012   0.22079   0.64195   0.00000  Uiso   1.00
H1128  H     0.08323   0.24380   0.61073   0.00000  Uiso   1.00
H1129  H     0.11940   0.27373   0.64480   0.00000  Uiso   1.00
H1130  H     0.08549   0.23537   0.33649   0.00000  Uiso   1.00
H1131  H     0.49531   0.40830   0.43356   0.00000  Uiso   1.00
H1132  H     0.48650   0.38180   0.48459   0.00000  Uiso   1.00
H1133  H     0.43889   0.46388   0.45256   0.00000  Uiso   1.00
H1134  H     0.43706   0.44128   0.50689   0.00000  Uiso   1.00
H1135  H     0.31374   0.17033   0.43310   0.00000  Uiso   1.00
H1136  H     0.00949   0.45907   0.52374   0.00000  Uiso   1.00
H1137  H     0.48534   0.00631   0.49814   0.00000  Uiso   1.00
H1138  H     0.02045   0.47273   0.46765   0.00000  Uiso   1.00
H1139  H     0.34081   0.28837   0.55056   0.00000  Uiso   1.00
H1140  H     0.32561   0.32627   0.59367   0.00000  Uiso   1.00
H1141  H     0.37206   0.28574   0.64759   0.00000  Uiso   1.00
H1142  H     0.32953   0.25433   0.62256   0.00000  Uiso   1.00
H1143  H     0.38153   0.22228   0.57027   0.00000  Uiso   1.00
H1144  H     0.39597   0.21199   0.62772   0.00000  Uiso   1.00
H1145  H     0.42278   0.25264   0.59755   0.00000  Uiso   1.00
H1146  H     0.30538   0.24799   0.40851   0.00000  Uiso   1.00
H1147  H     0.06862   0.16799   0.37176   0.00000  Uiso   1.00
H1148  H     0.05308   0.14007   0.42111   0.00000  Uiso   1.00
H1149  H     0.11431   0.10977   0.34895   0.00000  Uiso   1.00
H1150  H     0.11066   0.08322   0.40178   0.00000  Uiso   1.00
H1151  H     0.03263   0.07417   0.39121   0.00000  Uiso   1.00
H1152  H     0.06159   0.04905   0.34796   0.00000  Uiso   1.00
H1153  H     0.03572   0.09869   0.33729   0.00000  Uiso   1.00
H1154  H     0.13627   0.46096   0.38108   0.00000  Uiso   1.00
H1155  H     0.12531   0.46878   0.43847   0.00000  Uiso   1.00
H1156  H     0.07623   0.40564   0.37685   0.00000  Uiso   1.00
H1157  H     0.26781   0.21119   0.38292   0.00000  Uiso   1.00
H1158  H     0.06374   0.42036   0.43310   0.00000  Uiso   1.00
H1159  H     0.05540   0.49800   0.40853   0.00000  Uiso   1.00
H1160  H     0.01785   0.46122   0.38286   0.00000  Uiso   1.00
H1161  H     0.06338   0.47875   0.35302   0.00000  Uiso   1.00
H1162  H     0.29847   0.10171   0.62446   0.00000  Uiso   1.00
H1163  H     0.28225   0.11396   0.56793   0.00000  Uiso   1.00
H1164  H     0.33520   0.17039   0.63095   0.00000  Uiso   1.00
H1165  H     0.31974   0.18375   0.57444   0.00000  Uiso   1.00
H1166  H     0.24328   0.17633   0.59445   0.00000  Uiso   1.00
H1167  H     0.26899   0.21718   0.62684   0.00000  Uiso   1.00
H1168  H     0.31329   0.22870   0.35301   0.00000  Uiso   1.00
H1169  H     0.25862   0.16559   0.65106   0.00000  Uiso   1.00
H1170  H     0.36528   0.02211   0.39992   0.00000  Uiso   1.00
H1171  H     0.39329   0.03513   0.44951   0.00000  Uiso   1.00
H1172  H     0.40999   0.07071   0.35547   0.00000  Uiso   1.00
H1173  H     0.43735   0.08873   0.40461   0.00000  Uiso   1.00
H1174  H     0.47080   0.02179   0.41751   0.00000  Uiso   1.00
H1175  H     0.47544   0.03068   0.35944   0.00000  Uiso   1.00
H1176  H     0.43662   0.49312   0.37899   0.00000  Uiso   1.00
H1177  H     0.21287   0.35916   0.61445   0.00000  Uiso   1.00
H1178  H     0.22617   0.36751   0.55683   0.00000  Uiso   1.00
H1179  H     0.04848   0.35168   0.62447   0.00000  Uiso   1.00
H1180  H     0.16007   0.30329   0.59198   0.00000  Uiso   1.00
H1181  H     0.17937   0.30647   0.53598   0.00000  Uiso   1.00
H1182  H     0.25271   0.28893   0.56477   0.00000  Uiso   1.00
H1183  H     0.21414   0.24767   0.57727   0.00000  Uiso   1.00
H1184  H     0.23184   0.28466   0.61953   0.00000  Uiso   1.00
H1185  H     0.38968   0.46462   0.56374   0.00000  Uiso   1.00
H1186  H     0.41953   0.41905   0.58533   0.00000  Uiso   1.00
H1187  H     0.38352   0.43047   0.65892   0.00000  Uiso   1.00
H1188  H     0.42011   0.47078   0.64197   0.00000  Uiso   1.00
H1189  H     0.33327   0.49387   0.61069   0.00000  Uiso   1.00
H1190  H     0.03226   0.36396   0.56794   0.00000  Uiso   1.00
H1191  H     0.36943   0.02373   0.64485   0.00000  Uiso   1.00
H1192  H     0.33546   0.48538   0.33645   0.00000  Uiso   1.00
H1193  H     0.24534   0.15824   0.43362   0.00000  Uiso   1.00
H1194  H     0.23644   0.13182   0.48467   0.00000  Uiso   1.00
H1195  H     0.18894   0.21388   0.45245   0.00000  Uiso   1.00
H1196  H     0.18700   0.19136   0.50679   0.00000  Uiso   1.00
H1197  H     0.25938   0.20912   0.52378   0.00000  Uiso   1.00
H1198  H     0.23535   0.25634   0.49804   0.00000  Uiso   1.00
H1199  H     0.27050   0.22266   0.46770   0.00000  Uiso   1.00
H1200  H     0.09063   0.03855   0.55069   0.00000  Uiso   1.00
N1201  N    -0.00000   0.25000   0.61907   0.00000  Uiso   1.00
N1202  N     0.00000   0.25000   0.38093   0.00000  Uiso   1.00
N1203  N     0.25000   0.00000   0.61907   0.00000  Uiso   1.00
N1204  N     0.25000   0.00000   0.38093   0.00000  Uiso   1.00
O1205  O     0.04580   0.20419   0.53821   0.00000  Uiso   1.00
O1206  O     0.20419   0.04581   0.46179   0.00000  Uiso   1.00
O1207  O     0.20419   0.04581   0.53821   0.00000  Uiso   1.00
O1208  O     0.29580   0.45419   0.46179   0.00000  Uiso   1.00
O1209  O     0.20419   0.45419   0.46179   0.00000  Uiso   1.00
O1210  O     0.29580   0.04581   0.53821   0.00000  Uiso   1.00
O1211  O     0.29580   0.04581   0.46179   0.00000  Uiso   1.00
O1212  O     0.20419   0.45419   0.53821   0.00000  Uiso   1.00
O1213  O     0.39949   0.15828   0.41931   0.00000  Uiso   1.00
O1214  O     0.09582   0.34770   0.58132   0.00000  Uiso   1.00
O1215  O     0.10406   0.33406   0.42086   0.00000  Uiso   1.00
O1216  O     0.45419   0.29581   0.46179   0.00000  Uiso   1.00
O1217  O     0.41753   0.14007   0.57855   0.00000  Uiso   1.00
O1218  O     0.10384   0.16072   0.58046   0.00000  Uiso   1.00
O1219  O     0.43784   0.37950   0.43629   0.00000  Uiso   1.00
O1220  O     0.38886   0.32848   0.57598   0.00000  Uiso   1.00
O1221  O     0.11259   0.16920   0.42123   0.00000  Uiso   1.00
O1222  O     0.14949   0.40827   0.41931   0.00000  Uiso   1.00
O1223  O     0.34582   0.09771   0.58132   0.00000  Uiso   1.00
O1224  O     0.35406   0.08406   0.42085   0.00000  Uiso   1.00
O1225  O     0.16752   0.39009   0.57855   0.00000  Uiso   1.00
O1226  O     0.35384   0.41072   0.58046   0.00000  Uiso   1.00
O1227  O     0.45419   0.29581   0.53821   0.00000  Uiso   1.00
O1228  O     0.18784   0.12949   0.43630   0.00000  Uiso   1.00
O1229  O     0.13886   0.07848   0.57599   0.00000  Uiso   1.00
O1230  O     0.36259   0.41921   0.42123   0.00000  Uiso   1.00
O1231  O     0.04580   0.20419   0.46179   0.00000  Uiso   1.00
O1232  O     0.45419   0.20419   0.46179   0.00000  Uiso   1.00
O1233  O     0.04580   0.29581   0.53821   0.00000  Uiso   1.00
O1234  O     0.04580   0.29581   0.46179   0.00000  Uiso   1.00
O1235  O     0.45419   0.20419   0.53821   0.00000  Uiso   1.00
O1236  O     0.29580   0.45419   0.53821   0.00000  Uiso   1.00
Zn1237 Zn   -0.00000   0.25000   0.55104   0.00000  Uiso   1.00
Zn1238 Zn    0.00000   0.25000   0.44896   0.00000  Uiso   1.00
Zn1239 Zn    0.25000   0.00000   0.55104   0.00000  Uiso   1.00
Zn1240 Zn    0.25000   0.00000   0.44896   0.00000  Uiso   1.00
C1241  C     0.56124   0.19133   0.50002   0.00000  Uiso   1.00
C1242  C     0.50372   0.21290   0.64309   0.00000  Uiso   1.00
C1243  C     0.99796   0.21264   0.35650   0.00000  Uiso   1.00
C1244  C     0.99347   0.28700   0.64367   0.00000  Uiso   1.00
C1245  C     0.74928   0.03739   0.35718   0.00000  Uiso   1.00
C1246  C     0.75373   0.46290   0.64310   0.00000  Uiso   1.00
C1247  C     0.74797   0.46264   0.35650   0.00000  Uiso   1.00
C1248  C     0.74347   0.03699   0.64367   0.00000  Uiso   1.00
C1249  C     0.88929   0.14095   0.45979   0.00000  Uiso   1.00
C1250  C     0.60848   0.36147   0.54023   0.00000  Uiso   1.00
C1251  C     0.61235   0.35541   0.46029   0.00000  Uiso   1.00
C1252  C     0.94026   0.31003   0.50015   0.00000  Uiso   1.00
C1253  C     0.89489   0.13639   0.53944   0.00000  Uiso   1.00
C1254  C     0.60954   0.14055   0.54007   0.00000  Uiso   1.00
C1255  C     0.90505   0.37304   0.46519   0.00000  Uiso   1.00
C1256  C     0.88416   0.35305   0.53853   0.00000  Uiso   1.00
C1257  C     0.61959   0.14954   0.46148   0.00000  Uiso   1.00
C1258  C     0.63929   0.39095   0.45979   0.00000  Uiso   1.00
C1259  C     0.85848   0.11147   0.54023   0.00000  Uiso   1.00
C1260  C     0.86235   0.10541   0.46029   0.00000  Uiso   1.00
C1261  C     0.64488   0.38640   0.53944   0.00000  Uiso   1.00
C1262  C     0.85955   0.39055   0.54007   0.00000  Uiso   1.00
C1263  C     0.94061   0.18946   0.49983   0.00000  Uiso   1.00
C1264  C     0.65504   0.12302   0.46519   0.00000  Uiso   1.00
C1265  C     0.63415   0.10305   0.53853   0.00000  Uiso   1.00
C1266  C     0.86960   0.39956   0.46148   0.00000  Uiso   1.00
C1267  C     0.59337   0.34295   0.50035   0.00000  Uiso   1.00
C1268  C     0.90793   0.15556   0.49966   0.00000  Uiso   1.00
C1269  C     0.90870   0.34480   0.50093   0.00000  Uiso   1.00
C1270  C     0.59649   0.15991   0.50013   0.00000  Uiso   1.00
C1271  C     0.84337   0.09295   0.50035   0.00000  Uiso   1.00
C1272  C     0.65793   0.40557   0.49966   0.00000  Uiso   1.00
C1273  C     0.65869   0.09479   0.50093   0.00000  Uiso   1.00
C1274  C     0.56011   0.30976   0.50020   0.00000  Uiso   1.00
C1275  C     0.84650   0.40992   0.50013   0.00000  Uiso   1.00
C1276  C     0.87365   0.19480   0.41087   0.00000  Uiso   1.00
C1277  C     0.82758   0.18191   0.40193   0.00000  Uiso   1.00
C1278  C     0.80173   0.22001   0.38578   0.00000  Uiso   1.00
C1279  C     0.55755   0.36786   0.59355   0.00000  Uiso   1.00
C1280  C     0.56099   0.41566   0.60455   0.00000  Uiso   1.00
C1281  C     0.51791   0.43218   0.62026   0.00000  Uiso   1.00
C1282  C     0.63249   0.29865   0.41697   0.00000  Uiso   1.00
C1283  C     0.67075   0.31108   0.38910   0.00000  Uiso   1.00
C1284  C     0.70262   0.27421   0.38595   0.00000  Uiso   1.00
C1285  C     0.81124   0.44134   0.50002   0.00000  Uiso   1.00
C1286  C     0.95050   0.10864   0.58001   0.00000  Uiso   1.00
C1287  C     0.93756   0.06154   0.57147   0.00000  Uiso   1.00
C1288  C     0.97387   0.03129   0.58400   0.00000  Uiso   1.00
C1289  C     0.63933   0.18772   0.58806   0.00000  Uiso   1.00
C1290  C     0.63851   0.20668   0.63473   0.00000  Uiso   1.00
C1291  C     0.60457   0.24180   0.64007   0.00000  Uiso   1.00
C1292  C     0.97110   0.40198   0.45855   0.00000  Uiso   1.00
C1293  C     0.95752   0.44596   0.47780   0.00000  Uiso   1.00
C1294  C     0.99559   0.47248   0.49284   0.00000  Uiso   1.00
C1295  C     0.85152   0.30470   0.58179   0.00000  Uiso   1.00
C1296  C     0.69026   0.06002   0.50015   0.00000  Uiso   1.00
C1297  C     0.85984   0.27053   0.61669   0.00000  Uiso   1.00
C1298  C     0.89194   0.23711   0.60196   0.00000  Uiso   1.00
C1299  C     0.57995   0.14681   0.39873   0.00000  Uiso   1.00
C1300  C     0.59345   0.10396   0.37765   0.00000  Uiso   1.00
C1301  C     0.55350   0.08018   0.36259   0.00000  Uiso   1.00
C1302  C     0.62367   0.44480   0.41088   0.00000  Uiso   1.00
C1303  C     0.57759   0.43193   0.40193   0.00000  Uiso   1.00
C1304  C     0.55177   0.47004   0.38577   0.00000  Uiso   1.00
C1305  C     0.80754   0.11787   0.59353   0.00000  Uiso   1.00
C1306  C     0.81098   0.16567   0.60452   0.00000  Uiso   1.00
C1307  C     0.69060   0.43946   0.49983   0.00000  Uiso   1.00
C1308  C     0.76790   0.18220   0.62023   0.00000  Uiso   1.00
C1309  C     0.88247   0.04864   0.41698   0.00000  Uiso   1.00
C1310  C     0.92077   0.06106   0.38914   0.00000  Uiso   1.00
C1311  C     0.95263   0.02417   0.38601   0.00000  Uiso   1.00
C1312  C     0.70050   0.35867   0.58001   0.00000  Uiso   1.00
C1313  C     0.68757   0.31157   0.57150   0.00000  Uiso   1.00
C1314  C     0.72391   0.28134   0.58395   0.00000  Uiso   1.00
C1315  C     0.88933   0.43771   0.58807   0.00000  Uiso   1.00
C1316  C     0.88850   0.45669   0.63474   0.00000  Uiso   1.00
C1317  C     0.85457   0.49182   0.64007   0.00000  Uiso   1.00
C1318  C     0.81010   0.05976   0.50020   0.00000  Uiso   1.00
C1319  C     0.72109   0.15197   0.45858   0.00000  Uiso   1.00
C1320  C     0.70751   0.19598   0.47774   0.00000  Uiso   1.00
C1321  C     0.74558   0.22249   0.49282   0.00000  Uiso   1.00
C1322  C     0.60149   0.05479   0.58190   0.00000  Uiso   1.00
C1323  C     0.60983   0.02052   0.61669   0.00000  Uiso   1.00
C1324  C     0.64191   0.48713   0.60185   0.00000  Uiso   1.00
C1325  C     0.82996   0.39680   0.39873   0.00000  Uiso   1.00
C1326  C     0.84347   0.35396   0.37766   0.00000  Uiso   1.00
C1327  C     0.80354   0.33017   0.36258   0.00000  Uiso   1.00
C1328  C     0.99928   0.28739   0.35718   0.00000  Uiso   1.00
Cl1329 Cl    0.50510   0.33660   0.38434   0.00000  Uiso   1.00
Cl1330 Cl    0.52057   0.16610   0.61737   0.00000  Uiso   1.00
Cl1331 Cl    0.98311   0.16438   0.38129   0.00000  Uiso   1.00
Cl1332 Cl    0.96943   0.33272   0.62037   0.00000  Uiso   1.00
Cl1333 Cl    0.75509   0.08660   0.38433   0.00000  Uiso   1.00
Cl1334 Cl    0.77060   0.41611   0.61737   0.00000  Uiso   1.00
Cl1335 Cl    0.73312   0.41437   0.38129   0.00000  Uiso   1.00
Cl1336 Cl    0.71943   0.08272   0.62037   0.00000  Uiso   1.00
H1337  H     0.88625   0.21095   0.38107   0.00000  Uiso   1.00
H1338  H     0.58521   0.42036   0.63099   0.00000  Uiso   1.00
H1339  H     0.57568   0.07640   0.59393   0.00000  Uiso   1.00
H1340  H     0.62207   0.03564   0.64763   0.00000  Uiso   1.00
H1341  H     0.57952   0.00431   0.62253   0.00000  Uiso   1.00
H1342  H     0.63145   0.47241   0.57012   0.00000  Uiso   1.00
H1343  H     0.64595   0.46193   0.62752   0.00000  Uiso   1.00
H1344  H     0.67275   0.00265   0.59746   0.00000  Uiso   1.00
H1345  H     0.81863   0.41798   0.37176   0.00000  Uiso   1.00
H1346  H     0.80309   0.39007   0.42111   0.00000  Uiso   1.00
H1347  H     0.86435   0.35976   0.34898   0.00000  Uiso   1.00
H1348  H     0.86067   0.33322   0.40180   0.00000  Uiso   1.00
H1349  H     0.56976   0.43374   0.57449   0.00000  Uiso   1.00
H1350  H     0.78262   0.32421   0.39118   0.00000  Uiso   1.00
H1351  H     0.81164   0.29901   0.34803   0.00000  Uiso   1.00
H1352  H     0.78580   0.34864   0.33723   0.00000  Uiso   1.00
H1353  H     0.99329   0.42633   0.59447   0.00000  Uiso   1.00
H1354  H     0.51900   0.46716   0.62690   0.00000  Uiso   1.00
H1355  H     0.50862   0.41555   0.65107   0.00000  Uiso   1.00
H1356  H     0.61529   0.27211   0.39994   0.00000  Uiso   1.00
H1357  H     0.64333   0.28516   0.44950   0.00000  Uiso   1.00
H1358  H     0.65994   0.32071   0.35543   0.00000  Uiso   1.00
H1359  H     0.68734   0.33875   0.40454   0.00000  Uiso   1.00
H1360  H     0.72082   0.27183   0.41743   0.00000  Uiso   1.00
H1361  H     0.87529   0.21878   0.43846   0.00000  Uiso   1.00
H1362  H     0.72542   0.28072   0.35936   0.00000  Uiso   1.00
H1363  H     0.68662   0.24314   0.37894   0.00000  Uiso   1.00
H1364  H     0.96287   0.10911   0.61446   0.00000  Uiso   1.00
H1365  H     0.97618   0.11747   0.55684   0.00000  Uiso   1.00
H1366  H     0.91002   0.05327   0.59191   0.00000  Uiso   1.00
H1367  H     0.92942   0.05645   0.53595   0.00000  Uiso   1.00
H1368  H     0.50272   0.03890   0.56492   0.00000  Uiso   1.00
H1369  H     0.96411   0.49763   0.57724   0.00000  Uiso   1.00
H1370  H     0.98168   0.03456   0.61960   0.00000  Uiso   1.00
H1371  H     0.63967   0.21463   0.56374   0.00000  Uiso   1.00
H1372  H     0.82622   0.15562   0.37684   0.00000  Uiso   1.00
H1373  H     0.66952   0.16906   0.58531   0.00000  Uiso   1.00
H1374  H     0.63355   0.18046   0.65891   0.00000  Uiso   1.00
H1375  H     0.67012   0.22079   0.64195   0.00000  Uiso   1.00
H1376  H     0.58323   0.24380   0.61073   0.00000  Uiso   1.00
H1377  H     0.61940   0.27373   0.64480   0.00000  Uiso   1.00
H1378  H     0.58549   0.23537   0.33649   0.00000  Uiso   1.00
H1379  H     0.99531   0.40830   0.43356   0.00000  Uiso   1.00
H1380  H     0.98650   0.38180   0.48459   0.00000  Uiso   1.00
H1381  H     0.93889   0.46388   0.45256   0.00000  Uiso   1.00
H1382  H     0.93706   0.44128   0.50689   0.00000  Uiso   1.00
H1383  H     0.81374   0.17033   0.43310   0.00000  Uiso   1.00
H1384  H     0.50949   0.45907   0.52374   0.00000  Uiso   1.00
H1385  H     0.98534   0.00631   0.49814   0.00000  Uiso   1.00
H1386  H     0.52045   0.47273   0.46765   0.00000  Uiso   1.00
H1387  H     0.84081   0.28837   0.55056   0.00000  Uiso   1.00
H1388  H     0.82561   0.32627   0.59367   0.00000  Uiso   1.00
H1389  H     0.87206   0.28574   0.64759   0.00000  Uiso   1.00
H1390  H     0.82953   0.25433   0.62256   0.00000  Uiso   1.00
H1391  H     0.88153   0.22228   0.57027   0.00000  Uiso   1.00
H1392  H     0.89597   0.21199   0.62772   0.00000  Uiso   1.00
H1393  H     0.92278   0.25264   0.59755   0.00000  Uiso   1.00
H1394  H     0.80538   0.24799   0.40851   0.00000  Uiso   1.00
H1395  H     0.56862   0.16799   0.37176   0.00000  Uiso   1.00
H1396  H     0.55308   0.14007   0.42111   0.00000  Uiso   1.00
H1397  H     0.61431   0.10977   0.34895   0.00000  Uiso   1.00
H1398  H     0.61066   0.08322   0.40178   0.00000  Uiso   1.00
H1399  H     0.53263   0.07417   0.39121   0.00000  Uiso   1.00
H1400  H     0.56159   0.04905   0.34796   0.00000  Uiso   1.00
H1401  H     0.53572   0.09869   0.33729   0.00000  Uiso   1.00
H1402  H     0.63627   0.46096   0.38108   0.00000  Uiso   1.00
H1403  H     0.62531   0.46878   0.43847   0.00000  Uiso   1.00
H1404  H     0.57623   0.40564   0.37685   0.00000  Uiso   1.00
H1405  H     0.76781   0.21119   0.38292   0.00000  Uiso   1.00
H1406  H     0.56374   0.42036   0.43310   0.00000  Uiso   1.00
H1407  H     0.55540   0.49800   0.40853   0.00000  Uiso   1.00
H1408  H     0.51785   0.46122   0.38286   0.00000  Uiso   1.00
H1409  H     0.56338   0.47875   0.35302   0.00000  Uiso   1.00
H1410  H     0.79847   0.10171   0.62446   0.00000  Uiso   1.00
H1411  H     0.78225   0.11396   0.56793   0.00000  Uiso   1.00
H1412  H     0.83520   0.17039   0.63095   0.00000  Uiso   1.00
H1413  H     0.81974   0.18375   0.57444   0.00000  Uiso   1.00
H1414  H     0.74328   0.17633   0.59445   0.00000  Uiso   1.00
H1415  H     0.76899   0.21718   0.62684   0.00000  Uiso   1.00
H1416  H     0.81329   0.22870   0.35301   0.00000  Uiso   1.00
H1417  H     0.75862   0.16559   0.65106   0.00000  Uiso   1.00
H1418  H     0.86528   0.02211   0.39992   0.00000  Uiso   1.00
H1419  H     0.89329   0.03513   0.44951   0.00000  Uiso   1.00
H1420  H     0.90999   0.07071   0.35547   0.00000  Uiso   1.00
H1421  H     0.93735   0.08873   0.40461   0.00000  Uiso   1.00
H1422  H     0.97080   0.02179   0.41751   0.00000  Uiso   1.00
H1423  H     0.97544   0.03068   0.35944   0.00000  Uiso   1.00
H1424  H     0.93662   0.49312   0.37899   0.00000  Uiso   1.00
H1425  H     0.71287   0.35916   0.61445   0.00000  Uiso   1.00
H1426  H     0.72617   0.36751   0.55683   0.00000  Uiso   1.00
H1427  H     0.54848   0.35168   0.62447   0.00000  Uiso   1.00
H1428  H     0.66007   0.30329   0.59198   0.00000  Uiso   1.00
H1429  H     0.67937   0.30647   0.53598   0.00000  Uiso   1.00
H1430  H     0.75271   0.28893   0.56477   0.00000  Uiso   1.00
H1431  H     0.71414   0.24767   0.57727   0.00000  Uiso   1.00
H1432  H     0.73184   0.28466   0.61953   0.00000  Uiso   1.00
H1433  H     0.88968   0.46462   0.56374   0.00000  Uiso   1.00
H1434  H     0.91953   0.41905   0.58533   0.00000  Uiso   1.00
H1435  H     0.88352   0.43047   0.65892   0.00000  Uiso   1.00
H1436  H     0.92011   0.47078   0.64197   0.00000  Uiso   1.00
H1437  H     0.83327   0.49387   0.61069   0.00000  Uiso   1.00
H1438  H     0.53226   0.36396   0.56794   0.00000  Uiso   1.00
H1439  H     0.86943   0.02373   0.64485   0.00000  Uiso   1.00
H1440  H     0.83546   0.48538   0.33645   0.00000  Uiso   1.00
H1441  H     0.74534   0.15824   0.43362   0.00000  Uiso   1.00
H1442  H     0.73644   0.13182   0.48467   0.00000  Uiso   1.00
H1443  H     0.68894   0.21388   0.45245   0.00000  Uiso   1.00
H1444  H     0.68700   0.19136   0.50679   0.00000  Uiso   1.00
H1445  H     0.75938   0.20912   0.52378   0.00000  Uiso   1.00
H1446  H     0.73535   0.25634   0.49804   0.00000  Uiso   1.00
H1447  H     0.77050   0.22266   0.46770   0.00000  Uiso   1.00
H1448  H     0.59063   0.03855   0.55069   0.00000  Uiso   1.00
N1449  N     0.50000   0.25000   0.61907   0.00000  Uiso   1.00
N1450  N     0.50000   0.25000   0.38093   0.00000  Uiso   1.00
N1451  N     0.75000   0.00000   0.61907   0.00000  Uiso   1.00
N1452  N     0.75000   0.00000   0.38093   0.00000  Uiso   1.00
O1453  O     0.54580   0.20419   0.53821   0.00000  Uiso   1.00
O1454  O     0.70419   0.04581   0.46179   0.00000  Uiso   1.00
O1455  O     0.70419   0.04581   0.53821   0.00000  Uiso   1.00
O1456  O     0.79580   0.45419   0.46179   0.00000  Uiso   1.00
O1457  O     0.70419   0.45419   0.46179   0.00000  Uiso   1.00
O1458  O     0.79580   0.04581   0.53821   0.00000  Uiso   1.00
O1459  O     0.79580   0.04581   0.46179   0.00000  Uiso   1.00
O1460  O     0.70419   0.45419   0.53821   0.00000  Uiso   1.00
O1461  O     0.89949   0.15828   0.41931   0.00000  Uiso   1.00
O1462  O     0.59582   0.34770   0.58132   0.00000  Uiso   1.00
O1463  O     0.60406   0.33406   0.42086   0.00000  Uiso   1.00
O1464  O     0.95419   0.29581   0.46179   0.00000  Uiso   1.00
O1465  O     0.91753   0.14007   0.57855   0.00000  Uiso   1.00
O1466  O     0.60384   0.16072   0.58046   0.00000  Uiso   1.00
O1467  O     0.93784   0.37950   0.43629   0.00000  Uiso   1.00
O1468  O     0.88886   0.32848   0.57598   0.00000  Uiso   1.00
O1469  O     0.61259   0.16920   0.42123   0.00000  Uiso   1.00
O1470  O     0.64949   0.40827   0.41931   0.00000  Uiso   1.00
O1471  O     0.84582   0.09771   0.58132   0.00000  Uiso   1.00
O1472  O     0.85406   0.08406   0.42085   0.00000  Uiso   1.00
O1473  O     0.66752   0.39009   0.57855   0.00000  Uiso   1.00
O1474  O     0.85384   0.41072   0.58046   0.00000  Uiso   1.00
O1475  O     0.95419   0.29581   0.53821   0.00000  Uiso   1.00
O1476  O     0.68784   0.12949   0.43630   0.00000  Uiso   1.00
O1477  O     0.63886   0.07848   0.57599   0.00000  Uiso   1.00
O1478  O     0.86259   0.41921   0.42123   0.00000  Uiso   1.00
O1479  O     0.54580   0.20419   0.46179   0.00000  Uiso   1.00
O1480  O     0.95419   0.20419   0.46179   0.00000  Uiso   1.00
O1481  O     0.54580   0.29581   0.53821   0.00000  Uiso   1.00
O1482  O     0.54580   0.29581   0.46179   0.00000  Uiso   1.00
O1483  O     0.95419   0.20419   0.53821   0.00000  Uiso   1.00
O1484  O     0.79580   0.45419   0.53821   0.00000  Uiso   1.00
Zn1485 Zn    0.50000   0.25000   0.55104   0.00000  Uiso   1.00
Zn1486 Zn    0.50000   0.25000   0.44896   0.00000  Uiso   1.00
Zn1487 Zn    0.75000   0.00000   0.55104   0.00000  Uiso   1.00
Zn1488 Zn    0.75000   0.00000   0.44896   0.00000  Uiso   1.00
C1489  C     0.06124   0.69133   0.50002   0.00000  Uiso   1.00
C1490  C     0.00372   0.71290   0.64309   0.00000  Uiso   1.00
C1491  C     0.49796   0.71264   0.35650   0.00000  Uiso   1.00
C1492  C     0.49347   0.78700   0.64367   0.00000  Uiso   1.00
C1493  C     0.24928   0.53739   0.35718   0.00000  Uiso   1.00
C1494  C     0.25373   0.96290   0.64310   0.00000  Uiso   1.00
C1495  C     0.24797   0.96264   0.35650   0.00000  Uiso   1.00
C1496  C     0.24347   0.53699   0.64367   0.00000  Uiso   1.00
C1497  C     0.38929   0.64095   0.45979   0.00000  Uiso   1.00
C1498  C     0.10848   0.86147   0.54023   0.00000  Uiso   1.00
C1499  C     0.11235   0.85541   0.46029   0.00000  Uiso   1.00
C1500  C     0.44026   0.81003   0.50015   0.00000  Uiso   1.00
C1501  C     0.39489   0.63639   0.53944   0.00000  Uiso   1.00
C1502  C     0.10954   0.64055   0.54007   0.00000  Uiso   1.00
C1503  C     0.40505   0.87304   0.46519   0.00000  Uiso   1.00
C1504  C     0.38416   0.85305   0.53853   0.00000  Uiso   1.00
C1505  C     0.11959   0.64954   0.46148   0.00000  Uiso   1.00
C1506  C     0.13929   0.89095   0.45979   0.00000  Uiso   1.00
C1507  C     0.35848   0.61147   0.54023   0.00000  Uiso   1.00
C1508  C     0.36235   0.60541   0.46029   0.00000  Uiso   1.00
C1509  C     0.14488   0.88640   0.53944   0.00000  Uiso   1.00
C1510  C     0.35955   0.89055   0.54007   0.00000  Uiso   1.00
C1511  C     0.44061   0.68946   0.49983   0.00000  Uiso   1.00
C1512  C     0.15504   0.62302   0.46519   0.00000  Uiso   1.00
C1513  C     0.13415   0.60305   0.53853   0.00000  Uiso   1.00
C1514  C     0.36960   0.89956   0.46148   0.00000  Uiso   1.00
C1515  C     0.09337   0.84295   0.50035   0.00000  Uiso   1.00
C1516  C     0.40793   0.65556   0.49966   0.00000  Uiso   1.00
C1517  C     0.40870   0.84480   0.50093   0.00000  Uiso   1.00
C1518  C     0.09649   0.65991   0.50013   0.00000  Uiso   1.00
C1519  C     0.34337   0.59295   0.50035   0.00000  Uiso   1.00
C1520  C     0.15793   0.90557   0.49966   0.00000  Uiso   1.00
C1521  C     0.15869   0.59479   0.50093   0.00000  Uiso   1.00
C1522  C     0.06011   0.80976   0.50020   0.00000  Uiso   1.00
C1523  C     0.34650   0.90992   0.50013   0.00000  Uiso   1.00
C1524  C     0.37365   0.69480   0.41087   0.00000  Uiso   1.00
C1525  C     0.32758   0.68191   0.40193   0.00000  Uiso   1.00
C1526  C     0.30173   0.72001   0.38578   0.00000  Uiso   1.00
C1527  C     0.05755   0.86786   0.59355   0.00000  Uiso   1.00
C1528  C     0.06099   0.91566   0.60455   0.00000  Uiso   1.00
C1529  C     0.01791   0.93218   0.62026   0.00000  Uiso   1.00
C1530  C     0.13249   0.79865   0.41697   0.00000  Uiso   1.00
C1531  C     0.17075   0.81108   0.38910   0.00000  Uiso   1.00
C1532  C     0.20262   0.77421   0.38595   0.00000  Uiso   1.00
C1533  C     0.31124   0.94134   0.50002   0.00000  Uiso   1.00
C1534  C     0.45050   0.60864   0.58001   0.00000  Uiso   1.00
C1535  C     0.43756   0.56154   0.57147   0.00000  Uiso   1.00
C1536  C     0.47387   0.53129   0.58400   0.00000  Uiso   1.00
C1537  C     0.13933   0.68772   0.58806   0.00000  Uiso   1.00
C1538  C     0.13851   0.70668   0.63473   0.00000  Uiso   1.00
C1539  C     0.10457   0.74180   0.64007   0.00000  Uiso   1.00
C1540  C     0.47110   0.90198   0.45855   0.00000  Uiso   1.00
C1541  C     0.45752   0.94596   0.47780   0.00000  Uiso   1.00
C1542  C     0.49559   0.97248   0.49284   0.00000  Uiso   1.00
C1543  C     0.35152   0.80470   0.58179   0.00000  Uiso   1.00
C1544  C     0.19026   0.56002   0.50015   0.00000  Uiso   1.00
C1545  C     0.35984   0.77053   0.61669   0.00000  Uiso   1.00
C1546  C     0.39194   0.73711   0.60196   0.00000  Uiso   1.00
C1547  C     0.07995   0.64681   0.39873   0.00000  Uiso   1.00
C1548  C     0.09345   0.60396   0.37765   0.00000  Uiso   1.00
C1549  C     0.05350   0.58018   0.36259   0.00000  Uiso   1.00
C1550  C     0.12367   0.94480   0.41088   0.00000  Uiso   1.00
C1551  C     0.07759   0.93193   0.40193   0.00000  Uiso   1.00
C1552  C     0.05177   0.97004   0.38577   0.00000  Uiso   1.00
C1553  C     0.30754   0.61787   0.59353   0.00000  Uiso   1.00
C1554  C     0.31098   0.66567   0.60452   0.00000  Uiso   1.00
C1555  C     0.19060   0.93946   0.49983   0.00000  Uiso   1.00
C1556  C     0.26790   0.68220   0.62023   0.00000  Uiso   1.00
C1557  C     0.38247   0.54864   0.41698   0.00000  Uiso   1.00
C1558  C     0.42077   0.56106   0.38914   0.00000  Uiso   1.00
C1559  C     0.45263   0.52417   0.38601   0.00000  Uiso   1.00
C1560  C     0.20050   0.85867   0.58001   0.00000  Uiso   1.00
C1561  C     0.18757   0.81157   0.57150   0.00000  Uiso   1.00
C1562  C     0.22391   0.78134   0.58395   0.00000  Uiso   1.00
C1563  C     0.38933   0.93771   0.58807   0.00000  Uiso   1.00
C1564  C     0.38850   0.95669   0.63474   0.00000  Uiso   1.00
C1565  C     0.35457   0.99182   0.64007   0.00000  Uiso   1.00
C1566  C     0.31010   0.55976   0.50020   0.00000  Uiso   1.00
C1567  C     0.22109   0.65197   0.45858   0.00000  Uiso   1.00
C1568  C     0.20751   0.69598   0.47774   0.00000  Uiso   1.00
C1569  C     0.24558   0.72249   0.49282   0.00000  Uiso   1.00
C1570  C     0.10149   0.55479   0.58190   0.00000  Uiso   1.00
C1571  C     0.10983   0.52052   0.61669   0.00000  Uiso   1.00
C1572  C     0.14191   0.98713   0.60185   0.00000  Uiso   1.00
C1573  C     0.32996   0.89680   0.39873   0.00000  Uiso   1.00
C1574  C     0.34347   0.85396   0.37766   0.00000  Uiso   1.00
C1575  C     0.30354   0.83017   0.36258   0.00000  Uiso   1.00
C1576  C     0.49928   0.78739   0.35718   0.00000  Uiso   1.00
Cl1577 Cl    0.00510   0.83660   0.38434   0.00000  Uiso   1.00
Cl1578 Cl    0.02057   0.66610   0.61737   0.00000  Uiso   1.00
Cl1579 Cl    0.48311   0.66438   0.38129   0.00000  Uiso   1.00
Cl1580 Cl    0.46943   0.83272   0.62037   0.00000  Uiso   1.00
Cl1581 Cl    0.25509   0.58660   0.38433   0.00000  Uiso   1.00
Cl1582 Cl    0.27060   0.91611   0.61737   0.00000  Uiso   1.00
Cl1583 Cl    0.23312   0.91437   0.38129   0.00000  Uiso   1.00
Cl1584 Cl    0.21943   0.58272   0.62037   0.00000  Uiso   1.00
H1585  H     0.38625   0.71095   0.38107   0.00000  Uiso   1.00
H1586  H     0.08521   0.92036   0.63099   0.00000  Uiso   1.00
H1587  H     0.07568   0.57640   0.59393   0.00000  Uiso   1.00
H1588  H     0.12207   0.53564   0.64763   0.00000  Uiso   1.00
H1589  H     0.07952   0.50431   0.62253   0.00000  Uiso   1.00
H1590  H     0.13145   0.97241   0.57012   0.00000  Uiso   1.00
H1591  H     0.14595   0.96193   0.62752   0.00000  Uiso   1.00
H1592  H     0.17275   0.50265   0.59746   0.00000  Uiso   1.00
H1593  H     0.31863   0.91798   0.37176   0.00000  Uiso   1.00
H1594  H     0.30309   0.89007   0.42111   0.00000  Uiso   1.00
H1595  H     0.36435   0.85976   0.34898   0.00000  Uiso   1.00
H1596  H     0.36067   0.83322   0.40180   0.00000  Uiso   1.00
H1597  H     0.06976   0.93374   0.57449   0.00000  Uiso   1.00
H1598  H     0.28262   0.82421   0.39118   0.00000  Uiso   1.00
H1599  H     0.31164   0.79901   0.34803   0.00000  Uiso   1.00
H1600  H     0.28580   0.84864   0.33723   0.00000  Uiso   1.00
H1601  H     0.49329   0.92633   0.59447   0.00000  Uiso   1.00
H1602  H     0.01900   0.96716   0.62690   0.00000  Uiso   1.00
H1603  H     0.00862   0.91555   0.65107   0.00000  Uiso   1.00
H1604  H     0.11529   0.77211   0.39994   0.00000  Uiso   1.00
H1605  H     0.14333   0.78516   0.44950   0.00000  Uiso   1.00
H1606  H     0.15994   0.82071   0.35543   0.00000  Uiso   1.00
H1607  H     0.18734   0.83875   0.40454   0.00000  Uiso   1.00
H1608  H     0.22082   0.77183   0.41743   0.00000  Uiso   1.00
H1609  H     0.37529   0.71878   0.43846   0.00000  Uiso   1.00
H1610  H     0.22542   0.78072   0.35936   0.00000  Uiso   1.00
H1611  H     0.18662   0.74314   0.37894   0.00000  Uiso   1.00
H1612  H     0.46287   0.60911   0.61446   0.00000  Uiso   1.00
H1613  H     0.47618   0.61747   0.55684   0.00000  Uiso   1.00
H1614  H     0.41002   0.55327   0.59191   0.00000  Uiso   1.00
H1615  H     0.42942   0.55645   0.53595   0.00000  Uiso   1.00
H1616  H     0.00272   0.53890   0.56492   0.00000  Uiso   1.00
H1617  H     0.46411   0.99763   0.57724   0.00000  Uiso   1.00
H1618  H     0.48168   0.53456   0.61960   0.00000  Uiso   1.00
H1619  H     0.13967   0.71463   0.56374   0.00000  Uiso   1.00
H1620  H     0.32622   0.65562   0.37684   0.00000  Uiso   1.00
H1621  H     0.16952   0.66906   0.58531   0.00000  Uiso   1.00
H1622  H     0.13355   0.68046   0.65891   0.00000  Uiso   1.00
H1623  H     0.17012   0.72079   0.64195   0.00000  Uiso   1.00
H1624  H     0.08323   0.74380   0.61073   0.00000  Uiso   1.00
H1625  H     0.11940   0.77373   0.64480   0.00000  Uiso   1.00
H1626  H     0.08549   0.73537   0.33649   0.00000  Uiso   1.00
H1627  H     0.49531   0.90830   0.43356   0.00000  Uiso   1.00
H1628  H     0.48650   0.88180   0.48459   0.00000  Uiso   1.00
H1629  H     0.43889   0.96388   0.45256   0.00000  Uiso   1.00
H1630  H     0.43706   0.94128   0.50689   0.00000  Uiso   1.00
H1631  H     0.31374   0.67033   0.43310   0.00000  Uiso   1.00
H1632  H     0.00949   0.95907   0.52374   0.00000  Uiso   1.00
H1633  H     0.48534   0.50631   0.49814   0.00000  Uiso   1.00
H1634  H     0.02045   0.97273   0.46765   0.00000  Uiso   1.00
H1635  H     0.34081   0.78837   0.55056   0.00000  Uiso   1.00
H1636  H     0.32561   0.82627   0.59367   0.00000  Uiso   1.00
H1637  H     0.37206   0.78574   0.64759   0.00000  Uiso   1.00
H1638  H     0.32953   0.75433   0.62256   0.00000  Uiso   1.00
H1639  H     0.38153   0.72228   0.57027   0.00000  Uiso   1.00
H1640  H     0.39597   0.71199   0.62772   0.00000  Uiso   1.00
H1641  H     0.42278   0.75264   0.59755   0.00000  Uiso   1.00
H1642  H     0.30538   0.74799   0.40851   0.00000  Uiso   1.00
H1643  H     0.06862   0.66799   0.37176   0.00000  Uiso   1.00
H1644  H     0.05308   0.64007   0.42111   0.00000  Uiso   1.00
H1645  H     0.11431   0.60977   0.34895   0.00000  Uiso   1.00
H1646  H     0.11066   0.58322   0.40178   0.00000  Uiso   1.00
H1647  H     0.03263   0.57417   0.39121   0.00000  Uiso   1.00
H1648  H     0.06159   0.54905   0.34796   0.00000  Uiso   1.00
H1649  H     0.03572   0.59869   0.33729   0.00000  Uiso   1.00
H1650  H     0.13627   0.96096   0.38108   0.00000  Uiso   1.00
H1651  H     0.12531   0.96878   0.43847   0.00000  Uiso   1.00
H1652  H     0.07623   0.90564   0.37685   0.00000  Uiso   1.00
H1653  H     0.26781   0.71119   0.38292   0.00000  Uiso   1.00
H1654  H     0.06374   0.92036   0.43310   0.00000  Uiso   1.00
H1655  H     0.05540   0.99800   0.40853   0.00000  Uiso   1.00
H1656  H     0.01785   0.96122   0.38286   0.00000  Uiso   1.00
H1657  H     0.06338   0.97875   0.35302   0.00000  Uiso   1.00
H1658  H     0.29847   0.60171   0.62446   0.00000  Uiso   1.00
H1659  H     0.28225   0.61396   0.56793   0.00000  Uiso   1.00
H1660  H     0.33520   0.67039   0.63095   0.00000  Uiso   1.00
H1661  H     0.31974   0.68375   0.57444   0.00000  Uiso   1.00
H1662  H     0.24328   0.67633   0.59445   0.00000  Uiso   1.00
H1663  H     0.26899   0.71718   0.62684   0.00000  Uiso   1.00
H1664  H     0.31329   0.72870   0.35301   0.00000  Uiso   1.00
H1665  H     0.25862   0.66559   0.65106   0.00000  Uiso   1.00
H1666  H     0.36528   0.52211   0.39992   0.00000  Uiso   1.00
H1667  H     0.39329   0.53513   0.44951   0.00000  Uiso   1.00
H1668  H     0.40999   0.57071   0.35547   0.00000  Uiso   1.00
H1669  H     0.43735   0.58873   0.40461   0.00000  Uiso   1.00
H1670  H     0.47080   0.52179   0.41751   0.00000  Uiso   1.00
H1671  H     0.47544   0.53068   0.35944   0.00000  Uiso   1.00
H1672  H     0.43662   0.99312   0.37899   0.00000  Uiso   1.00
H1673  H     0.21287   0.85916   0.61445   0.00000  Uiso   1.00
H1674  H     0.22617   0.86751   0.55683   0.00000  Uiso   1.00
H1675  H     0.04848   0.85168   0.62447   0.00000  Uiso   1.00
H1676  H     0.16007   0.80329   0.59198   0.00000  Uiso   1.00
H1677  H     0.17937   0.80647   0.53598   0.00000  Uiso   1.00
H1678  H     0.25271   0.78893   0.56477   0.00000  Uiso   1.00
H1679  H     0.21414   0.74767   0.57727   0.00000  Uiso   1.00
H1680  H     0.23184   0.78466   0.61953   0.00000  Uiso   1.00
H1681  H     0.38968   0.96462   0.56374   0.00000  Uiso   1.00
H1682  H     0.41953   0.91905   0.58533   0.00000  Uiso   1.00
H1683  H     0.38352   0.93047   0.65892   0.00000  Uiso   1.00
H1684  H     0.42011   0.97078   0.64197   0.00000  Uiso   1.00
H1685  H     0.33327   0.99387   0.61069   0.00000  Uiso   1.00
H1686  H     0.03226   0.86396   0.56794   0.00000  Uiso   1.00
H1687  H     0.36943   0.52373   0.64485   0.00000  Uiso   1.00
H1688  H     0.33546   0.98538   0.33645   0.00000  Uiso   1.00
H1689  H     0.24534   0.65824   0.43362   0.00000  Uiso   1.00
H1690  H     0.23644   0.63182   0.48467   0.00000  Uiso   1.00
H1691  H     0.18894   0.71388   0.45245   0.00000  Uiso   1.00
H1692  H     0.18700   0.69136   0.50679   0.00000  Uiso   1.00
H1693  H     0.25938   0.70912   0.52378   0.00000  Uiso   1.00
H1694  H     0.23535   0.75634   0.49804   0.00000  Uiso   1.00
H1695  H     0.27050   0.72266   0.46770   0.00000  Uiso   1.00
H1696  H     0.09063   0.53855   0.55069   0.00000  Uiso   1.00
N1697  N    -0.00000   0.75000   0.61907   0.00000  Uiso   1.00
N1698  N     0.00000   0.75000   0.38093   0.00000  Uiso   1.00
N1699  N     0.25000   0.50000   0.61907   0.00000  Uiso   1.00
N1700  N     0.25000   0.50000   0.38093   0.00000  Uiso   1.00
O1701  O     0.04580   0.70419   0.53821   0.00000  Uiso   1.00
O1702  O     0.20419   0.54581   0.46179   0.00000  Uiso   1.00
O1703  O     0.20419   0.54581   0.53821   0.00000  Uiso   1.00
O1704  O     0.29580   0.95419   0.46179   0.00000  Uiso   1.00
O1705  O     0.20419   0.95419   0.46179   0.00000  Uiso   1.00
O1706  O     0.29580   0.54581   0.53821   0.00000  Uiso   1.00
O1707  O     0.29580   0.54581   0.46179   0.00000  Uiso   1.00
O1708  O     0.20419   0.95419   0.53821   0.00000  Uiso   1.00
O1709  O     0.39949   0.65828   0.41931   0.00000  Uiso   1.00
O1710  O     0.09582   0.84770   0.58132   0.00000  Uiso   1.00
O1711  O     0.10406   0.83406   0.42086   0.00000  Uiso   1.00
O1712  O     0.45419   0.79581   0.46179   0.00000  Uiso   1.00
O1713  O     0.41753   0.64007   0.57855   0.00000  Uiso   1.00
O1714  O     0.10384   0.66072   0.58046   0.00000  Uiso   1.00
O1715  O     0.43784   0.87950   0.43629   0.00000  Uiso   1.00
O1716  O     0.38886   0.82848   0.57598   0.00000  Uiso   1.00
O1717  O     0.11259   0.66920   0.42123   0.00000  Uiso   1.00
O1718  O     0.14949   0.90827   0.41931   0.00000  Uiso   1.00
O1719  O     0.34582   0.59771   0.58132   0.00000  Uiso   1.00
O1720  O     0.35406   0.58406   0.42085   0.00000  Uiso   1.00
O1721  O     0.16752   0.89009   0.57855   0.00000  Uiso   1.00
O1722  O     0.35384   0.91072   0.58046   0.00000  Uiso   1.00
O1723  O     0.45419   0.79581   0.53821   0.00000  Uiso   1.00
O1724  O     0.18784   0.62949   0.43630   0.00000  Uiso   1.00
O1725  O     0.13886   0.57848   0.57599   0.00000  Uiso   1.00
O1726  O     0.36259   0.91921   0.42123   0.00000  Uiso   1.00
O1727  O     0.04580   0.70419   0.46179   0.00000  Uiso   1.00
O1728  O     0.45419   0.70419   0.46179   0.00000  Uiso   1.00
O1729  O     0.04580   0.79581   0.53821   0.00000  Uiso   1.00
O1730  O     0.04580   0.79581   0.46179   0.00000  Uiso   1.00
O1731  O     0.45419   0.70419   0.53821   0.00000  Uiso   1.00
O1732  O     0.29580   0.95419   0.53821   0.00000  Uiso   1.00
Zn1733 Zn   -0.00000   0.75000   0.55104   0.00000  Uiso   1.00
Zn1734 Zn    0.00000   0.75000   0.44896   0.00000  Uiso   1.00
Zn1735 Zn    0.25000   0.50000   0.55104   0.00000  Uiso   1.00
Zn1736 Zn    0.25000   0.50000   0.44896   0.00000  Uiso   1.00
C1737  C     0.56124   0.69133   0.50002   0.00000  Uiso   1.00
C1738  C     0.50372   0.71290   0.64309   0.00000  Uiso   1.00
C1739  C     0.99796   0.71264   0.35650   0.00000  Uiso   1.00
C1740  C     0.99347   0.78700   0.64367   0.00000  Uiso   1.00
C1741  C     0.74928   0.53739   0.35718   0.00000  Uiso   1.00
C1742  C     0.75373   0.96290   0.64310   0.00000  Uiso   1.00
C1743  C     0.74797   0.96264   0.35650   0.00000  Uiso   1.00
C1744  C     0.74347   0.53699   0.64367   0.00000  Uiso   1.00
C1745  C     0.88929   0.64095   0.45979   0.00000  Uiso   1.00
C1746  C     0.60848   0.86147   0.54023   0.00000  Uiso   1.00
C1747  C     0.61235   0.85541   0.46029   0.00000  Uiso   1.00
C1748  C     0.94026   0.81003   0.50015   0.00000  Uiso   1.00
C1749  C     0.89489   0.63639   0.53944   0.00000  Uiso   1.00
C1750  C     0.60954   0.64055   0.54007   0.00000  Uiso   1.00
C1751  C     0.90505   0.87304   0.46519   0.00000  Uiso   1.00
C1752  C     0.88416   0.85305   0.53853   0.00000  Uiso   1.00
C1753  C     0.61959   0.64954   0.46148   0.00000  Uiso   1.00
C1754  C     0.63929   0.89095   0.45979   0.00000  Uiso   1.00
C1755  C     0.85848   0.61147   0.54023   0.00000  Uiso   1.00
C1756  C     0.86235   0.60541   0.46029   0.00000  Uiso   1.00
C1757  C     0.64488   0.88640   0.53944   0.00000  Uiso   1.00
C1758  C     0.85955   0.89055   0.54007   0.00000  Uiso   1.00
C1759  C     0.94061   0.68946   0.49983   0.00000  Uiso   1.00
C1760  C     0.65504   0.62302   0.46519   0.00000  Uiso   1.00
C1761  C     0.63415   0.60305   0.53853   0.00000  Uiso   1.00
C1762  C     0.86960   0.89956   0.46148   0.00000  Uiso   1.00
C1763  C     0.59337   0.84295   0.50035   0.00000  Uiso   1.00
C1764  C     0.90793   0.65556   0.49966   0.00000  Uiso   1.00
C1765  C     0.90870   0.84480   0.50093   0.00000  Uiso   1.00
C1766  C     0.59649   0.65991   0.50013   0.00000  Uiso   1.00
C1767  C     0.84337   0.59295   0.50035   0.00000  Uiso   1.00
C1768  C     0.65793   0.90557   0.49966   0.00000  Uiso   1.00
C1769  C     0.65869   0.59479   0.50093   0.00000  Uiso   1.00
C1770  C     0.56011   0.80976   0.50020   0.00000  Uiso   1.00
C1771  C     0.84650   0.90992   0.50013   0.00000  Uiso   1.00
C1772  C     0.87365   0.69480   0.41087   0.00000  Uiso   1.00
C1773  C     0.82758   0.68191   0.40193   0.00000  Uiso   1.00
C1774  C     0.80173   0.72001   0.38578   0.00000  Uiso   1.00
C1775  C     0.55755   0.86786   0.59355   0.00000  Uiso   1.00
C1776  C     0.56099   0.91566   0.60455   0.00000  Uiso   1.00
C1777  C     0.51791   0.93218   0.62026   0.00000  Uiso   1.00
C1778  C     0.63249   0.79865   0.41697   0.00000  Uiso   1.00
C1779  C     0.67075   0.81108   0.38910   0.00000  Uiso   1.00
C1780  C     0.70262   0.77421   0.38595   0.00000  Uiso   1.00
C1781  C     0.81124   0.94134   0.50002   0.00000  Uiso   1.00
C1782  C     0.95050   0.60864   0.58001   0.00000  Uiso   1.00
C1783  C     0.93756   0.56154   0.57147   0.00000  Uiso   1.00
C1784  C     0.97387   0.53129   0.58400   0.00000  Uiso   1.00
C1785  C     0.63933   0.68772   0.58806   0.00000  Uiso   1.00
C1786  C     0.63851   0.70668   0.63473   0.00000  Uiso   1.00
C1787  C     0.60457   0.74180   0.64007   0.00000  Uiso   1.00
C1788  C     0.97110   0.90198   0.45855   0.00000  Uiso   1.00
C1789  C     0.95752   0.94596   0.47780   0.00000  Uiso   1.00
C1790  C     0.99559   0.97248   0.49284   0.00000  Uiso   1.00
C1791  C     0.85152   0.80470   0.58179   0.00000  Uiso   1.00
C1792  C     0.69026   0.56002   0.50015   0.00000  Uiso   1.00
C1793  C     0.85984   0.77053   0.61669   0.00000  Uiso   1.00
C1794  C     0.89194   0.73711   0.60196   0.00000  Uiso   1.00
C1795  C     0.57995   0.64681   0.39873   0.00000  Uiso   1.00
C1796  C     0.59345   0.60396   0.37765   0.00000  Uiso   1.00
C1797  C     0.55350   0.58018   0.36259   0.00000  Uiso   1.00
C1798  C     0.62367   0.94480   0.41088   0.00000  Uiso   1.00
C1799  C     0.57759   0.93193   0.40193   0.00000  Uiso   1.00
C1800  C     0.55177   0.97004   0.38577   0.00000  Uiso   1.00
C1801  C     0.80754   0.61787   0.59353   0.00000  Uiso   1.00
C1802  C     0.81098   0.66567   0.60452   0.00000  Uiso   1.00
C1803  C     0.69060   0.93946   0.49983   0.00000  Uiso   1.00
C1804  C     0.76790   0.68220   0.62023   0.00000  Uiso   1.00
C1805  C     0.88247   0.54864   0.41698   0.00000  Uiso   1.00
C1806  C     0.92077   0.56106   0.38914   0.00000  Uiso   1.00
C1807  C     0.95263   0.52417   0.38601   0.00000  Uiso   1.00
C1808  C     0.70050   0.85867   0.58001   0.00000  Uiso   1.00
C1809  C     0.68757   0.81157   0.57150   0.00000  Uiso   1.00
C1810  C     0.72391   0.78134   0.58395   0.00000  Uiso   1.00
C1811  C     0.88933   0.93771   0.58807   0.00000  Uiso   1.00
C1812  C     0.88850   0.95669   0.63474   0.00000  Uiso   1.00
C1813  C     0.85457   0.99182   0.64007   0.00000  Uiso   1.00
C1814  C     0.81010   0.55976   0.50020   0.00000  Uiso   1.00
C1815  C     0.72109   0.65197   0.45858   0.00000  Uiso   1.00
C1816  C     0.70751   0.69598   0.47774   0.00000  Uiso   1.00
C1817  C     0.74558   0.72249   0.49282   0.00000  Uiso   1.00
C1818  C     0.60149   0.55479   0.58190   0.00000  Uiso   1.00
C1819  C     0.60983   0.52052   0.61669   0.00000  Uiso   1.00
C1820  C     0.64191   0.98713   0.60185   0.00000  Uiso   1.00
C1821  C     0.82996   0.89680   0.39873   0.00000  Uiso   1.00
C1822  C     0.84347   0.85396   0.37766   0.00000  Uiso   1.00
C1823  C     0.80354   0.83017   0.36258   0.00000  Uiso   1.00
C1824  C     0.99928   0.78739   0.35718   0.00000  Uiso   1.00
Cl1825 Cl    0.50510   0.83660   0.38434   0.00000  Uiso   1.00
Cl1826 Cl    0.52057   0.66610   0.61737   0.00000  Uiso   1.00
Cl1827 Cl    0.98311   0.66438   0.38129   0.00000  Uiso   1.00
Cl1828 Cl    0.96943   0.83272   0.62037   0.00000  Uiso   1.00
Cl1829 Cl    0.75509   0.58660   0.38433   0.00000  Uiso   1.00
Cl1830 Cl    0.77060   0.91611   0.61737   0.00000  Uiso   1.00
Cl1831 Cl    0.73312   0.91437   0.38129   0.00000  Uiso   1.00
Cl1832 Cl    0.71943   0.58272   0.62037   0.00000  Uiso   1.00
H1833  H     0.88625   0.71095   0.38107   0.00000  Uiso   1.00
H1834  H     0.58521   0.92036   0.63099   0.00000  Uiso   1.00
H1835  H     0.57568   0.57640   0.59393   0.00000  Uiso   1.00
H1836  H     0.62207   0.53564   0.64763   0.00000  Uiso   1.00
H1837  H     0.57952   0.50431   0.62253   0.00000  Uiso   1.00
H1838  H     0.63145   0.97241   0.57012   0.00000  Uiso   1.00
H1839  H     0.64595   0.96193   0.62752   0.00000  Uiso   1.00
H1840  H     0.67275   0.50265   0.59746   0.00000  Uiso   1.00
H1841  H     0.81863   0.91798   0.37176   0.00000  Uiso   1.00
H1842  H     0.80309   0.89007   0.42111   0.00000  Uiso   1.00
H1843  H     0.86435   0.85976   0.34898   0.00000  Uiso   1.00
H1844  H     0.86067   0.83322   0.40180   0.00000  Uiso   1.00
H1845  H     0.56976   0.93374   0.57449   0.00000  Uiso   1.00
H1846  H     0.78262   0.82421   0.39118   0.00000  Uiso   1.00
H1847  H     0.81164   0.79901   0.34803   0.00000  Uiso   1.00
H1848  H     0.78580   0.84864   0.33723   0.00000  Uiso   1.00
H1849  H     0.99329   0.92633   0.59447   0.00000  Uiso   1.00
H1850  H     0.51900   0.96716   0.62690   0.00000  Uiso   1.00
H1851  H     0.50862   0.91555   0.65107   0.00000  Uiso   1.00
H1852  H     0.61529   0.77211   0.39994   0.00000  Uiso   1.00
H1853  H     0.64333   0.78516   0.44950   0.00000  Uiso   1.00
H1854  H     0.65994   0.82071   0.35543   0.00000  Uiso   1.00
H1855  H     0.68734   0.83875   0.40454   0.00000  Uiso   1.00
H1856  H     0.72082   0.77183   0.41743   0.00000  Uiso   1.00
H1857  H     0.87529   0.71878   0.43846   0.00000  Uiso   1.00
H1858  H     0.72542   0.78072   0.35936   0.00000  Uiso   1.00
H1859  H     0.68662   0.74314   0.37894   0.00000  Uiso   1.00
H1860  H     0.96287   0.60911   0.61446   0.00000  Uiso   1.00
H1861  H     0.97618   0.61747   0.55684   0.00000  Uiso   1.00
H1862  H     0.91002   0.55327   0.59191   0.00000  Uiso   1.00
H1863  H     0.92942   0.55645   0.53595   0.00000  Uiso   1.00
H1864  H     0.50272   0.53890   0.56492   0.00000  Uiso   1.00
H1865  H     0.96411   0.99763   0.57724   0.00000  Uiso   1.00
H1866  H     0.98168   0.53456   0.61960   0.00000  Uiso   1.00
H1867  H     0.63967   0.71463   0.56374   0.00000  Uiso   1.00
H1868  H     0.82622   0.65562   0.37684   0.00000  Uiso   1.00
H1869  H     0.66952   0.66906   0.58531   0.00000  Uiso   1.00
H1870  H     0.63355   0.68046   0.65891   0.00000  Uiso   1.00
H1871  H     0.67012   0.72079   0.64195   0.00000  Uiso   1.00
H1872  H     0.58323   0.74380   0.61073   0.00000  Uiso   1.00
H1873  H     0.61940   0.77373   0.64480   0.00000  Uiso   1.00
H1874  H     0.58549   0.73537   0.33649   0.00000  Uiso   1.00
H1875  H     0.99531   0.90830   0.43356   0.00000  Uiso   1.00
H1876  H     0.98650   0.88180   0.48459   0.00000  Uiso   1.00
H1877  H     0.93889   0.96388   0.45256   0.00000  Uiso   1.00
H1878  H     0.93706   0.94128   0.50689   0.00000  Uiso   1.00
H1879  H     0.81374   0.67033   0.43310   0.00000  Uiso   1.00
H1880  H     0.50949   0.95907   0.52374   0.00000  Uiso   1.00
H1881  H     0.98534   0.50631   0.49814   0.00000  Uiso   1.00
H1882  H     0.52045   0.97273   0.46765   0.00000  Uiso   1.00
H1883  H     0.84081   0.78837   0.55056   0.00000  Uiso   1.00
H1884  H     0.82561   0.82627   0.59367   0.00000  Uiso   1.00
H1885  H     0.87206   0.78574   0.64759   0.00000  Uiso   1.00
H1886  H     0.82953   0.75433   0.62256   0.00000  Uiso   1.00
H1887  H     0.88153   0.72228   0.57027   0.00000  Uiso   1.00
H1888  H     0.89597   0.71199   0.62772   0.00000  Uiso   1.00
H1889  H     0.92278   0.75264   0.59755   0.00000  Uiso   1.00
H1890  H     0.80538   0.74799   0.40851   0.00000  Uiso   1.00
H1891  H     0.56862   0.66799   0.37176   0.00000  Uiso   1.00
H1892  H     0.55308   0.64007   0.42111   0.00000  Uiso   1.00
H1893  H     0.61431   0.60977   0.34895   0.00000  Uiso   1.00
H1894  H     0.61066   0.58322   0.40178   0.00000  Uiso   1.00
H1895  H     0.53263   0.57417   0.39121   0.00000  Uiso   1.00
H1896  H     0.56159   0.54905   0.34796   0.00000  Uiso   1.00
H1897  H     0.53572   0.59869   0.33729   0.00000  Uiso   1.00
H1898  H     0.63627   0.96096   0.38108   0.00000  Uiso   1.00
H1899  H     0.62531   0.96878   0.43847   0.00000  Uiso   1.00
H1900  H     0.57623   0.90564   0.37685   0.00000  Uiso   1.00
H1901  H     0.76781   0.71119   0.38292   0.00000  Uiso   1.00
H1902  H     0.56374   0.92036   0.43310   0.00000  Uiso   1.00
H1903  H     0.55540   0.99800   0.40853   0.00000  Uiso   1.00
H1904  H     0.51785   0.96122   0.38286   0.00000  Uiso   1.00
H1905  H     0.56338   0.97875   0.35302   0.00000  Uiso   1.00
H1906  H     0.79847   0.60171   0.62446   0.00000  Uiso   1.00
H1907  H     0.78225   0.61396   0.56793   0.00000  Uiso   1.00
H1908  H     0.83520   0.67039   0.63095   0.00000  Uiso   1.00
H1909  H     0.81974   0.68375   0.57444   0.00000  Uiso   1.00
H1910  H     0.74328   0.67633   0.59445   0.00000  Uiso   1.00
H1911  H     0.76899   0.71718   0.62684   0.00000  Uiso   1.00
H1912  H     0.81329   0.72870   0.35301   0.00000  Uiso   1.00
H1913  H     0.75862   0.66559   0.65106   0.00000  Uiso   1.00
H1914  H     0.86528   0.52211   0.39992   0.00000  Uiso   1.00
H1915  H     0.89329   0.53513   0.44951   0.00000  Uiso   1.00
H1916  H     0.90999   0.57071   0.35547   0.00000  Uiso   1.00
H1917  H     0.93735   0.58873   0.40461   0.00000  Uiso   1.00
H1918  H     0.97080   0.52179   0.41751   0.00000  Uiso   1.00
H1919  H     0.97544   0.53068   0.35944   0.00000  Uiso   1.00
H1920  H     0.93662   0.99312   0.37899   0.00000  Uiso   1.00
H1921  H     0.71287   0.85916   0.61445   0.00000  Uiso   1.00
H1922  H     0.72617   0.86751   0.55683   0.00000  Uiso   1.00
H1923  H     0.54848   0.85168   0.62447   0.00000  Uiso   1.00
H1924  H     0.66007   0.80329   0.59198   0.00000  Uiso   1.00
H1925  H     0.67937   0.80647   0.53598   0.00000  Uiso   1.00
H1926  H     0.75271   0.78893   0.56477   0.00000  Uiso   1.00
H1927  H     0.71414   0.74767   0.57727   0.00000  Uiso   1.00
H1928  H     0.73184   0.78466   0.61953   0.00000  Uiso   1.00
H1929  H     0.88968   0.96462   0.56374   0.00000  Uiso   1.00
H1930  H     0.91953   0.91905   0.58533   0.00000  Uiso   1.00
H1931  H     0.88352   0.93047   0.65892   0.00000  Uiso   1.00
H1932  H     0.92011   0.97078   0.64197   0.00000  Uiso   1.00
H1933  H     0.83327   0.99387   0.61069   0.00000  Uiso   1.00
H1934  H     0.53226   0.86396   0.56794   0.00000  Uiso   1.00
H1935  H     0.86943   0.52373   0.64485   0.00000  Uiso   1.00
H1936  H     0.83546   0.98538   0.33645   0.00000  Uiso   1.00
H1937  H     0.74534   0.65824   0.43362   0.00000  Uiso   1.00
H1938  H     0.73644   0.63182   0.48467   0.00000  Uiso   1.00
H1939  H     0.68894   0.71388   0.45245   0.00000  Uiso   1.00
H1940  H     0.68700   0.69136   0.50679   0.00000  Uiso   1.00
H1941  H     0.75938   0.70912   0.52378   0.00000  Uiso   1.00
H1942  H     0.73535   0.75634   0.49804   0.00000  Uiso   1.00
H1943  H     0.77050   0.72266   0.46770   0.00000  Uiso   1.00
H1944  H     0.59063   0.53855   0.55069   0.00000  Uiso   1.00
N1945  N     0.50000   0.75000   0.61907   0.00000  Uiso   1.00
N1946  N     0.50000   0.75000   0.38093   0.00000  Uiso   1.00
N1947  N     0.75000   0.50000   0.61907   0.00000  Uiso   1.00
N1948  N     0.75000   0.50000   0.38093   0.00000  Uiso   1.00
O1949  O     0.54580   0.70419   0.53821   0.00000  Uiso   1.00
O1950  O     0.70419   0.54581   0.46179   0.00000  Uiso   1.00
O1951  O     0.70419   0.54581   0.53821   0.00000  Uiso   1.00
O1952  O     0.79580   0.95419   0.46179   0.00000  Uiso   1.00
O1953  O     0.70419   0.95419   0.46179   0.00000  Uiso   1.00
O1954  O     0.79580   0.54581   0.53821   0.00000  Uiso   1.00
O1955  O     0.79580   0.54581   0.46179   0.00000  Uiso   1.00
O1956  O     0.70419   0.95419   0.53821   0.00000  Uiso   1.00
O1957  O     0.89949   0.65828   0.41931   0.00000  Uiso   1.00
O1958  O     0.59582   0.84770   0.58132   0.00000  Uiso   1.00
O1959  O     0.60406   0.83406   0.42086   0.00000  Uiso   1.00
O1960  O     0.95419   0.79581   0.46179   0.00000  Uiso   1.00
O1961  O     0.91753   0.64007   0.57855   0.00000  Uiso   1.00
O1962  O     0.60384   0.66072   0.58046   0.00000  Uiso   1.00
O1963  O     0.93784   0.87950   0.43629   0.00000  Uiso   1.00
O1964  O     0.88886   0.82848   0.57598   0.00000  Uiso   1.00
O1965  O     0.61259   0.66920   0.42123   0.00000  Uiso   1.00
O1966  O     0.64949   0.90827   0.41931   0.00000  Uiso   1.00
O1967  O     0.84582   0.59771   0.58132   0.00000  Uiso   1.00
O1968  O     0.85406   0.58406   0.42085   0.00000  Uiso   1.00
O1969  O     0.66752   0.89009   0.57855   0.00000  Uiso   1.00
O1970  O     0.85384   0.91072   0.58046   0.00000  Uiso   1.00
O1971  O     0.95419   0.79581   0.53821   0.00000  Uiso   1.00
O1972  O     0.68784   0.62949   0.43630   0.00000  Uiso   1.00
O1973  O     0.63886   0.57848   0.57599   0.00000  Uiso   1.00
O1974  O     0.86259   0.91921   0.42123   0.00000  Uiso   1.00
O1975  O     0.54580   0.70419   0.46179   0.00000  Uiso   1.00
O1976  O     0.95419   0.70419   0.46179   0.00000  Uiso   1.00
O1977  O     0.54580   0.79581   0.53821   0.00000  Uiso   1.00
O1978  O     0.54580   0.79581   0.46179   0.00000  Uiso   1.00
O1979  O     0.95419   0.70419   0.53821   0.00000  Uiso   1.00
O1980  O     0.79580   0.95419   0.53821   0.00000  Uiso   1.00
Zn1981 Zn    0.50000   0.75000   0.55104   0.00000  Uiso   1.00
Zn1982 Zn    0.50000   0.75000   0.44896   0.00000  Uiso   1.00
Zn1983 Zn    0.75000   0.50000   0.55104   0.00000  Uiso   1.00
Zn1984 Zn    0.75000   0.50000   0.44896   0.00000  Uiso   1.00
C1985  C     0.06124   0.19133   0.83335   0.00000  Uiso   1.00
C1986  C     0.00372   0.21290   0.97643   0.00000  Uiso   1.00
C1987  C     0.49796   0.21264   0.68983   0.00000  Uiso   1.00
C1988  C     0.49347   0.28700   0.97700   0.00000  Uiso   1.00
C1989  C     0.24928   0.03739   0.69052   0.00000  Uiso   1.00
C1990  C     0.25373   0.46290   0.97643   0.00000  Uiso   1.00
C1991  C     0.24797   0.46264   0.68983   0.00000  Uiso   1.00
C1992  C     0.24347   0.03699   0.97700   0.00000  Uiso   1.00
C1993  C     0.38929   0.14095   0.79313   0.00000  Uiso   1.00
C1994  C     0.10848   0.36147   0.87356   0.00000  Uiso   1.00
C1995  C     0.11235   0.35541   0.79363   0.00000  Uiso   1.00
C1996  C     0.44026   0.31003   0.83348   0.00000  Uiso   1.00
C1997  C     0.39489   0.13639   0.87277   0.00000  Uiso   1.00
C1998  C     0.10954   0.14055   0.87341   0.00000  Uiso   1.00
C1999  C     0.40505   0.37304   0.79853   0.00000  Uiso   1.00
C2000  C     0.38416   0.35305   0.87186   0.00000  Uiso   1.00
C2001  C     0.11959   0.14954   0.79481   0.00000  Uiso   1.00
C2002  C     0.13929   0.39095   0.79313   0.00000  Uiso   1.00
C2003  C     0.35848   0.11147   0.87356   0.00000  Uiso   1.00
C2004  C     0.36235   0.10541   0.79363   0.00000  Uiso   1.00
C2005  C     0.14488   0.38640   0.87277   0.00000  Uiso   1.00
C2006  C     0.35955   0.39055   0.87341   0.00000  Uiso   1.00
C2007  C     0.44061   0.18946   0.83317   0.00000  Uiso   1.00
C2008  C     0.15504   0.12302   0.79853   0.00000  Uiso   1.00
C2009  C     0.13415   0.10305   0.87187   0.00000  Uiso   1.00
C2010  C     0.36960   0.39956   0.79481   0.00000  Uiso   1.00
C2011  C     0.09337   0.34295   0.83368   0.00000  Uiso   1.00
C2012  C     0.40793   0.15556   0.83299   0.00000  Uiso   1.00
C2013  C     0.40870   0.34480   0.83426   0.00000  Uiso   1.00
C2014  C     0.09649   0.15991   0.83346   0.00000  Uiso   1.00
C2015  C     0.34337   0.09295   0.83368   0.00000  Uiso   1.00
C2016  C     0.15793   0.40557   0.83299   0.00000  Uiso   1.00
C2017  C     0.15869   0.09479   0.83426   0.00000  Uiso   1.00
C2018  C     0.06011   0.30976   0.83354   0.00000  Uiso   1.00
C2019  C     0.34650   0.40992   0.83346   0.00000  Uiso   1.00
C2020  C     0.37365   0.19480   0.74421   0.00000  Uiso   1.00
C2021  C     0.32758   0.18191   0.73526   0.00000  Uiso   1.00
C2022  C     0.30173   0.22001   0.71911   0.00000  Uiso   1.00
C2023  C     0.05755   0.36786   0.92688   0.00000  Uiso   1.00
C2024  C     0.06099   0.41566   0.93789   0.00000  Uiso   1.00
C2025  C     0.01791   0.43218   0.95360   0.00000  Uiso   1.00
C2026  C     0.13249   0.29865   0.75031   0.00000  Uiso   1.00
C2027  C     0.17075   0.31108   0.72243   0.00000  Uiso   1.00
C2028  C     0.20262   0.27421   0.71928   0.00000  Uiso   1.00
C2029  C     0.31124   0.44134   0.83335   0.00000  Uiso   1.00
C2030  C     0.45050   0.10864   0.91334   0.00000  Uiso   1.00
C2031  C     0.43756   0.06154   0.90481   0.00000  Uiso   1.00
C2032  C     0.47387   0.03129   0.91733   0.00000  Uiso   1.00
C2033  C     0.13933   0.18772   0.92139   0.00000  Uiso   1.00
C2034  C     0.13851   0.20668   0.96806   0.00000  Uiso   1.00
C2035  C     0.10457   0.24180   0.97340   0.00000  Uiso   1.00
C2036  C     0.47110   0.40198   0.79189   0.00000  Uiso   1.00
C2037  C     0.45752   0.44596   0.81113   0.00000  Uiso   1.00
C2038  C     0.49559   0.47248   0.82617   0.00000  Uiso   1.00
C2039  C     0.35152   0.30470   0.91512   0.00000  Uiso   1.00
C2040  C     0.19026   0.06002   0.83348   0.00000  Uiso   1.00
C2041  C     0.35984   0.27053   0.95002   0.00000  Uiso   1.00
C2042  C     0.39194   0.23711   0.93530   0.00000  Uiso   1.00
C2043  C     0.07995   0.14681   0.73207   0.00000  Uiso   1.00
C2044  C     0.09345   0.10396   0.71098   0.00000  Uiso   1.00
C2045  C     0.05350   0.08018   0.69592   0.00000  Uiso   1.00
C2046  C     0.12367   0.44480   0.74421   0.00000  Uiso   1.00
C2047  C     0.07759   0.43193   0.73527   0.00000  Uiso   1.00
C2048  C     0.05177   0.47004   0.71910   0.00000  Uiso   1.00
C2049  C     0.30754   0.11787   0.92687   0.00000  Uiso   1.00
C2050  C     0.31098   0.16567   0.93785   0.00000  Uiso   1.00
C2051  C     0.19060   0.43946   0.83317   0.00000  Uiso   1.00
C2052  C     0.26790   0.18220   0.95356   0.00000  Uiso   1.00
C2053  C     0.38247   0.04864   0.75031   0.00000  Uiso   1.00
C2054  C     0.42077   0.06106   0.72248   0.00000  Uiso   1.00
C2055  C     0.45263   0.02417   0.71934   0.00000  Uiso   1.00
C2056  C     0.20050   0.35867   0.91334   0.00000  Uiso   1.00
C2057  C     0.18757   0.31157   0.90483   0.00000  Uiso   1.00
C2058  C     0.22391   0.28134   0.91729   0.00000  Uiso   1.00
C2059  C     0.38933   0.43771   0.92140   0.00000  Uiso   1.00
C2060  C     0.38850   0.45669   0.96807   0.00000  Uiso   1.00
C2061  C     0.35457   0.49182   0.97340   0.00000  Uiso   1.00
C2062  C     0.31010   0.05976   0.83353   0.00000  Uiso   1.00
C2063  C     0.22109   0.15197   0.79191   0.00000  Uiso   1.00
C2064  C     0.20751   0.19598   0.81108   0.00000  Uiso   1.00
C2065  C     0.24558   0.22249   0.82615   0.00000  Uiso   1.00
C2066  C     0.10149   0.05479   0.91523   0.00000  Uiso   1.00
C2067  C     0.10983   0.02052   0.95003   0.00000  Uiso   1.00
C2068  C     0.14191   0.48713   0.93518   0.00000  Uiso   1.00
C2069  C     0.32996   0.39680   0.73207   0.00000  Uiso   1.00
C2070  C     0.34347   0.35396   0.71099   0.00000  Uiso   1.00
C2071  C     0.30354   0.33017   0.69591   0.00000  Uiso   1.00
C2072  C     0.49928   0.28739   0.69052   0.00000  Uiso   1.00
Cl2073 Cl    0.00510   0.33660   0.71767   0.00000  Uiso   1.00
Cl2074 Cl    0.02057   0.16610   0.95070   0.00000  Uiso   1.00
Cl2075 Cl    0.48311   0.16438   0.71462   0.00000  Uiso   1.00
Cl2076 Cl    0.46943   0.33272   0.95370   0.00000  Uiso   1.00
Cl2077 Cl    0.25509   0.08660   0.71767   0.00000  Uiso   1.00
Cl2078 Cl    0.27060   0.41611   0.95071   0.00000  Uiso   1.00
Cl2079 Cl    0.23312   0.41437   0.71462   0.00000  Uiso   1.00
Cl2080 Cl    0.21943   0.08272   0.95370   0.00000  Uiso   1.00
H2081  H     0.38625   0.21095   0.71440   0.00000  Uiso   1.00
H2082  H     0.08521   0.42036   0.96433   0.00000  Uiso   1.00
H2083  H     0.07568   0.07640   0.92726   0.00000  Uiso   1.00
H2084  H     0.12207   0.03564   0.98096   0.00000  Uiso   1.00
H2085  H     0.07952   0.00431   0.95587   0.00000  Uiso   1.00
H2086  H     0.13145   0.47241   0.90345   0.00000  Uiso   1.00
H2087  H     0.14595   0.46193   0.96085   0.00000  Uiso   1.00
H2088  H     0.17275   0.00265   0.93079   0.00000  Uiso   1.00
H2089  H     0.31863   0.41798   0.70509   0.00000  Uiso   1.00
H2090  H     0.30309   0.39007   0.75445   0.00000  Uiso   1.00
H2091  H     0.36435   0.35976   0.68231   0.00000  Uiso   1.00
H2092  H     0.36067   0.33322   0.73514   0.00000  Uiso   1.00
H2093  H     0.06976   0.43374   0.90782   0.00000  Uiso   1.00
H2094  H     0.28262   0.32421   0.72451   0.00000  Uiso   1.00
H2095  H     0.31164   0.29901   0.68136   0.00000  Uiso   1.00
H2096  H     0.28580   0.34864   0.67056   0.00000  Uiso   1.00
H2097  H     0.49329   0.42633   0.92780   0.00000  Uiso   1.00
H2098  H     0.01900   0.46716   0.96023   0.00000  Uiso   1.00
H2099  H     0.00862   0.41555   0.98440   0.00000  Uiso   1.00
H2100  H     0.11529   0.27211   0.73327   0.00000  Uiso   1.00
H2101  H     0.14333   0.28516   0.78283   0.00000  Uiso   1.00
H2102  H     0.15994   0.32071   0.68876   0.00000  Uiso   1.00
H2103  H     0.18734   0.33875   0.73788   0.00000  Uiso   1.00
H2104  H     0.22082   0.27183   0.75077   0.00000  Uiso   1.00
H2105  H     0.37529   0.21878   0.77180   0.00000  Uiso   1.00
H2106  H     0.22542   0.28072   0.69269   0.00000  Uiso   1.00
H2107  H     0.18662   0.24314   0.71227   0.00000  Uiso   1.00
H2108  H     0.46287   0.10911   0.94779   0.00000  Uiso   1.00
H2109  H     0.47618   0.11747   0.89017   0.00000  Uiso   1.00
H2110  H     0.41002   0.05327   0.92524   0.00000  Uiso   1.00
H2111  H     0.42942   0.05645   0.86928   0.00000  Uiso   1.00
H2112  H     0.00272   0.03890   0.89825   0.00000  Uiso   1.00
H2113  H     0.46411   0.49763   0.91058   0.00000  Uiso   1.00
H2114  H     0.48168   0.03456   0.95293   0.00000  Uiso   1.00
H2115  H     0.13967   0.21463   0.89707   0.00000  Uiso   1.00
H2116  H     0.32622   0.15562   0.71017   0.00000  Uiso   1.00
H2117  H     0.16952   0.16906   0.91864   0.00000  Uiso   1.00
H2118  H     0.13355   0.18046   0.99224   0.00000  Uiso   1.00
H2119  H     0.17012   0.22079   0.97529   0.00000  Uiso   1.00
H2120  H     0.08323   0.24380   0.94406   0.00000  Uiso   1.00
H2121  H     0.11940   0.27373   0.97813   0.00000  Uiso   1.00
H2122  H     0.08549   0.23537   0.66982   0.00000  Uiso   1.00
H2123  H     0.49531   0.40830   0.76689   0.00000  Uiso   1.00
H2124  H     0.48650   0.38180   0.81793   0.00000  Uiso   1.00
H2125  H     0.43889   0.46388   0.78589   0.00000  Uiso   1.00
H2126  H     0.43706   0.44128   0.84022   0.00000  Uiso   1.00
H2127  H     0.31374   0.17033   0.76644   0.00000  Uiso   1.00
H2128  H     0.00949   0.45907   0.85707   0.00000  Uiso   1.00
H2129  H     0.48534   0.00631   0.83147   0.00000  Uiso   1.00
H2130  H     0.02045   0.47273   0.80098   0.00000  Uiso   1.00
H2131  H     0.34081   0.28837   0.88390   0.00000  Uiso   1.00
H2132  H     0.32561   0.32627   0.92701   0.00000  Uiso   1.00
H2133  H     0.37206   0.28574   0.98092   0.00000  Uiso   1.00
H2134  H     0.32953   0.25433   0.95590   0.00000  Uiso   1.00
H2135  H     0.38153   0.22228   0.90361   0.00000  Uiso   1.00
H2136  H     0.39597   0.21199   0.96105   0.00000  Uiso   1.00
H2137  H     0.42278   0.25264   0.93088   0.00000  Uiso   1.00
H2138  H     0.30538   0.24799   0.74185   0.00000  Uiso   1.00
H2139  H     0.06862   0.16799   0.70509   0.00000  Uiso   1.00
H2140  H     0.05308   0.14007   0.75445   0.00000  Uiso   1.00
H2141  H     0.11431   0.10977   0.68228   0.00000  Uiso   1.00
H2142  H     0.11066   0.08322   0.73511   0.00000  Uiso   1.00
H2143  H     0.03263   0.07417   0.72455   0.00000  Uiso   1.00
H2144  H     0.06159   0.04905   0.68129   0.00000  Uiso   1.00
H2145  H     0.03572   0.09869   0.67062   0.00000  Uiso   1.00
H2146  H     0.13627   0.46096   0.71441   0.00000  Uiso   1.00
H2147  H     0.12531   0.46878   0.77181   0.00000  Uiso   1.00
H2148  H     0.07623   0.40564   0.71018   0.00000  Uiso   1.00
H2149  H     0.26781   0.21119   0.71625   0.00000  Uiso   1.00
H2150  H     0.06374   0.42036   0.76644   0.00000  Uiso   1.00
H2151  H     0.05540   0.49800   0.74186   0.00000  Uiso   1.00
H2152  H     0.01785   0.46122   0.71620   0.00000  Uiso   1.00
H2153  H     0.06338   0.47875   0.68636   0.00000  Uiso   1.00
H2154  H     0.29847   0.10171   0.95779   0.00000  Uiso   1.00
H2155  H     0.28225   0.11396   0.90126   0.00000  Uiso   1.00
H2156  H     0.33520   0.17039   0.96429   0.00000  Uiso   1.00
H2157  H     0.31974   0.18375   0.90778   0.00000  Uiso   1.00
H2158  H     0.24328   0.17633   0.92779   0.00000  Uiso   1.00
H2159  H     0.26899   0.21718   0.96017   0.00000  Uiso   1.00
H2160  H     0.31329   0.22870   0.68634   0.00000  Uiso   1.00
H2161  H     0.25862   0.16559   0.98439   0.00000  Uiso   1.00
H2162  H     0.36528   0.02211   0.73325   0.00000  Uiso   1.00
H2163  H     0.39329   0.03513   0.78284   0.00000  Uiso   1.00
H2164  H     0.40999   0.07071   0.68880   0.00000  Uiso   1.00
H2165  H     0.43735   0.08873   0.73795   0.00000  Uiso   1.00
H2166  H     0.47080   0.02179   0.75084   0.00000  Uiso   1.00
H2167  H     0.47544   0.03068   0.69278   0.00000  Uiso   1.00
H2168  H     0.43662   0.49312   0.71232   0.00000  Uiso   1.00
H2169  H     0.21287   0.35916   0.94779   0.00000  Uiso   1.00
H2170  H     0.22617   0.36751   0.89016   0.00000  Uiso   1.00
H2171  H     0.04848   0.35168   0.95780   0.00000  Uiso   1.00
H2172  H     0.16007   0.30329   0.92531   0.00000  Uiso   1.00
H2173  H     0.17937   0.30647   0.86932   0.00000  Uiso   1.00
H2174  H     0.25271   0.28893   0.89810   0.00000  Uiso   1.00
H2175  H     0.21414   0.24767   0.91061   0.00000  Uiso   1.00
H2176  H     0.23184   0.28466   0.95287   0.00000  Uiso   1.00
H2177  H     0.38968   0.46462   0.89708   0.00000  Uiso   1.00
H2178  H     0.41953   0.41905   0.91866   0.00000  Uiso   1.00
H2179  H     0.38352   0.43047   0.99225   0.00000  Uiso   1.00
H2180  H     0.42011   0.47078   0.97531   0.00000  Uiso   1.00
H2181  H     0.33327   0.49387   0.94403   0.00000  Uiso   1.00
H2182  H     0.03226   0.36396   0.90127   0.00000  Uiso   1.00
H2183  H     0.36943   0.02373   0.97818   0.00000  Uiso   1.00
H2184  H     0.33546   0.48538   0.66978   0.00000  Uiso   1.00
H2185  H     0.24534   0.15824   0.76695   0.00000  Uiso   1.00
H2186  H     0.23644   0.13182   0.81800   0.00000  Uiso   1.00
H2187  H     0.18894   0.21388   0.78578   0.00000  Uiso   1.00
H2188  H     0.18700   0.19136   0.84013   0.00000  Uiso   1.00
H2189  H     0.25938   0.20912   0.85711   0.00000  Uiso   1.00
H2190  H     0.23535   0.25634   0.83137   0.00000  Uiso   1.00
H2191  H     0.27050   0.22266   0.80104   0.00000  Uiso   1.00
H2192  H     0.09063   0.03855   0.88402   0.00000  Uiso   1.00
N2193  N    -0.00000   0.25000   0.95240   0.00000  Uiso   1.00
N2194  N     0.00000   0.25000   0.71427   0.00000  Uiso   1.00
N2195  N     0.25000   0.00000   0.95240   0.00000  Uiso   1.00
N2196  N     0.25000   0.00000   0.71427   0.00000  Uiso   1.00
O2197  O     0.04580   0.20419   0.87154   0.00000  Uiso   1.00
O2198  O     0.20419   0.04581   0.79513   0.00000  Uiso   1.00
O2199  O     0.20419   0.04581   0.87154   0.00000  Uiso   1.00
O2200  O     0.29580   0.45419   0.79513   0.00000  Uiso   1.00
O2201  O     0.20419   0.45419   0.79513   0.00000  Uiso   1.00
O2202  O     0.29580   0.04581   0.87154   0.00000  Uiso   1.00
O2203  O     0.29580   0.04581   0.79513   0.00000  Uiso   1.00
O2204  O     0.20419   0.45419   0.87154   0.00000  Uiso   1.00
O2205  O     0.39949   0.15828   0.75264   0.00000  Uiso   1.00
O2206  O     0.09582   0.34770   0.91465   0.00000  Uiso   1.00
O2207  O     0.10406   0.33406   0.75419   0.00000  Uiso   1.00
O2208  O     0.45419   0.29581   0.79513   0.00000  Uiso   1.00
O2209  O     0.41753   0.14007   0.91188   0.00000  Uiso   1.00
O2210  O     0.10384   0.16072   0.91379   0.00000  Uiso   1.00
O2211  O     0.43784   0.37950   0.76962   0.00000  Uiso   1.00
O2212  O     0.38886   0.32848   0.90931   0.00000  Uiso   1.00
O2213  O     0.11259   0.16920   0.75456   0.00000  Uiso   1.00
O2214  O     0.14949   0.40827   0.75264   0.00000  Uiso   1.00
O2215  O     0.34582   0.09771   0.91465   0.00000  Uiso   1.00
O2216  O     0.35406   0.08406   0.75419   0.00000  Uiso   1.00
O2217  O     0.16752   0.39009   0.91189   0.00000  Uiso   1.00
O2218  O     0.35384   0.41072   0.91379   0.00000  Uiso   1.00
O2219  O     0.45419   0.29581   0.87154   0.00000  Uiso   1.00
O2220  O     0.18784   0.12949   0.76963   0.00000  Uiso   1.00
O2221  O     0.13886   0.07848   0.90932   0.00000  Uiso   1.00
O2222  O     0.36259   0.41921   0.75456   0.00000  Uiso   1.00
O2223  O     0.04580   0.20419   0.79513   0.00000  Uiso   1.00
O2224  O     0.45419   0.20419   0.79513   0.00000  Uiso   1.00
O2225  O     0.04580   0.29581   0.87154   0.00000  Uiso   1.00
O2226  O     0.04580   0.29581   0.79513   0.00000  Uiso   1.00
O2227  O     0.45419   0.20419   0.87154   0.00000  Uiso   1.00
O2228  O     0.29580   0.45419   0.87154   0.00000  Uiso   1.00
Zn2229 Zn   -0.00000   0.25000   0.88437   0.00000  Uiso   1.00
Zn2230 Zn    0.00000   0.25000   0.78229   0.00000  Uiso   1.00
Zn2231 Zn    0.25000   0.00000   0.88437   0.00000  Uiso   1.00
Zn2232 Zn    0.25000   0.00000   0.78229   0.00000  Uiso   1.00
C2233  C     0.56124   0.19133   0.83335   0.00000  Uiso   1.00
C2234  C     0.50372   0.21290   0.97643   0.00000  Uiso   1.00
C2235  C     0.99796   0.21264   0.68983   0.00000  Uiso   1.00
C2236  C     0.99347   0.28700   0.97700   0.00000  Uiso   1.00
C2237  C     0.74928   0.03739   0.69052   0.00000  Uiso   1.00
C2238  C     0.75373   0.46290   0.97643   0.00000  Uiso   1.00
C2239  C     0.74797   0.46264   0.68983   0.00000  Uiso   1.00
C2240  C     0.74347   0.03699   0.97700   0.00000  Uiso   1.00
C2241  C     0.88929   0.14095   0.79313   0.00000  Uiso   1.00
C2242  C     0.60848   0.36147   0.87356   0.00000  Uiso   1.00
C2243  C     0.61235   0.35541   0.79363   0.00000  Uiso   1.00
C2244  C     0.94026   0.31003   0.83348   0.00000  Uiso   1.00
C2245  C     0.89489   0.13639   0.87277   0.00000  Uiso   1.00
C2246  C     0.60954   0.14055   0.87341   0.00000  Uiso   1.00
C2247  C     0.90505   0.37304   0.79853   0.00000  Uiso   1.00
C2248  C     0.88416   0.35305   0.87186   0.00000  Uiso   1.00
C2249  C     0.61959   0.14954   0.79481   0.00000  Uiso   1.00
C2250  C     0.63929   0.39095   0.79313   0.00000  Uiso   1.00
C2251  C     0.85848   0.11147   0.87356   0.00000  Uiso   1.00
C2252  C     0.86235   0.10541   0.79363   0.00000  Uiso   1.00
C2253  C     0.64488   0.38640   0.87277   0.00000  Uiso   1.00
C2254  C     0.85955   0.39055   0.87341   0.00000  Uiso   1.00
C2255  C     0.94061   0.18946   0.83317   0.00000  Uiso   1.00
C2256  C     0.65504   0.12302   0.79853   0.00000  Uiso   1.00
C2257  C     0.63415   0.10305   0.87187   0.00000  Uiso   1.00
C2258  C     0.86960   0.39956   0.79481   0.00000  Uiso   1.00
C2259  C     0.59337   0.34295   0.83368   0.00000  Uiso   1.00
C2260  C     0.90793   0.15556   0.83299   0.00000  Uiso   1.00
C2261  C     0.90870   0.34480   0.83426   0.00000  Uiso   1.00
C2262  C     0.59649   0.15991   0.83346   0.00000  Uiso   1.00
C2263  C     0.84337   0.09295   0.83368   0.00000  Uiso   1.00
C2264  C     0.65793   0.40557   0.83299   0.00000  Uiso   1.00
C2265  C     0.65869   0.09479   0.83426   0.00000  Uiso   1.00
C2266  C     0.56011   0.30976   0.83354   0.00000  Uiso   1.00
C2267  C     0.84650   0.40992   0.83346   0.00000  Uiso   1.00
C2268  C     0.87365   0.19480   0.74421   0.00000  Uiso   1.00
C2269  C     0.82758   0.18191   0.73526   0.00000  Uiso   1.00
C2270  C     0.80173   0.22001   0.71911   0.00000  Uiso   1.00
C2271  C     0.55755   0.36786   0.92688   0.00000  Uiso   1.00
C2272  C     0.56099   0.41566   0.93789   0.00000  Uiso   1.00
C2273  C     0.51791   0.43218   0.95360   0.00000  Uiso   1.00
C2274  C     0.63249   0.29865   0.75031   0.00000  Uiso   1.00
C2275  C     0.67075   0.31108   0.72243   0.00000  Uiso   1.00
C2276  C     0.70262   0.27421   0.71928   0.00000  Uiso   1.00
C2277  C     0.81124   0.44134   0.83335   0.00000  Uiso   1.00
C2278  C     0.95050   0.10864   0.91334   0.00000  Uiso   1.00
C2279  C     0.93756   0.06154   0.90481   0.00000  Uiso   1.00
C2280  C     0.97387   0.03129   0.91733   0.00000  Uiso   1.00
C2281  C     0.63933   0.18772   0.92139   0.00000  Uiso   1.00
C2282  C     0.63851   0.20668   0.96806   0.00000  Uiso   1.00
C2283  C     0.60457   0.24180   0.97340   0.00000  Uiso   1.00
C2284  C     0.97110   0.40198   0.79189   0.00000  Uiso   1.00
C2285  C     0.95752   0.44596   0.81113   0.00000  Uiso   1.00
C2286  C     0.99559   0.47248   0.82617   0.00000  Uiso   1.00
C2287  C     0.85152   0.30470   0.91512   0.00000  Uiso   1.00
C2288  C     0.69026   0.06002   0.83348   0.00000  Uiso   1.00
C2289  C     0.85984   0.27053   0.95002   0.00000  Uiso   1.00
C2290  C     0.89194   0.23711   0.93530   0.00000  Uiso   1.00
C2291  C     0.57995   0.14681   0.73207   0.00000  Uiso   1.00
C2292  C     0.59345   0.10396   0.71098   0.00000  Uiso   1.00
C2293  C     0.55350   0.08018   0.69592   0.00000  Uiso   1.00
C2294  C     0.62367   0.44480   0.74421   0.00000  Uiso   1.00
C2295  C     0.57759   0.43193   0.73527   0.00000  Uiso   1.00
C2296  C     0.55177   0.47004   0.71910   0.00000  Uiso   1.00
C2297  C     0.80754   0.11787   0.92687   0.00000  Uiso   1.00
C2298  C     0.81098   0.16567   0.93785   0.00000  Uiso   1.00
C2299  C     0.69060   0.43946   0.83317   0.00000  Uiso   1.00
C2300  C     0.76790   0.18220   0.95356   0.00000  Uiso   1.00
C2301  C     0.88247   0.04864   0.75031   0.00000  Uiso   1.00
C2302  C     0.92077   0.06106   0.72248   0.00000  Uiso   1.00
C2303  C     0.95263   0.02417   0.71934   0.00000  Uiso   1.00
C2304  C     0.70050   0.35867   0.91334   0.00000  Uiso   1.00
C2305  C     0.68757   0.31157   0.90483   0.00000  Uiso   1.00
C2306  C     0.72391   0.28134   0.91729   0.00000  Uiso   1.00
C2307  C     0.88933   0.43771   0.92140   0.00000  Uiso   1.00
C2308  C     0.88850   0.45669   0.96807   0.00000  Uiso   1.00
C2309  C     0.85457   0.49182   0.97340   0.00000  Uiso   1.00
C2310  C     0.81010   0.05976   0.83353   0.00000  Uiso   1.00
C2311  C     0.72109   0.15197   0.79191   0.00000  Uiso   1.00
C2312  C     0.70751   0.19598   0.81108   0.00000  Uiso   1.00
C2313  C     0.74558   0.22249   0.82615   0.00000  Uiso   1.00
C2314  C     0.60149   0.05479   0.91523   0.00000  Uiso   1.00
C2315  C     0.60983   0.02052   0.95003   0.00000  Uiso   1.00
C2316  C     0.64191   0.48713   0.93518   0.00000  Uiso   1.00
C2317  C     0.82996   0.39680   0.73207   0.00000  Uiso   1.00
C2318  C     0.84347   0.35396   0.71099   0.00000  Uiso   1.00
C2319  C     0.80354   0.33017   0.69591   0.00000  Uiso   1.00
C2320  C     0.99928   0.28739   0.69052   0.00000  Uiso   1.00
Cl2321 Cl    0.50510   0.33660   0.71767   0.00000  Uiso   1.00
Cl2322 Cl    0.52057   0.16610   0.95070   0.00000  Uiso   1.00
Cl2323 Cl    0.98311   0.16438   0.71462   0.00000  Uiso   1.00
Cl2324 Cl    0.96943   0.33272   0.95370   0.00000  Uiso   1.00
Cl2325 Cl    0.75509   0.08660   0.71767   0.00000  Uiso   1.00
Cl2326 Cl    0.77060   0.41611   0.95071   0.00000  Uiso   1.00
Cl2327 Cl    0.73312   0.41437   0.71462   0.00000  Uiso   1.00
Cl2328 Cl    0.71943   0.08272   0.95370   0.00000  Uiso   1.00
H2329  H     0.88625   0.21095   0.71440   0.00000  Uiso   1.00
H2330  H     0.58521   0.42036   0.96433   0.00000  Uiso   1.00
H2331  H     0.57568   0.07640   0.92726   0.00000  Uiso   1.00
H2332  H     0.62207   0.03564   0.98096   0.00000  Uiso   1.00
H2333  H     0.57952   0.00431   0.95587   0.00000  Uiso   1.00
H2334  H     0.63145   0.47241   0.90345   0.00000  Uiso   1.00
H2335  H     0.64595   0.46193   0.96085   0.00000  Uiso   1.00
H2336  H     0.67275   0.00265   0.93079   0.00000  Uiso   1.00
H2337  H     0.81863   0.41798   0.70509   0.00000  Uiso   1.00
H2338  H     0.80309   0.39007   0.75445   0.00000  Uiso   1.00
H2339  H     0.86435   0.35976   0.68231   0.00000  Uiso   1.00
H2340  H     0.86067   0.33322   0.73514   0.00000  Uiso   1.00
H2341  H     0.56976   0.43374   0.90782   0.00000  Uiso   1.00
H2342  H     0.78262   0.32421   0.72451   0.00000  Uiso   1.00
H2343  H     0.81164   0.29901   0.68136   0.00000  Uiso   1.00
H2344  H     0.78580   0.34864   0.67056   0.00000  Uiso   1.00
H2345  H     0.99329   0.42633   0.92780   0.00000  Uiso   1.00
H2346  H     0.51900   0.46716   0.96023   0.00000  Uiso   1.00
H2347  H     0.50862   0.41555   0.98440   0.00000  Uiso   1.00
H2348  H     0.61529   0.27211   0.73327   0.00000  Uiso   1.00
H2349  H     0.64333   0.28516   0.78283   0.00000  Uiso   1.00
H2350  H     0.65994   0.32071   0.68876   0.00000  Uiso   1.00
H2351  H     0.68734   0.33875   0.73788   0.00000  Uiso   1.00
H2352  H     0.72082   0.27183   0.75077   0.00000  Uiso   1.00
H2353  H     0.87529   0.21878   0.77180   0.00000  Uiso   1.00
H2354  H     0.72542   0.28072   0.69269   0.00000  Uiso   1.00
H2355  H     0.68662   0.24314   0.71227   0.00000  Uiso   1.00
H2356  H     0.96287   0.10911   0.94779   0.00000  Uiso   1.00
H2357  H     0.97618   0.11747   0.89017   0.00000  Uiso   1.00
H2358  H     0.91002   0.05327   0.92524   0.00000  Uiso   1.00
H2359  H     0.92942   0.05645   0.86928   0.00000  Uiso   1.00
H2360  H     0.50272   0.03890   0.89825   0.00000  Uiso   1.00
H2361  H     0.96411   0.49763   0.91058   0.00000  Uiso   1.00
H2362  H     0.98168   0.03456   0.95293   0.00000  Uiso   1.00
H2363  H     0.63967   0.21463   0.89707   0.00000  Uiso   1.00
H2364  H     0.82622   0.15562   0.71017   0.00000  Uiso   1.00
H2365  H     0.66952   0.16906   0.91864   0.00000  Uiso   1.00
H2366  H     0.63355   0.18046   0.99224   0.00000  Uiso   1.00
H2367  H     0.67012   0.22079   0.97529   0.00000  Uiso   1.00
H2368  H     0.58323   0.24380   0.94406   0.00000  Uiso   1.00
H2369  H     0.61940   0.27373   0.97813   0.00000  Uiso   1.00
H2370  H     0.58549   0.23537   0.66982   0.00000  Uiso   1.00
H2371  H     0.99531   0.40830   0.76689   0.00000  Uiso   1.00
H2372  H     0.98650   0.38180   0.81793   0.00000  Uiso   1.00
H2373  H     0.93889   0.46388   0.78589   0.00000  Uiso   1.00
H2374  H     0.93706   0.44128   0.84022   0.00000  Uiso   1.00
H2375  H     0.81374   0.17033   0.76644   0.00000  Uiso   1.00
H2376  H     0.50949   0.45907   0.85707   0.00000  Uiso   1.00
H2377  H     0.98534   0.00631   0.83147   0.00000  Uiso   1.00
H2378  H     0.52045   0.47273   0.80098   0.00000  Uiso   1.00
H2379  H     0.84081   0.28837   0.88390   0.00000  Uiso   1.00
H2380  H     0.82561   0.32627   0.92701   0.00000  Uiso   1.00
H2381  H     0.87206   0.28574   0.98092   0.00000  Uiso   1.00
H2382  H     0.82953   0.25433   0.95590   0.00000  Uiso   1.00
H2383  H     0.88153   0.22228   0.90361   0.00000  Uiso   1.00
H2384  H     0.89597   0.21199   0.96105   0.00000  Uiso   1.00
H2385  H     0.92278   0.25264   0.93088   0.00000  Uiso   1.00
H2386  H     0.80538   0.24799   0.74185   0.00000  Uiso   1.00
H2387  H     0.56862   0.16799   0.70509   0.00000  Uiso   1.00
H2388  H     0.55308   0.14007   0.75445   0.00000  Uiso   1.00
H2389  H     0.61431   0.10977   0.68228   0.00000  Uiso   1.00
H2390  H     0.61066   0.08322   0.73511   0.00000  Uiso   1.00
H2391  H     0.53263   0.07417   0.72455   0.00000  Uiso   1.00
H2392  H     0.56159   0.04905   0.68129   0.00000  Uiso   1.00
H2393  H     0.53572   0.09869   0.67062   0.00000  Uiso   1.00
H2394  H     0.63627   0.46096   0.71441   0.00000  Uiso   1.00
H2395  H     0.62531   0.46878   0.77181   0.00000  Uiso   1.00
H2396  H     0.57623   0.40564   0.71018   0.00000  Uiso   1.00
H2397  H     0.76781   0.21119   0.71625   0.00000  Uiso   1.00
H2398  H     0.56374   0.42036   0.76644   0.00000  Uiso   1.00
H2399  H     0.55540   0.49800   0.74186   0.00000  Uiso   1.00
H2400  H     0.51785   0.46122   0.71620   0.00000  Uiso   1.00
H2401  H     0.56338   0.47875   0.68636   0.00000  Uiso   1.00
H2402  H     0.79847   0.10171   0.95779   0.00000  Uiso   1.00
H2403  H     0.78225   0.11396   0.90126   0.00000  Uiso   1.00
H2404  H     0.83520   0.17039   0.96429   0.00000  Uiso   1.00
H2405  H     0.81974   0.18375   0.90778   0.00000  Uiso   1.00
H2406  H     0.74328   0.17633   0.92779   0.00000  Uiso   1.00
H2407  H     0.76899   0.21718   0.96017   0.00000  Uiso   1.00
H2408  H     0.81329   0.22870   0.68634   0.00000  Uiso   1.00
H2409  H     0.75862   0.16559   0.98439   0.00000  Uiso   1.00
H2410  H     0.86528   0.02211   0.73325   0.00000  Uiso   1.00
H2411  H     0.89329   0.03513   0.78284   0.00000  Uiso   1.00
H2412  H     0.90999   0.07071   0.68880   0.00000  Uiso   1.00
H2413  H     0.93735   0.08873   0.73795   0.00000  Uiso   1.00
H2414  H     0.97080   0.02179   0.75084   0.00000  Uiso   1.00
H2415  H     0.97544   0.03068   0.69278   0.00000  Uiso   1.00
H2416  H     0.93662   0.49312   0.71232   0.00000  Uiso   1.00
H2417  H     0.71287   0.35916   0.94779   0.00000  Uiso   1.00
H2418  H     0.72617   0.36751   0.89016   0.00000  Uiso   1.00
H2419  H     0.54848   0.35168   0.95780   0.00000  Uiso   1.00
H2420  H     0.66007   0.30329   0.92531   0.00000  Uiso   1.00
H2421  H     0.67937   0.30647   0.86932   0.00000  Uiso   1.00
H2422  H     0.75271   0.28893   0.89810   0.00000  Uiso   1.00
H2423  H     0.71414   0.24767   0.91061   0.00000  Uiso   1.00
H2424  H     0.73184   0.28466   0.95287   0.00000  Uiso   1.00
H2425  H     0.88968   0.46462   0.89708   0.00000  Uiso   1.00
H2426  H     0.91953   0.41905   0.91866   0.00000  Uiso   1.00
H2427  H     0.88352   0.43047   0.99225   0.00000  Uiso   1.00
H2428  H     0.92011   0.47078   0.97531   0.00000  Uiso   1.00
H2429  H     0.83327   0.49387   0.94403   0.00000  Uiso   1.00
H2430  H     0.53226   0.36396   0.90127   0.00000  Uiso   1.00
H2431  H     0.86943   0.02373   0.97818   0.00000  Uiso   1.00
H2432  H     0.83546   0.48538   0.66978   0.00000  Uiso   1.00
H2433  H     0.74534   0.15824   0.76695   0.00000  Uiso   1.00
H2434  H     0.73644   0.13182   0.81800   0.00000  Uiso   1.00
H2435  H     0.68894   0.21388   0.78578   0.00000  Uiso   1.00
H2436  H     0.68700   0.19136   0.84013   0.00000  Uiso   1.00
H2437  H     0.75938   0.20912   0.85711   0.00000  Uiso   1.00
H2438  H     0.73535   0.25634   0.83137   0.00000  Uiso   1.00
H2439  H     0.77050   0.22266   0.80104   0.00000  Uiso   1.00
H2440  H     0.59063   0.03855   0.88402   0.00000  Uiso   1.00
N2441  N     0.50000   0.25000   0.95240   0.00000  Uiso   1.00
N2442  N     0.50000   0.25000   0.71427   0.00000  Uiso   1.00
N2443  N     0.75000   0.00000   0.95240   0.00000  Uiso   1.00
N2444  N     0.75000   0.00000   0.71427   0.00000  Uiso   1.00
O2445  O     0.54580   0.20419   0.87154   0.00000  Uiso   1.00
O2446  O     0.70419   0.04581   0.79513   0.00000  Uiso   1.00
O2447  O     0.70419   0.04581   0.87154   0.00000  Uiso   1.00
O2448  O     0.79580   0.45419   0.79513   0.00000  Uiso   1.00
O2449  O     0.70419   0.45419   0.79513   0.00000  Uiso   1.00
O2450  O     0.79580   0.04581   0.87154   0.00000  Uiso   1.00
O2451  O     0.79580   0.04581   0.79513   0.00000  Uiso   1.00
O2452  O     0.70419   0.45419   0.87154   0.00000  Uiso   1.00
O2453  O     0.89949   0.15828   0.75264   0.00000  Uiso   1.00
O2454  O     0.59582   0.34770   0.91465   0.00000  Uiso   1.00
O2455  O     0.60406   0.33406   0.75419   0.00000  Uiso   1.00
O2456  O     0.95419   0.29581   0.79513   0.00000  Uiso   1.00
O2457  O     0.91753   0.14007   0.91188   0.00000  Uiso   1.00
O2458  O     0.60384   0.16072   0.91379   0.00000  Uiso   1.00
O2459  O     0.93784   0.37950   0.76962   0.00000  Uiso   1.00
O2460  O     0.88886   0.32848   0.90931   0.00000  Uiso   1.00
O2461  O     0.61259   0.16920   0.75456   0.00000  Uiso   1.00
O2462  O     0.64949   0.40827   0.75264   0.00000  Uiso   1.00
O2463  O     0.84582   0.09771   0.91465   0.00000  Uiso   1.00
O2464  O     0.85406   0.08406   0.75419   0.00000  Uiso   1.00
O2465  O     0.66752   0.39009   0.91189   0.00000  Uiso   1.00
O2466  O     0.85384   0.41072   0.91379   0.00000  Uiso   1.00
O2467  O     0.95419   0.29581   0.87154   0.00000  Uiso   1.00
O2468  O     0.68784   0.12949   0.76963   0.00000  Uiso   1.00
O2469  O     0.63886   0.07848   0.90932   0.00000  Uiso   1.00
O2470  O     0.86259   0.41921   0.75456   0.00000  Uiso   1.00
O2471  O     0.54580   0.20419   0.79513   0.00000  Uiso   1.00
O2472  O     0.95419   0.20419   0.79513   0.00000  Uiso   1.00
O2473  O     0.54580   0.29581   0.87154   0.00000  Uiso   1.00
O2474  O     0.54580   0.29581   0.79513   0.00000  Uiso   1.00
O2475  O     0.95419   0.20419   0.87154   0.00000  Uiso   1.00
O2476  O     0.79580   0.45419   0.87154   0.00000  Uiso   1.00
Zn2477 Zn    0.50000   0.25000   0.88437   0.00000  Uiso   1.00
Zn2478 Zn    0.50000   0.25000   0.78229   0.00000  Uiso   1.00
Zn2479 Zn    0.75000   0.00000   0.88437   0.00000  Uiso   1.00
Zn2480 Zn    0.75000   0.00000   0.78229   0.00000  Uiso   1.00
C2481  C     0.06124   0.69133   0.83335   0.00000  Uiso   1.00
C2482  C     0.00372   0.71290   0.97643   0.00000  Uiso   1.00
C2483  C     0.49796   0.71264   0.68983   0.00000  Uiso   1.00
C2484  C     0.49347   0.78700   0.97700   0.00000  Uiso   1.00
C2485  C     0.24928   0.53739   0.69052   0.00000  Uiso   1.00
C2486  C     0.25373   0.96290   0.97643   0.00000  Uiso   1.00
C2487  C     0.24797   0.96264   0.68983   0.00000  Uiso   1.00
C2488  C     0.24347   0.53699   0.97700   0.00000  Uiso   1.00
C2489  C     0.38929   0.64095   0.79313   0.00000  Uiso   1.00
C2490  C     0.10848   0.86147   0.87356   0.00000  Uiso   1.00
C2491  C     0.11235   0.85541   0.79363   0.00000  Uiso   1.00
C2492  C     0.44026   0.81003   0.83348   0.00000  Uiso   1.00
C2493  C     0.39489   0.63639   0.87277   0.00000  Uiso   1.00
C2494  C     0.10954   0.64055   0.87341   0.00000  Uiso   1.00
C2495  C     0.40505   0.87304   0.79853   0.00000  Uiso   1.00
C2496  C     0.38416   0.85305   0.87186   0.00000  Uiso   1.00
C2497  C     0.11959   0.64954   0.79481   0.00000  Uiso   1.00
C2498  C     0.13929   0.89095   0.79313   0.00000  Uiso   1.00
C2499  C     0.35848   0.61147   0.87356   0.00000  Uiso   1.00
C2500  C     0.36235   0.60541   0.79363   0.00000  Uiso   1.00
C2501  C     0.14488   0.88640   0.87277   0.00000  Uiso   1.00
C2502  C     0.35955   0.89055   0.87341   0.00000  Uiso   1.00
C2503  C     0.44061   0.68946   0.83317   0.00000  Uiso   1.00
C2504  C     0.15504   0.62302   0.79853   0.00000  Uiso   1.00
C2505  C     0.13415   0.60305   0.87187   0.00000  Uiso   1.00
C2506  C     0.36960   0.89956   0.79481   0.00000  Uiso   1.00
C2507  C     0.09337   0.84295   0.83368   0.00000  Uiso   1.00
C2508  C     0.40793   0.65556   0.83299   0.00000  Uiso   1.00
C2509  C     0.40870   0.84480   0.83426   0.00000  Uiso   1.00
C2510  C     0.09649   0.65991   0.83346   0.00000  Uiso   1.00
C2511  C     0.34337   0.59295   0.83368   0.00000  Uiso   1.00
C2512  C     0.15793   0.90557   0.83299   0.00000  Uiso   1.00
C2513  C     0.15869   0.59479   0.83426   0.00000  Uiso   1.00
C2514  C     0.06011   0.80976   0.83354   0.00000  Uiso   1.00
C2515  C     0.34650   0.90992   0.83346   0.00000  Uiso   1.00
C2516  C     0.37365   0.69480   0.74421   0.00000  Uiso   1.00
C2517  C     0.32758   0.68191   0.73526   0.00000  Uiso   1.00
C2518  C     0.30173   0.72001   0.71911   0.00000  Uiso   1.00
C2519  C     0.05755   0.86786   0.92688   0.00000  Uiso   1.00
C2520  C     0.06099   0.91566   0.93789   0.00000  Uiso   1.00
C2521  C     0.01791   0.93218   0.95360   0.00000  Uiso   1.00
C2522  C     0.13249   0.79865   0.75031   0.00000  Uiso   1.00
C2523  C     0.17075   0.81108   0.72243   0.00000  Uiso   1.00
C2524  C     0.20262   0.77421   0.71928   0.00000  Uiso   1.00
C2525  C     0.31124   0.94134   0.83335   0.00000  Uiso   1.00
C2526  C     0.45050   0.60864   0.91334   0.00000  Uiso   1.00
C2527  C     0.43756   0.56154   0.90481   0.00000  Uiso   1.00
C2528  C     0.47387   0.53129   0.91733   0.00000  Uiso   1.00
C2529  C     0.13933   0.68772   0.92139   0.00000  Uiso   1.00
C2530  C     0.13851   0.70668   0.96806   0.00000  Uiso   1.00
C2531  C     0.10457   0.74180   0.97340   0.00000  Uiso   1.00
C2532  C     0.47110   0.90198   0.79189   0.00000  Uiso   1.00
C2533  C     0.45752   0.94596   0.81113   0.00000  Uiso   1.00
C2534  C     0.49559   0.97248   0.82617   0.00000  Uiso   1.00
C2535  C     0.35152   0.80470   0.91512   0.00000  Uiso   1.00
C2536  C     0.19026   0.56002   0.83348   0.00000  Uiso   1.00
C2537  C     0.35984   0.77053   0.95002   0.00000  Uiso   1.00
C2538  C     0.39194   0.73711   0.93530   0.00000  Uiso   1.00
C2539  C     0.07995   0.64681   0.73207   0.00000  Uiso   1.00
C2540  C     0.09345   0.60396   0.71098   0.00000  Uiso   1.00
C2541  C     0.05350   0.58018   0.69592   0.00000  Uiso   1.00
C2542  C     0.12367   0.94480   0.74421   0.00000  Uiso   1.00
C2543  C     0.07759   0.93193   0.73527   0.00000  Uiso   1.00
C2544  C     0.05177   0.97004   0.71910   0.00000  Uiso   1.00
C2545  C     0.30754   0.61787   0.92687   0.00000  Uiso   1.00
C2546  C     0.31098   0.66567   0.93785   0.00000  Uiso   1.00
C2547  C     0.19060   0.93946   0.83317   0.00000  Uiso   1.00
C2548  C     0.26790   0.68220   0.95356   0.00000  Uiso   1.00
C2549  C     0.38247   0.54864   0.75031   0.00000  Uiso   1.00
C2550  C     0.42077   0.56106   0.72248   0.00000  Uiso   1.00
C2551  C     0.45263   0.52417   0.71934   0.00000  Uiso   1.00
C2552  C     0.20050   0.85867   0.91334   0.00000  Uiso   1.00
C2553  C     0.18757   0.81157   0.90483   0.00000  Uiso   1.00
C2554  C     0.22391   0.78134   0.91729   0.00000  Uiso   1.00
C2555  C     0.38933   0.93771   0.92140   0.00000  Uiso   1.00
C2556  C     0.38850   0.95669   0.96807   0.00000  Uiso   1.00
C2557  C     0.35457   0.99182   0.97340   0.00000  Uiso   1.00
C2558  C     0.31010   0.55976   0.83353   0.00000  Uiso   1.00
C2559  C     0.22109   0.65197   0.79191   0.00000  Uiso   1.00
C2560  C     0.20751   0.69598   0.81108   0.00000  Uiso   1.00
C2561  C     0.24558   0.72249   0.82615   0.00000  Uiso   1.00
C2562  C     0.10149   0.55479   0.91523   0.00000  Uiso   1.00
C2563  C     0.10983   0.52052   0.95003   0.00000  Uiso   1.00
C2564  C     0.14191   0.98713   0.93518   0.00000  Uiso   1.00
C2565  C     0.32996   0.89680   0.73207   0.00000  Uiso   1.00
C2566  C     0.34347   0.85396   0.71099   0.00000  Uiso   1.00
C2567  C     0.30354   0.83017   0.69591   0.00000  Uiso   1.00
C2568  C     0.49928   0.78739   0.69052   0.00000  Uiso   1.00
Cl2569 Cl    0.00510   0.83660   0.71767   0.00000  Uiso   1.00
Cl2570 Cl    0.02057   0.66610   0.95070   0.00000  Uiso   1.00
Cl2571 Cl    0.48311   0.66438   0.71462   0.00000  Uiso   1.00
Cl2572 Cl    0.46943   0.83272   0.95370   0.00000  Uiso   1.00
Cl2573 Cl    0.25509   0.58660   0.71767   0.00000  Uiso   1.00
Cl2574 Cl    0.27060   0.91611   0.95071   0.00000  Uiso   1.00
Cl2575 Cl    0.23312   0.91437   0.71462   0.00000  Uiso   1.00
Cl2576 Cl    0.21943   0.58272   0.95370   0.00000  Uiso   1.00
H2577  H     0.38625   0.71095   0.71440   0.00000  Uiso   1.00
H2578  H     0.08521   0.92036   0.96433   0.00000  Uiso   1.00
H2579  H     0.07568   0.57640   0.92726   0.00000  Uiso   1.00
H2580  H     0.12207   0.53564   0.98096   0.00000  Uiso   1.00
H2581  H     0.07952   0.50431   0.95587   0.00000  Uiso   1.00
H2582  H     0.13145   0.97241   0.90345   0.00000  Uiso   1.00
H2583  H     0.14595   0.96193   0.96085   0.00000  Uiso   1.00
H2584  H     0.17275   0.50265   0.93079   0.00000  Uiso   1.00
H2585  H     0.31863   0.91798   0.70509   0.00000  Uiso   1.00
H2586  H     0.30309   0.89007   0.75445   0.00000  Uiso   1.00
H2587  H     0.36435   0.85976   0.68231   0.00000  Uiso   1.00
H2588  H     0.36067   0.83322   0.73514   0.00000  Uiso   1.00
H2589  H     0.06976   0.93374   0.90782   0.00000  Uiso   1.00
H2590  H     0.28262   0.82421   0.72451   0.00000  Uiso   1.00
H2591  H     0.31164   0.79901   0.68136   0.00000  Uiso   1.00
H2592  H     0.28580   0.84864   0.67056   0.00000  Uiso   1.00
H2593  H     0.49329   0.92633   0.92780   0.00000  Uiso   1.00
H2594  H     0.01900   0.96716   0.96023   0.00000  Uiso   1.00
H2595  H     0.00862   0.91555   0.98440   0.00000  Uiso   1.00
H2596  H     0.11529   0.77211   0.73327   0.00000  Uiso   1.00
H2597  H     0.14333   0.78516   0.78283   0.00000  Uiso   1.00
H2598  H     0.15994   0.82071   0.68876   0.00000  Uiso   1.00
H2599  H     0.18734   0.83875   0.73788   0.00000  Uiso   1.00
H2600  H     0.22082   0.77183   0.75077   0.00000  Uiso   1.00
H2601  H     0.37529   0.71878   0.77180   0.00000  Uiso   1.00
H2602  H     0.22542   0.78072   0.69269   0.00000  Uiso   1.00
H2603  H     0.18662   0.74314   0.71227   0.00000  Uiso   1.00
H2604  H     0.46287   0.60911   0.94779   0.00000  Uiso   1.00
H2605  H     0.47618   0.61747   0.89017   0.00000  Uiso   1.00
H2606  H     0.41002   0.55327   0.92524   0.00000  Uiso   1.00
H2607  H     0.42942   0.55645   0.86928   0.00000  Uiso   1.00
H2608  H     0.00272   0.53890   0.89825   0.00000  Uiso   1.00
H2609  H     0.46411   0.99763   0.91058   0.00000  Uiso   1.00
H2610  H     0.48168   0.53456   0.95293   0.00000  Uiso   1.00
H2611  H     0.13967   0.71463   0.89707   0.00000  Uiso   1.00
H2612  H     0.32622   0.65562   0.71017   0.00000  Uiso   1.00
H2613  H     0.16952   0.66906   0.91864   0.00000  Uiso   1.00
H2614  H     0.13355   0.68046   0.99224   0.00000  Uiso   1.00
H2615  H     0.17012   0.72079   0.97529   0.00000  Uiso   1.00
H2616  H     0.08323   0.74380   0.94406   0.00000  Uiso   1.00
H2617  H     0.11940   0.77373   0.97813   0.00000  Uiso   1.00
H2618  H     0.08549   0.73537   0.66982   0.00000  Uiso   1.00
H2619  H     0.49531   0.90830   0.76689   0.00000  Uiso   1.00
H2620  H     0.48650   0.88180   0.81793   0.00000  Uiso   1.00
H2621  H     0.43889   0.96388   0.78589   0.00000  Uiso   1.00
H2622  H     0.43706   0.94128   0.84022   0.00000  Uiso   1.00
H2623  H     0.31374   0.67033   0.76644   0.00000  Uiso   1.00
H2624  H     0.00949   0.95907   0.85707   0.00000  Uiso   1.00
H2625  H     0.48534   0.50631   0.83147   0.00000  Uiso   1.00
H2626  H     0.02045   0.97273   0.80098   0.00000  Uiso   1.00
H2627  H     0.34081   0.78837   0.88390   0.00000  Uiso   1.00
H2628  H     0.32561   0.82627   0.92701   0.00000  Uiso   1.00
H2629  H     0.37206   0.78574   0.98092   0.00000  Uiso   1.00
H2630  H     0.32953   0.75433   0.95590   0.00000  Uiso   1.00
H2631  H     0.38153   0.72228   0.90361   0.00000  Uiso   1.00
H2632  H     0.39597   0.71199   0.96105   0.00000  Uiso   1.00
H2633  H     0.42278   0.75264   0.93088   0.00000  Uiso   1.00
H2634  H     0.30538   0.74799   0.74185   0.00000  Uiso   1.00
H2635  H     0.06862   0.66799   0.70509   0.00000  Uiso   1.00
H2636  H     0.05308   0.64007   0.75445   0.00000  Uiso   1.00
H2637  H     0.11431   0.60977   0.68228   0.00000  Uiso   1.00
H2638  H     0.11066   0.58322   0.73511   0.00000  Uiso   1.00
H2639  H     0.03263   0.57417   0.72455   0.00000  Uiso   1.00
H2640  H     0.06159   0.54905   0.68129   0.00000  Uiso   1.00
H2641  H     0.03572   0.59869   0.67062   0.00000  Uiso   1.00
H2642  H     0.13627   0.96096   0.71441   0.00000  Uiso   1.00
H2643  H     0.12531   0.96878   0.77181   0.00000  Uiso   1.00
H2644  H     0.07623   0.90564   0.71018   0.00000  Uiso   1.00
H2645  H     0.26781   0.71119   0.71625   0.00000  Uiso   1.00
H2646  H     0.06374   0.92036   0.76644   0.00000  Uiso   1.00
H2647  H     0.05540   0.99800   0.74186   0.00000  Uiso   1.00
H2648  H     0.01785   0.96122   0.71620   0.00000  Uiso   1.00
H2649  H     0.06338   0.97875   0.68636   0.00000  Uiso   1.00
H2650  H     0.29847   0.60171   0.95779   0.00000  Uiso   1.00
H2651  H     0.28225   0.61396   0.90126   0.00000  Uiso   1.00
H2652  H     0.33520   0.67039   0.96429   0.00000  Uiso   1.00
H2653  H     0.31974   0.68375   0.90778   0.00000  Uiso   1.00
H2654  H     0.24328   0.67633   0.92779   0.00000  Uiso   1.00
H2655  H     0.26899   0.71718   0.96017   0.00000  Uiso   1.00
H2656  H     0.31329   0.72870   0.68634   0.00000  Uiso   1.00
H2657  H     0.25862   0.66559   0.98439   0.00000  Uiso   1.00
H2658  H     0.36528   0.52211   0.73325   0.00000  Uiso   1.00
H2659  H     0.39329   0.53513   0.78284   0.00000  Uiso   1.00
H2660  H     0.40999   0.57071   0.68880   0.00000  Uiso   1.00
H2661  H     0.43735   0.58873   0.73795   0.00000  Uiso   1.00
H2662  H     0.47080   0.52179   0.75084   0.00000  Uiso   1.00
H2663  H     0.47544   0.53068   0.69278   0.00000  Uiso   1.00
H2664  H     0.43662   0.99312   0.71232   0.00000  Uiso   1.00
H2665  H     0.21287   0.85916   0.94779   0.00000  Uiso   1.00
H2666  H     0.22617   0.86751   0.89016   0.00000  Uiso   1.00
H2667  H     0.04848   0.85168   0.95780   0.00000  Uiso   1.00
H2668  H     0.16007   0.80329   0.92531   0.00000  Uiso   1.00
H2669  H     0.17937   0.80647   0.86932   0.00000  Uiso   1.00
H2670  H     0.25271   0.78893   0.89810   0.00000  Uiso   1.00
H2671  H     0.21414   0.74767   0.91061   0.00000  Uiso   1.00
H2672  H     0.23184   0.78466   0.95287   0.00000  Uiso   1.00
H2673  H     0.38968   0.96462   0.89708   0.00000  Uiso   1.00
H2674  H     0.41953   0.91905   0.91866   0.00000  Uiso   1.00
H2675  H     0.38352   0.93047   0.99225   0.00000  Uiso   1.00
H2676  H     0.42011   0.97078   0.97531   0.00000  Uiso   1.00
H2677  H     0.33327   0.99387   0.94403   0.00000  Uiso   1.00
H2678  H     0.03226   0.86396   0.90127   0.00000  Uiso   1.00
H2679  H     0.36943   0.52373   0.97818   0.00000  Uiso   1.00
H2680  H     0.33546   0.98538   0.66978   0.00000  Uiso   1.00
H2681  H     0.24534   0.65824   0.76695   0.00000  Uiso   1.00
H2682  H     0.23644   0.63182   0.81800   0.00000  Uiso   1.00
H2683  H     0.18894   0.71388   0.78578   0.00000  Uiso   1.00
H2684  H     0.18700   0.69136   0.84013   0.00000  Uiso   1.00
H2685  H     0.25938   0.70912   0.85711   0.00000  Uiso   1.00
H2686  H     0.23535   0.75634   0.83137   0.00000  Uiso   1.00
H2687  H     0.27050   0.72266   0.80104   0.00000  Uiso   1.00
H2688  H     0.09063   0.53855   0.88402   0.00000  Uiso   1.00
N2689  N    -0.00000   0.75000   0.95240   0.00000  Uiso   1.00
N2690  N     0.00000   0.75000   0.71427   0.00000  Uiso   1.00
N2691  N     0.25000   0.50000   0.95240   0.00000  Uiso   1.00
N2692  N     0.25000   0.50000   0.71427   0.00000  Uiso   1.00
O2693  O     0.04580   0.70419   0.87154   0.00000  Uiso   1.00
O2694  O     0.20419   0.54581   0.79513   0.00000  Uiso   1.00
O2695  O     0.20419   0.54581   0.87154   0.00000  Uiso   1.00
O2696  O     0.29580   0.95419   0.79513   0.00000  Uiso   1.00
O2697  O     0.20419   0.95419   0.79513   0.00000  Uiso   1.00
O2698  O     0.29580   0.54581   0.87154   0.00000  Uiso   1.00
O2699  O     0.29580   0.54581   0.79513   0.00000  Uiso   1.00
O2700  O     0.20419   0.95419   0.87154   0.00000  Uiso   1.00
O2701  O     0.39949   0.65828   0.75264   0.00000  Uiso   1.00
O2702  O     0.09582   0.84770   0.91465   0.00000  Uiso   1.00
O2703  O     0.10406   0.83406   0.75419   0.00000  Uiso   1.00
O2704  O     0.45419   0.79581   0.79513   0.00000  Uiso   1.00
O2705  O     0.41753   0.64007   0.91188   0.00000  Uiso   1.00
O2706  O     0.10384   0.66072   0.91379   0.00000  Uiso   1.00
O2707  O     0.43784   0.87950   0.76962   0.00000  Uiso   1.00
O2708  O     0.38886   0.82848   0.90931   0.00000  Uiso   1.00
O2709  O     0.11259   0.66920   0.75456   0.00000  Uiso   1.00
O2710  O     0.14949   0.90827   0.75264   0.00000  Uiso   1.00
O2711  O     0.34582   0.59771   0.91465   0.00000  Uiso   1.00
O2712  O     0.35406   0.58406   0.75419   0.00000  Uiso   1.00
O2713  O     0.16752   0.89009   0.91189   0.00000  Uiso   1.00
O2714  O     0.35384   0.91072   0.91379   0.00000  Uiso   1.00
O2715  O     0.45419   0.79581   0.87154   0.00000  Uiso   1.00
O2716  O     0.18784   0.62949   0.76963   0.00000  Uiso   1.00
O2717  O     0.13886   0.57848   0.90932   0.00000  Uiso   1.00
O2718  O     0.36259   0.91921   0.75456   0.00000  Uiso   1.00
O2719  O     0.04580   0.70419   0.79513   0.00000  Uiso   1.00
O2720  O     0.45419   0.70419   0.79513   0.00000  Uiso   1.00
O2721  O     0.04580   0.79581   0.87154   0.00000  Uiso   1.00
O2722  O     0.04580   0.79581   0.79513   0.00000  Uiso   1.00
O2723  O     0.45419   0.70419   0.87154   0.00000  Uiso   1.00
O2724  O     0.29580   0.95419   0.87154   0.00000  Uiso   1.00
Zn2725 Zn   -0.00000   0.75000   0.88437   0.00000  Uiso   1.00
Zn2726 Zn    0.00000   0.75000   0.78229   0.00000  Uiso   1.00
Zn2727 Zn    0.25000   0.50000   0.88437   0.00000  Uiso   1.00
Zn2728 Zn    0.25000   0.50000   0.78229   0.00000  Uiso   1.00
C2729  C     0.56124   0.69133   0.83335   0.00000  Uiso   1.00
C2730  C     0.50372   0.71290   0.97643   0.00000  Uiso   1.00
C2731  C     0.99796   0.71264   0.68983   0.00000  Uiso   1.00
C2732  C     0.99347   0.78700   0.97700   0.00000  Uiso   1.00
C2733  C     0.74928   0.53739   0.69052   0.00000  Uiso   1.00
C2734  C     0.75373   0.96290   0.97643   0.00000  Uiso   1.00
C2735  C     0.74797   0.96264   0.68983   0.00000  Uiso   1.00
C2736  C     0.74347   0.53699   0.97700   0.00000  Uiso   1.00
C2737  C     0.88929   0.64095   0.79313   0.00000  Uiso   1.00
C2738  C     0.60848   0.86147   0.87356   0.00000  Uiso   1.00
C2739  C     0.61235   0.85541   0.79363   0.00000  Uiso   1.00
C2740  C     0.94026   0.81003   0.83348   0.00000  Uiso   1.00
C2741  C     0.89489   0.63639   0.87277   0.00000  Uiso   1.00
C2742  C     0.60954   0.64055   0.87341   0.00000  Uiso   1.00
C2743  C     0.90505   0.87304   0.79853   0.00000  Uiso   1.00
C2744  C     0.88416   0.85305   0.87186   0.00000  Uiso   1.00
C2745  C     0.61959   0.64954   0.79481   0.00000  Uiso   1.00
C2746  C     0.63929   0.89095   0.79313   0.00000  Uiso   1.00
C2747  C     0.85848   0.61147   0.87356   0.00000  Uiso   1.00
C2748  C     0.86235   0.60541   0.79363   0.00000  Uiso   1.00
C2749  C     0.64488   0.88640   0.87277   0.00000  Uiso   1.00
C2750  C     0.85955   0.89055   0.87341   0.00000  Uiso   1.00
C2751  C     0.94061   0.68946   0.83317   0.00000  Uiso   1.00
C2752  C     0.65504   0.62302   0.79853   0.00000  Uiso   1.00
C2753  C     0.63415   0.60305   0.87187   0.00000  Uiso   1.00
C2754  C     0.86960   0.89956   0.79481   0.00000  Uiso   1.00
C2755  C     0.59337   0.84295   0.83368   0.00000  Uiso   1.00
C2756  C     0.90793   0.65556   0.83299   0.00000  Uiso   1.00
C2757  C     0.90870   0.84480   0.83426   0.00000  Uiso   1.00
C2758  C     0.59649   0.65991   0.83346   0.00000  Uiso   1.00
C2759  C     0.84337   0.59295   0.83368   0.00000  Uiso   1.00
C2760  C     0.65793   0.90557   0.83299   0.00000  Uiso   1.00
C2761  C     0.65869   0.59479   0.83426   0.00000  Uiso   1.00
C2762  C     0.56011   0.80976   0.83354   0.00000  Uiso   1.00
C2763  C     0.84650   0.90992   0.83346   0.00000  Uiso   1.00
C2764  C     0.87365   0.69480   0.74421   0.00000  Uiso   1.00
C2765  C     0.82758   0.68191   0.73526   0.00000  Uiso   1.00
C2766  C     0.80173   0.72001   0.71911   0.00000  Uiso   1.00
C2767  C     0.55755   0.86786   0.92688   0.00000  Uiso   1.00
C2768  C     0.56099   0.91566   0.93789   0.00000  Uiso   1.00
C2769  C     0.51791   0.93218   0.95360   0.00000  Uiso   1.00
C2770  C     0.63249   0.79865   0.75031   0.00000  Uiso   1.00
C2771  C     0.67075   0.81108   0.72243   0.00000  Uiso   1.00
C2772  C     0.70262   0.77421   0.71928   0.00000  Uiso   1.00
C2773  C     0.81124   0.94134   0.83335   0.00000  Uiso   1.00
C2774  C     0.95050   0.60864   0.91334   0.00000  Uiso   1.00
C2775  C     0.93756   0.56154   0.90481   0.00000  Uiso   1.00
C2776  C     0.97387   0.53129   0.91733   0.00000  Uiso   1.00
C2777  C     0.63933   0.68772   0.92139   0.00000  Uiso   1.00
C2778  C     0.63851   0.70668   0.96806   0.00000  Uiso   1.00
C2779  C     0.60457   0.74180   0.97340   0.00000  Uiso   1.00
C2780  C     0.97110   0.90198   0.79189   0.00000  Uiso   1.00
C2781  C     0.95752   0.94596   0.81113   0.00000  Uiso   1.00
C2782  C     0.99559   0.97248   0.82617   0.00000  Uiso   1.00
C2783  C     0.85152   0.80470   0.91512   0.00000  Uiso   1.00
C2784  C     0.69026   0.56002   0.83348   0.00000  Uiso   1.00
C2785  C     0.85984   0.77053   0.95002   0.00000  Uiso   1.00
C2786  C     0.89194   0.73711   0.93530   0.00000  Uiso   1.00
C2787  C     0.57995   0.64681   0.73207   0.00000  Uiso   1.00
C2788  C     0.59345   0.60396   0.71098   0.00000  Uiso   1.00
C2789  C     0.55350   0.58018   0.69592   0.00000  Uiso   1.00
C2790  C     0.62367   0.94480   0.74421   0.00000  Uiso   1.00
C2791  C     0.57759   0.93193   0.73527   0.00000  Uiso   1.00
C2792  C     0.55177   0.97004   0.71910   0.00000  Uiso   1.00
C2793  C     0.80754   0.61787   0.92687   0.00000  Uiso   1.00
C2794  C     0.81098   0.66567   0.93785   0.00000  Uiso   1.00
C2795  C     0.69060   0.93946   0.83317   0.00000  Uiso   1.00
C2796  C     0.76790   0.68220   0.95356   0.00000  Uiso   1.00
C2797  C     0.88247   0.54864   0.75031   0.00000  Uiso   1.00
C2798  C     0.92077   0.56106   0.72248   0.00000  Uiso   1.00
C2799  C     0.95263   0.52417   0.71934   0.00000  Uiso   1.00
C2800  C     0.70050   0.85867   0.91334   0.00000  Uiso   1.00
C2801  C     0.68757   0.81157   0.90483   0.00000  Uiso   1.00
C2802  C     0.72391   0.78134   0.91729   0.00000  Uiso   1.00
C2803  C     0.88933   0.93771   0.92140   0.00000  Uiso   1.00
C2804  C     0.88850   0.95669   0.96807   0.00000  Uiso   1.00
C2805  C     0.85457   0.99182   0.97340   0.00000  Uiso   1.00
C2806  C     0.81010   0.55976   0.83353   0.00000  Uiso   1.00
C2807  C     0.72109   0.65197   0.79191   0.00000  Uiso   1.00
C2808  C     0.70751   0.69598   0.81108   0.00000  Uiso   1.00
C2809  C     0.74558   0.72249   0.82615   0.00000  Uiso   1.00
C2810  C     0.60149   0.55479   0.91523   0.00000  Uiso   1.00
C2811  C     0.60983   0.52052   0.95003   0.00000  Uiso   1.00
C2812  C     0.64191   0.98713   0.93518   0.00000  Uiso   1.00
C2813  C     0.82996   0.89680   0.73207   0.00000  Uiso   1.00
C2814  C     0.84347   0.85396   0.71099   0.00000  Uiso   1.00
C2815  C     0.80354   0.83017   0.69591   0.00000  Uiso   1.00
C2816  C     0.99928   0.78739   0.69052   0.00000  Uiso   1.00
Cl2817 Cl    0.50510   0.83660   0.71767   0.00000  Uiso   1.00
Cl2818 Cl    0.52057   0.66610   0.95070   0.00000  Uiso   1.00
Cl2819 Cl    0.98311   0.66438   0.71462   0.00000  Uiso   1.00
Cl2820 Cl    0.96943   0.83272   0.95370   0.00000  Uiso   1.00
Cl2821 Cl    0.75509   0.58660   0.71767   0.00000  Uiso   1.00
Cl2822 Cl    0.77060   0.91611   0.95071   0.00000  Uiso   1.00
Cl2823 Cl    0.73312   0.91437   0.71462   0.00000  Uiso   1.00
Cl2824 Cl    0.71943   0.58272   0.95370   0.00000  Uiso   1.00
H2825  H     0.88625   0.71095   0.71440   0.00000  Uiso   1.00
H2826  H     0.58521   0.92036   0.96433   0.00000  Uiso   1.00
H2827  H     0.57568   0.57640   0.92726   0.00000  Uiso   1.00
H2828  H     0.62207   0.53564   0.98096   0.00000  Uiso   1.00
H2829  H     0.57952   0.50431   0.95587   0.00000  Uiso   1.00
H2830  H     0.63145   0.97241   0.90345   0.00000  Uiso   1.00
H2831  H     0.64595   0.96193   0.96085   0.00000  Uiso   1.00
H2832  H     0.67275   0.50265   0.93079   0.00000  Uiso   1.00
H2833  H     0.81863   0.91798   0.70509   0.00000  Uiso   1.00
H2834  H     0.80309   0.89007   0.75445   0.00000  Uiso   1.00
H2835  H     0.86435   0.85976   0.68231   0.00000  Uiso   1.00
H2836  H     0.86067   0.83322   0.73514   0.00000  Uiso   1.00
H2837  H     0.56976   0.93374   0.90782   0.00000  Uiso   1.00
H2838  H     0.78262   0.82421   0.72451   0.00000  Uiso   1.00
H2839  H     0.81164   0.79901   0.68136   0.00000  Uiso   1.00
H2840  H     0.78580   0.84864   0.67056   0.00000  Uiso   1.00
H2841  H     0.99329   0.92633   0.92780   0.00000  Uiso   1.00
H2842  H     0.51900   0.96716   0.96023   0.00000  Uiso   1.00
H2843  H     0.50862   0.91555   0.98440   0.00000  Uiso   1.00
H2844  H     0.61529   0.77211   0.73327   0.00000  Uiso   1.00
H2845  H     0.64333   0.78516   0.78283   0.00000  Uiso   1.00
H2846  H     0.65994   0.82071   0.68876   0.00000  Uiso   1.00
H2847  H     0.68734   0.83875   0.73788   0.00000  Uiso   1.00
H2848  H     0.72082   0.77183   0.75077   0.00000  Uiso   1.00
H2849  H     0.87529   0.71878   0.77180   0.00000  Uiso   1.00
H2850  H     0.72542   0.78072   0.69269   0.00000  Uiso   1.00
H2851  H     0.68662   0.74314   0.71227   0.00000  Uiso   1.00
H2852  H     0.96287   0.60911   0.94779   0.00000  Uiso   1.00
H2853  H     0.97618   0.61747   0.89017   0.00000  Uiso   1.00
H2854  H     0.91002   0.55327   0.92524   0.00000  Uiso   1.00
H2855  H     0.92942   0.55645   0.86928   0.00000  Uiso   1.00
H2856  H     0.50272   0.53890   0.89825   0.00000  Uiso   1.00
H2857  H     0.96411   0.99763   0.91058   0.00000  Uiso   1.00
H2858  H     0.98168   0.53456   0.95293   0.00000  Uiso   1.00
H2859  H     0.63967   0.71463   0.89707   0.00000  Uiso   1.00
H2860  H     0.82622   0.65562   0.71017   0.00000  Uiso   1.00
H2861  H     0.66952   0.66906   0.91864   0.00000  Uiso   1.00
H2862  H     0.63355   0.68046   0.99224   0.00000  Uiso   1.00
H2863  H     0.67012   0.72079   0.97529   0.00000  Uiso   1.00
H2864  H     0.58323   0.74380   0.94406   0.00000  Uiso   1.00
H2865  H     0.61940   0.77373   0.97813   0.00000  Uiso   1.00
H2866  H     0.58549   0.73537   0.66982   0.00000  Uiso   1.00
H2867  H     0.99531   0.90830   0.76689   0.00000  Uiso   1.00
H2868  H     0.98650   0.88180   0.81793   0.00000  Uiso   1.00
H2869  H     0.93889   0.96388   0.78589   0.00000  Uiso   1.00
H2870  H     0.93706   0.94128   0.84022   0.00000  Uiso   1.00
H2871  H     0.81374   0.67033   0.76644   0.00000  Uiso   1.00
H2872  H     0.50949   0.95907   0.85707   0.00000  Uiso   1.00
H2873  H     0.98534   0.50631   0.83147   0.00000  Uiso   1.00
H2874  H     0.52045   0.97273   0.80098   0.00000  Uiso   1.00
H2875  H     0.84081   0.78837   0.88390   0.00000  Uiso   1.00
H2876  H     0.82561   0.82627   0.92701   0.00000  Uiso   1.00
H2877  H     0.87206   0.78574   0.98092   0.00000  Uiso   1.00
H2878  H     0.82953   0.75433   0.95590   0.00000  Uiso   1.00
H2879  H     0.88153   0.72228   0.90361   0.00000  Uiso   1.00
H2880  H     0.89597   0.71199   0.96105   0.00000  Uiso   1.00
H2881  H     0.92278   0.75264   0.93088   0.00000  Uiso   1.00
H2882  H     0.80538   0.74799   0.74185   0.00000  Uiso   1.00
H2883  H     0.56862   0.66799   0.70509   0.00000  Uiso   1.00
H2884  H     0.55308   0.64007   0.75445   0.00000  Uiso   1.00
H2885  H     0.61431   0.60977   0.68228   0.00000  Uiso   1.00
H2886  H     0.61066   0.58322   0.73511   0.00000  Uiso   1.00
H2887  H     0.53263   0.57417   0.72455   0.00000  Uiso   1.00
H2888  H     0.56159   0.54905   0.68129   0.00000  Uiso   1.00
H2889  H     0.53572   0.59869   0.67062   0.00000  Uiso   1.00
H2890  H     0.63627   0.96096   0.71441   0.00000  Uiso   1.00
H2891  H     0.62531   0.96878   0.77181   0.00000  Uiso   1.00
H2892  H     0.57623   0.90564   0.71018   0.00000  Uiso   1.00
H2893  H     0.76781   0.71119   0.71625   0.00000  Uiso   1.00
H2894  H     0.56374   0.92036   0.76644   0.00000  Uiso   1.00
H2895  H     0.55540   0.99800   0.74186   0.00000  Uiso   1.00
H2896  H     0.51785   0.96122   0.71620   0.00000  Uiso   1.00
H2897  H     0.56338   0.97875   0.68636   0.00000  Uiso   1.00
H2898  H     0.79847   0.60171   0.95779   0.00000  Uiso   1.00
H2899  H     0.78225   0.61396   0.90126   0.00000  Uiso   1.00
H2900  H     0.83520   0.67039   0.96429   0.00000  Uiso   1.00
H2901  H     0.81974   0.68375   0.90778   0.00000  Uiso   1.00
H2902  H     0.74328   0.67633   0.92779   0.00000  Uiso   1.00
H2903  H     0.76899   0.71718   0.96017   0.00000  Uiso   1.00
H2904  H     0.81329   0.72870   0.68634   0.00000  Uiso   1.00
H2905  H     0.75862   0.66559   0.98439   0.00000  Uiso   1.00
H2906  H     0.86528   0.52211   0.73325   0.00000  Uiso   1.00
H2907  H     0.89329   0.53513   0.78284   0.00000  Uiso   1.00
H2908  H     0.90999   0.57071   0.68880   0.00000  Uiso   1.00
H2909  H     0.93735   0.58873   0.73795   0.00000  Uiso   1.00
H2910  H     0.97080   0.52179   0.75084   0.00000  Uiso   1.00
H2911  H     0.97544   0.53068   0.69278   0.00000  Uiso   1.00
H2912  H     0.93662   0.99312   0.71232   0.00000  Uiso   1.00
H2913  H     0.71287   0.85916   0.94779   0.00000  Uiso   1.00
H2914  H     0.72617   0.86751   0.89016   0.00000  Uiso   1.00
H2915  H     0.54848   0.85168   0.95780   0.00000  Uiso   1.00
H2916  H     0.66007   0.80329   0.92531   0.00000  Uiso   1.00
H2917  H     0.67937   0.80647   0.86932   0.00000  Uiso   1.00
H2918  H     0.75271   0.78893   0.89810   0.00000  Uiso   1.00
H2919  H     0.71414   0.74767   0.91061   0.00000  Uiso   1.00
H2920  H     0.73184   0.78466   0.95287   0.00000  Uiso   1.00
H2921  H     0.88968   0.96462   0.89708   0.00000  Uiso   1.00
H2922  H     0.91953   0.91905   0.91866   0.00000  Uiso   1.00
H2923  H     0.88352   0.93047   0.99225   0.00000  Uiso   1.00
H2924  H     0.92011   0.97078   0.97531   0.00000  Uiso   1.00
H2925  H     0.83327   0.99387   0.94403   0.00000  Uiso   1.00
H2926  H     0.53226   0.86396   0.90127   0.00000  Uiso   1.00
H2927  H     0.86943   0.52373   0.97818   0.00000  Uiso   1.00
H2928  H     0.83546   0.98538   0.66978   0.00000  Uiso   1.00
H2929  H     0.74534   0.65824   0.76695   0.00000  Uiso   1.00
H2930  H     0.73644   0.63182   0.81800   0.00000  Uiso   1.00
H2931  H     0.68894   0.71388   0.78578   0.00000  Uiso   1.00
H2932  H     0.68700   0.69136   0.84013   0.00000  Uiso   1.00
H2933  H     0.75938   0.70912   0.85711   0.00000  Uiso   1.00
H2934  H     0.73535   0.75634   0.83137   0.00000  Uiso   1.00
H2935  H     0.77050   0.72266   0.80104   0.00000  Uiso   1.00
H2936  H     0.59063   0.53855   0.88402   0.00000  Uiso   1.00
N2937  N     0.50000   0.75000   0.95240   0.00000  Uiso   1.00
N2938  N     0.50000   0.75000   0.71427   0.00000  Uiso   1.00
N2939  N     0.75000   0.50000   0.95240   0.00000  Uiso   1.00
N2940  N     0.75000   0.50000   0.71427   0.00000  Uiso   1.00
O2941  O     0.54580   0.70419   0.87154   0.00000  Uiso   1.00
O2942  O     0.70419   0.54581   0.79513   0.00000  Uiso   1.00
O2943  O     0.70419   0.54581   0.87154   0.00000  Uiso   1.00
O2944  O     0.79580   0.95419   0.79513   0.00000  Uiso   1.00
O2945  O     0.70419   0.95419   0.79513   0.00000  Uiso   1.00
O2946  O     0.79580   0.54581   0.87154   0.00000  Uiso   1.00
O2947  O     0.79580   0.54581   0.79513   0.00000  Uiso   1.00
O2948  O     0.70419   0.95419   0.87154   0.00000  Uiso   1.00
O2949  O     0.89949   0.65828   0.75264   0.00000  Uiso   1.00
O2950  O     0.59582   0.84770   0.91465   0.00000  Uiso   1.00
O2951  O     0.60406   0.83406   0.75419   0.00000  Uiso   1.00
O2952  O     0.95419   0.79581   0.79513   0.00000  Uiso   1.00
O2953  O     0.91753   0.64007   0.91188   0.00000  Uiso   1.00
O2954  O     0.60384   0.66072   0.91379   0.00000  Uiso   1.00
O2955  O     0.93784   0.87950   0.76962   0.00000  Uiso   1.00
O2956  O     0.88886   0.82848   0.90931   0.00000  Uiso   1.00
O2957  O     0.61259   0.66920   0.75456   0.00000  Uiso   1.00
O2958  O     0.64949   0.90827   0.75264   0.00000  Uiso   1.00
O2959  O     0.84582   0.59771   0.91465   0.00000  Uiso   1.00
O2960  O     0.85406   0.58406   0.75419   0.00000  Uiso   1.00
O2961  O     0.66752   0.89009   0.91189   0.00000  Uiso   1.00
O2962  O     0.85384   0.91072   0.91379   0.00000  Uiso   1.00
O2963  O     0.95419   0.79581   0.87154   0.00000  Uiso   1.00
O2964  O     0.68784   0.62949   0.76963   0.00000  Uiso   1.00
O2965  O     0.63886   0.57848   0.90932   0.00000  Uiso   1.00
O2966  O     0.86259   0.91921   0.75456   0.00000  Uiso   1.00
O2967  O     0.54580   0.70419   0.79513   0.00000  Uiso   1.00
O2968  O     0.95419   0.70419   0.79513   0.00000  Uiso   1.00
O2969  O     0.54580   0.79581   0.87154   0.00000  Uiso   1.00
O2970  O     0.54580   0.79581   0.79513   0.00000  Uiso   1.00
O2971  O     0.95419   0.70419   0.87154   0.00000  Uiso   1.00
O2972  O     0.79580   0.95419   0.87154   0.00000  Uiso   1.00
Zn2973 Zn    0.50000   0.75000   0.88437   0.00000  Uiso   1.00
Zn2974 Zn    0.50000   0.75000   0.78229   0.00000  Uiso   1.00
Zn2975 Zn    0.75000   0.50000   0.88437   0.00000  Uiso   1.00
Zn2976 Zn    0.75000   0.50000   0.78229   0.00000  Uiso   1.00
loop_
_geom_bond_atom_site_label_1
_geom_bond_atom_site_label_2
_geom_bond_distance
_geom_bond_site_symmetry_2
_ccdc_geom_bond_type
C1     O239    1.311   .     A
C1     O213    1.316   .     A
C1     C30     1.473   .     S
C2     Cl90    1.726   .     S
C2     C1243   1.426   1_455 S
C2     N209    1.367   .     S
C3     Cl91    1.746   .     S
C3     C2234   1.426   1_554 S
C3     N458    1.372   .     S
C4     N457    1.379   .     A
C4     Cl92    1.750   .     S
C4     C1080   1.425   .     S
C5     N212    1.366   .     A
C5     Cl93    1.738   .     S
C5     C1992   1.425   1_554 S
C6     N707    1.367   .     A
C6     Cl94    1.726   .     S
C6     C999    1.426   .     S
C7     Cl95    1.746   .     S
C7     C1990   1.426   1_554 S
C7     N708    1.372   .     S
C8     Cl96    1.750   .     S
C8     C997    1.425   .     S
C8     N211    1.379   .     S
C9     C20     1.396   .     A
C9     O221    1.381   .     S
C9     C28     1.408   .     A
C10    C27     1.411   .     A
C10    C21     1.388   .     A
C10    O222    1.379   .     S
C11    C18     1.396   .     A
C11    C27     1.413   .     A
C11    O223    1.383   .     S
C12    C29     1.462   .     S
C12    O224    1.317   .     A
C12    O235    1.304   .     A
C13    O225    1.378   .     S
C13    C19     1.388   .     A
C13    C28     1.410   .     A
C14    C30     1.406   .     A
C14    O226    1.381   .     S
C14    C25     1.394   .     A
C15    C29     1.397   .     A
C15    O227    1.377   .     S
C15    C26     1.387   .     A
C16    C29     1.403   .     A
C16    O228    1.373   .     S
C16    C22     1.394   .     A
C17    C30     1.418   .     A
C17    C24     1.387   .     A
C17    O229    1.378   .     S
C18    O230    1.381   .     S
C18    C32     1.408   .     A
C19    C31     1.411   .     A
C19    O231    1.379   .     S
C20    O232    1.383   .     S
C20    C31     1.413   .     A
C21    O233    1.378   .     S
C21    C32     1.410   .     A
C22    C35     1.406   .     A
C22    O234    1.381   .     S
C23    C28     1.476   .     S
C23    O243    1.312   .     A
C23    O240    1.316   .     A
C24    O236    1.377   .     S
C24    C33     1.397   .     A
C25    O237    1.373   .     S
C25    C33     1.403   .     A
C26    O238    1.378   .     S
C26    C35     1.418   .     A
C27    C34     1.474   .     S
C31    C78     1.474   .     S
C32    C67     1.476   .     S
C33    C56     1.462   .     S
C34    O242    1.312   .     A
C34    O241    1.315   .     A
C35    C45     1.473   .     S
C36    H97     1.111   .     S
C36    H121    1.115   .     S
C36    C37     1.529   .     S
C36    O221    1.412   .     S
C37    C38     1.510   .     S
C37    H143    1.105   .     S
C37    H132    1.111   .     S
C38    H165    1.108   .     S
C38    H176    1.095   .     S
C38    H154    1.109   .     S
C39    H187    1.104   .     S
C39    C40     1.521   .     S
C39    O222    1.407   .     S
C39    H198    1.111   .     S
C40    H109    1.109   .     S
C40    C41     1.528   .     S
C40    H98     1.108   .     S
C41    H114    1.102   .     S
C41    H115    1.110   .     S
C41    H361    1.108   1_455 S
C42    C43     1.532   .     S
C42    H116    1.109   .     S
C42    H117    1.119   .     S
C42    O223    1.418   .     S
C43    C44     1.520   .     S
C43    H118    1.110   .     S
C43    H119    1.106   .     S
C44    H120    1.107   .     S
C44    H123    1.108   .     S
C44    H122    1.104   .     S
C45    O216    1.311   .     A
C45    O244    1.316   .     A
C46    H125    1.113   .     S
C46    H124    1.107   .     S
C46    C47     1.538   .     S
C46    O225    1.420   .     S
C47    C48     1.520   .     S
C47    H126    1.104   .     S
C47    H127    1.111   .     S
C48    H130    1.105   .     S
C48    H376    1.110   .     S
C48    H625    1.107   1_545 S
C49    H131    1.115   .     S
C49    H133    1.114   .     S
C49    C50     1.525   .     S
C49    O226    1.417   .     S
C50    H135    1.110   .     S
C50    H134    1.109   .     S
C50    C51     1.530   .     S
C51    H136    1.108   .     S
C51    H137    1.105   .     S
C51    H1130   1.107   .     S
C52    H139    1.099   .     S
C52    O227    1.423   .     S
C52    C53     1.539   .     S
C52    H140    1.112   .     S
C53    C54     1.523   .     S
C53    H142    1.107   .     S
C53    H141    1.106   .     S
C54    H392    1.108   .     S
C54    H641    1.107   .     S
C54    H394    1.099   .     S
C55    H148    1.114   .     S
C55    H147    1.118   .     S
C55    O228    1.406   .     S
C55    C57     1.518   .     S
C56    O215    1.304   .     A
C56    O214    1.317   .     A
C57    H149    1.110   .     S
C57    H150    1.099   .     S
C57    C58     1.512   .     S
C58    H153    1.098   .     S
C58    H152    1.109   .     S
C58    H151    1.107   .     S
C59    C60     1.530   .     S
C59    H155    1.104   .     S
C59    O229    1.411   .     S
C59    H156    1.111   .     S
C60    H157    1.110   .     S
C60    H158    1.109   .     S
C60    C61     1.527   .     S
C61    H161    1.103   .     S
C61    H159    1.110   .     S
C61    H160    1.089   .     S
C62    H163    1.115   .     S
C62    O230    1.412   .     S
C62    C63     1.529   .     S
C62    H162    1.111   .     S
C63    H166    1.105   .     S
C63    H164    1.111   .     S
C63    C64     1.510   .     S
C64    H167    1.109   .     S
C64    H169    1.095   .     S
C64    H168    1.108   .     S
C65    H171    1.111   .     S
C65    O231    1.407   .     S
C65    C66     1.521   .     S
C65    H170    1.104   .     S
C66    C68     1.528   .     S
C66    H172    1.108   .     S
C66    H173    1.109   .     S
C67    O220    1.312   .     A
C67    O217    1.316   .     A
C68    H177    1.110   .     S
C68    H175    1.102   .     S
C68    H174    1.108   .     S
C69    H178    1.109   .     S
C69    O232    1.418   .     S
C69    C70     1.532   .     S
C69    H179    1.119   .     S
C70    C71     1.520   .     S
C70    H181    1.106   .     S
C70    H180    1.110   .     S
C71    H182    1.107   .     S
C71    H183    1.104   .     S
C71    H680    1.108   1_545 S
C72    O233    1.420   .     S
C72    C73     1.538   .     S
C72    H186    1.113   .     S
C72    H185    1.107   .     S
C73    C74     1.520   .     S
C73    H188    1.104   .     S
C73    H189    1.111   .     S
C74    H190    1.110   .     S
C74    H191    1.107   .     S
C74    H192    1.105   .     S
C75    O234    1.417   .     S
C75    C76     1.525   .     S
C75    H193    1.115   .     S
C75    H194    1.114   .     S
C76    H196    1.110   .     S
C76    H195    1.109   .     S
C76    C77     1.530   .     S
C77    H197    1.108   .     S
C77    H695    1.105   .     S
C77    H1192   1.107   .     S
C78    O219    1.312   .     A
C78    O218    1.315   .     A
C79    C80     1.539   .     S
C79    O236    1.423   .     S
C79    H201    1.099   .     S
C79    H202    1.112   .     S
C80    H204    1.107   .     S
C80    H203    1.106   .     S
C80    C81     1.523   .     S
C81    H205    1.108   .     S
C81    H207    1.099   .     S
C81    H206    1.107   .     S
C82    H99     1.113   .     S
C82    H208    1.118   .     S
C82    O237    1.406   .     S
C82    C83     1.518   .     S
C83    H101    1.099   .     S
C83    H100    1.110   .     S
C83    C580    1.512   1_545 S
C84    H102    1.107   .     S
C84    H103    1.109   .     S
C84    C579    1.512   .     S
C84    H600    1.097   .     S
C85    O238    1.411   .     S
C85    H105    1.104   .     S
C85    C86     1.530   .     S
C85    H106    1.111   .     S
C86    H107    1.110   .     S
C86    C87     1.527   .     S
C86    H108    1.109   .     S
C87    H110    1.110   .     S
C87    H111    1.089   .     S
C87    H112    1.103   .     S
C88    C1988   1.425   1_554 S
C88    Cl337   1.738   .     S
C88    N458    1.366   .     S
Cl89   C336    1.738   1_455 S
H104   C580    1.097   1_545 S
H113   C289    1.108   .     S
H128   C296    1.110   1_455 S
H129   C544    1.107   .     S
H138   C2035   1.107   1_554 S
H144   C302    1.108   1_455 S
H145   C550    1.107   1_545 S
H146   C302    1.099   1_455 S
H184   C567    1.108   .     S
H199   C573    1.105   1_545 S
H200   C2061   1.107   1_554 S
N209   Zn245   2.055   .     S
N209   C252    1.379   1_455 A
N210   Zn246   2.055   .     S
N210   C251    1.372   1_455 S
N210   C336    1.366   1_455 S
N211   Zn247   2.055   .     S
N211   C502    1.367   1_545 A
N212   C503    1.372   1_545 S
N212   Zn248   2.055   .     S
O213   Zn245   2.057   .     S
O214   Zn248   2.057   .     S
O215   Zn247   2.053   .     S
O216   Zn744   2.053   .     S
O217   Zn744   2.073   .     S
O218   Zn247   2.073   .     S
O219   Zn248   2.064   .     S
O220   Zn743   2.064   .     S
O224   Zn494   2.057   .     S
O235   Zn493   2.053   .     S
O239   Zn246   2.053   .     S
O240   Zn494   2.073   .     S
O241   Zn245   2.073   .     S
O242   Zn246   2.064   .     S
O243   Zn493   2.064   .     S
O244   Zn743   2.057   .     S
Zn245  O491    2.064   1_455 S
Zn245  O483    2.053   1_455 S
Zn246  O488    2.073   1_455 S
Zn246  O472    2.057   1_455 S
Zn247  O716    2.064   1_545 S
Zn247  O740    2.057   1_545 S
Zn248  O713    2.073   1_545 S
Zn248  O712    2.053   1_545 S
C249   O487    1.311   .     A
C249   O461    1.316   .     A
C249   C278    1.473   .     S
C250   Cl338   1.726   .     S
C250   C995    1.426   .     S
C250   N457    1.367   .     S
C251   Cl339   1.746   .     S
C251   C1986   1.426   1_654 S
C251   N210    1.372   1_655 S
C252   N209    1.379   1_655 A
C252   Cl340   1.750   .     S
C252   C1328   1.425   .     S
C253   N460    1.366   .     A
C253   Cl341   1.738   .     S
C253   C2240   1.425   1_554 S
C254   N955    1.367   .     A
C254   Cl342   1.726   .     S
C254   C1247   1.426   .     S
C255   Cl343   1.746   .     S
C255   C2238   1.426   1_554 S
C255   N956    1.372   .     S
C256   Cl344   1.750   .     S
C256   C1245   1.425   .     S
C256   N459    1.379   .     S
C257   C268    1.396   .     A
C257   O469    1.381   .     S
C257   C276    1.408   .     A
C258   C275    1.411   .     A
C258   C269    1.388   .     A
C258   O470    1.379   .     S
C259   C266    1.396   .     A
C259   C275    1.413   .     A
C259   O471    1.383   .     S
C260   C277    1.462   .     S
C260   O472    1.317   .     A
C260   O483    1.304   .     A
C261   O473    1.378   .     S
C261   C267    1.388   .     A
C261   C276    1.410   .     A
C262   C278    1.406   .     A
C262   O474    1.381   .     S
C262   C273    1.394   .     A
C263   C277    1.397   .     A
C263   O475    1.377   .     S
C263   C274    1.387   .     A
C264   C277    1.403   .     A
C264   O476    1.373   .     S
C264   C270    1.394   .     A
C265   C278    1.418   .     A
C265   C272    1.387   .     A
C265   O477    1.378   .     S
C266   O478    1.381   .     S
C266   C280    1.408   .     A
C267   C279    1.411   .     A
C267   O479    1.379   .     S
C268   O480    1.383   .     S
C268   C279    1.413   .     A
C269   O481    1.378   .     S
C269   C280    1.410   .     A
C270   C283    1.406   .     A
C270   O482    1.381   .     S
C271   C276    1.476   .     S
C271   O491    1.312   .     A
C271   O488    1.316   .     A
C272   O484    1.377   .     S
C272   C281    1.397   .     A
C273   O485    1.373   .     S
C273   C281    1.403   .     A
C274   O486    1.378   .     S
C274   C283    1.418   .     A
C275   C282    1.474   .     S
C279   C326    1.474   .     S
C280   C315    1.476   .     S
C281   C304    1.462   .     S
C282   O490    1.312   .     A
C282   O489    1.315   .     A
C283   C293    1.473   .     S
C284   H345    1.111   .     S
C284   H369    1.115   .     S
C284   C285    1.529   .     S
C284   O469    1.412   .     S
C285   C286    1.510   .     S
C285   H391    1.105   .     S
C285   H380    1.111   .     S
C286   H413    1.108   .     S
C286   H424    1.095   .     S
C286   H402    1.109   .     S
C287   H435    1.104   .     S
C287   C288    1.521   .     S
C287   O470    1.407   .     S
C287   H446    1.111   .     S
C288   H357    1.109   .     S
C288   C289    1.528   .     S
C288   H346    1.108   .     S
C289   H362    1.102   .     S
C289   H363    1.110   .     S
C290   C291    1.532   .     S
C290   H364    1.109   .     S
C290   H365    1.119   .     S
C290   O471    1.418   .     S
C291   C292    1.520   .     S
C291   H366    1.110   .     S
C291   H367    1.106   .     S
C292   H368    1.107   .     S
C292   H371    1.108   .     S
C292   H370    1.104   .     S
C293   O464    1.311   .     A
C293   O492    1.316   .     A
C294   H373    1.113   .     S
C294   H372    1.107   .     S
C294   C295    1.538   .     S
C294   O473    1.420   .     S
C295   C296    1.520   .     S
C295   H374    1.104   .     S
C295   H375    1.111   .     S
C296   H378    1.105   .     S
C296   H128    1.110   1_655 S
C296   H873    1.107   1_545 S
C297   H379    1.115   .     S
C297   H381    1.114   .     S
C297   C298    1.525   .     S
C297   O474    1.417   .     S
C298   H383    1.110   .     S
C298   H382    1.109   .     S
C298   C299    1.530   .     S
C299   H384    1.108   .     S
C299   H385    1.105   .     S
C299   H1378   1.107   .     S
C300   H387    1.099   .     S
C300   O475    1.423   .     S
C300   C301    1.539   .     S
C300   H388    1.112   .     S
C301   C302    1.523   .     S
C301   H390    1.107   .     S
C301   H389    1.106   .     S
C302   H144    1.108   1_655 S
C302   H889    1.107   .     S
C302   H146    1.099   1_655 S
C303   H396    1.114   .     S
C303   H395    1.118   .     S
C303   O476    1.406   .     S
C303   C305    1.518   .     S
C304   O463    1.304   .     A
C304   O462    1.317   .     A
C305   H397    1.110   .     S
C305   H398    1.099   .     S
C305   C306    1.512   .     S
C306   H401    1.098   .     S
C306   H400    1.109   .     S
C306   H399    1.107   .     S
C307   C308    1.530   .     S
C307   H403    1.104   .     S
C307   O477    1.411   .     S
C307   H404    1.111   .     S
C308   H405    1.110   .     S
C308   H406    1.109   .     S
C308   C309    1.527   .     S
C309   H409    1.103   .     S
C309   H407    1.110   .     S
C309   H408    1.089   .     S
C310   H411    1.115   .     S
C310   O478    1.412   .     S
C310   C311    1.529   .     S
C310   H410    1.111   .     S
C311   H414    1.105   .     S
C311   H412    1.111   .     S
C311   C312    1.510   .     S
C312   H415    1.109   .     S
C312   H417    1.095   .     S
C312   H416    1.108   .     S
C313   H419    1.111   .     S
C313   O479    1.407   .     S
C313   C314    1.521   .     S
C313   H418    1.104   .     S
C314   C316    1.528   .     S
C314   H420    1.108   .     S
C314   H421    1.109   .     S
C315   O468    1.312   .     A
C315   O465    1.316   .     A
C316   H425    1.110   .     S
C316   H423    1.102   .     S
C316   H422    1.108   .     S
C317   H426    1.109   .     S
C317   O480    1.418   .     S
C317   C318    1.532   .     S
C317   H427    1.119   .     S
C318   C319    1.520   .     S
C318   H429    1.106   .     S
C318   H428    1.110   .     S
C319   H430    1.107   .     S
C319   H431    1.104   .     S
C319   H928    1.108   1_545 S
C320   O481    1.420   .     S
C320   C321    1.538   .     S
C320   H434    1.113   .     S
C320   H433    1.107   .     S
C321   C322    1.520   .     S
C321   H436    1.104   .     S
C321   H437    1.111   .     S
C322   H438    1.110   .     S
C322   H439    1.107   .     S
C322   H440    1.105   .     S
C323   O482    1.417   .     S
C323   C324    1.525   .     S
C323   H441    1.115   .     S
C323   H442    1.114   .     S
C324   H444    1.110   .     S
C324   H443    1.109   .     S
C324   C325    1.530   .     S
C325   H445    1.108   .     S
C325   H943    1.105   .     S
C325   H1440   1.107   .     S
C326   O467    1.312   .     A
C326   O466    1.315   .     A
C327   C328    1.539   .     S
C327   O484    1.423   .     S
C327   H449    1.099   .     S
C327   H450    1.112   .     S
C328   H452    1.107   .     S
C328   H451    1.106   .     S
C328   C329    1.523   .     S
C329   H453    1.108   .     S
C329   H455    1.099   .     S
C329   H454    1.107   .     S
C330   H347    1.113   .     S
C330   H456    1.118   .     S
C330   O485    1.406   .     S
C330   C331    1.518   .     S
C331   H349    1.099   .     S
C331   H348    1.110   .     S
C331   C828    1.512   1_545 S
C332   H350    1.107   .     S
C332   H351    1.109   .     S
C332   C827    1.512   .     S
C332   H848    1.097   .     S
C333   O486    1.411   .     S
C333   H353    1.104   .     S
C333   C334    1.530   .     S
C333   H354    1.111   .     S
C334   H355    1.110   .     S
C334   C335    1.527   .     S
C334   H356    1.109   .     S
C335   H358    1.110   .     S
C335   H359    1.089   .     S
C335   H360    1.103   .     S
C336   C2236   1.425   1_554 S
C336   Cl89    1.738   1_655 S
C336   N210    1.366   1_655 S
H352   C828    1.097   1_545 S
H361   C41     1.108   1_655 S
H377   C792    1.107   .     S
H386   C2283   1.107   1_554 S
H393   C798    1.107   1_545 S
H432   C815    1.108   .     S
H447   C821    1.105   1_545 S
H448   C2309   1.107   1_554 S
N457   Zn493   2.055   .     S
N458   Zn494   2.055   .     S
N459   Zn495   2.055   .     S
N459   C750    1.367   1_545 A
N460   C751    1.372   1_545 S
N460   Zn496   2.055   .     S
O461   Zn493   2.057   .     S
O462   Zn496   2.057   .     S
O463   Zn495   2.053   .     S
O464   Zn992   2.053   .     S
O465   Zn992   2.073   .     S
O466   Zn495   2.073   .     S
O467   Zn496   2.064   .     S
O468   Zn991   2.064   .     S
O472   Zn246   2.057   1_655 S
O483   Zn245   2.053   1_655 S
O487   Zn494   2.053   .     S
O488   Zn246   2.073   1_655 S
O489   Zn493   2.073   .     S
O490   Zn494   2.064   .     S
O491   Zn245   2.064   1_655 S
O492   Zn991   2.057   .     S
Zn495  O964    2.064   1_545 S
Zn495  O988    2.057   1_545 S
Zn496  O961    2.073   1_545 S
Zn496  O960    2.053   1_545 S
C497   O735    1.311   .     A
C497   O709    1.316   .     A
C497   C526    1.473   .     S
C498   Cl586   1.726   .     S
C498   C1739   1.426   1_455 S
C498   N705    1.367   .     S
C499   Cl587   1.746   .     S
C499   C2730   1.426   1_554 S
C499   N954    1.372   .     S
C500   N953    1.379   .     A
C500   Cl588   1.750   .     S
C500   C1576   1.425   .     S
C501   N708    1.366   .     A
C501   Cl589   1.738   .     S
C501   C2488   1.425   1_554 S
C502   N211    1.367   1_565 A
C502   Cl590   1.726   .     S
C502   C1495   1.426   .     S
C503   Cl591   1.746   .     S
C503   C2486   1.426   1_554 S
C503   N212    1.372   1_565 S
C504   Cl592   1.750   .     S
C504   C1493   1.425   .     S
C504   N707    1.379   .     S
C505   C516    1.396   .     A
C505   O717    1.381   .     S
C505   C524    1.408   .     A
C506   C523    1.411   .     A
C506   C517    1.388   .     A
C506   O718    1.379   .     S
C507   C514    1.396   .     A
C507   C523    1.413   .     A
C507   O719    1.383   .     S
C508   C525    1.462   .     S
C508   O720    1.317   .     A
C508   O731    1.304   .     A
C509   O721    1.378   .     S
C509   C515    1.388   .     A
C509   C524    1.410   .     A
C510   C526    1.406   .     A
C510   O722    1.381   .     S
C510   C521    1.394   .     A
C511   C525    1.397   .     A
C511   O723    1.377   .     S
C511   C522    1.387   .     A
C512   C525    1.403   .     A
C512   O724    1.373   .     S
C512   C518    1.394   .     A
C513   C526    1.418   .     A
C513   C520    1.387   .     A
C513   O725    1.378   .     S
C514   O726    1.381   .     S
C514   C528    1.408   .     A
C515   C527    1.411   .     A
C515   O727    1.379   .     S
C516   O728    1.383   .     S
C516   C527    1.413   .     A
C517   O729    1.378   .     S
C517   C528    1.410   .     A
C518   C531    1.406   .     A
C518   O730    1.381   .     S
C519   C524    1.476   .     S
C519   O739    1.312   .     A
C519   O736    1.316   .     A
C520   O732    1.377   .     S
C520   C529    1.397   .     A
C521   O733    1.373   .     S
C521   C529    1.403   .     A
C522   O734    1.378   .     S
C522   C531    1.418   .     A
C523   C530    1.474   .     S
C527   C574    1.474   .     S
C528   C563    1.476   .     S
C529   C552    1.462   .     S
C530   O738    1.312   .     A
C530   O737    1.315   .     A
C531   C541    1.473   .     S
C532   H593    1.111   .     S
C532   H617    1.115   .     S
C532   C533    1.529   .     S
C532   O717    1.412   .     S
C533   C534    1.510   .     S
C533   H639    1.105   .     S
C533   H628    1.111   .     S
C534   H661    1.108   .     S
C534   H672    1.095   .     S
C534   H650    1.109   .     S
C535   H683    1.104   .     S
C535   C536    1.521   .     S
C535   O718    1.407   .     S
C535   H694    1.111   .     S
C536   H605    1.109   .     S
C536   C537    1.528   .     S
C536   H594    1.108   .     S
C537   H610    1.102   .     S
C537   H611    1.110   .     S
C537   H857    1.108   1_455 S
C538   C539    1.532   .     S
C538   H612    1.109   .     S
C538   H613    1.119   .     S
C538   O719    1.418   .     S
C539   C540    1.520   .     S
C539   H614    1.110   .     S
C539   H615    1.106   .     S
C540   H616    1.107   .     S
C540   H619    1.108   .     S
C540   H618    1.104   .     S
C541   O712    1.311   .     A
C541   O740    1.316   .     A
C542   H621    1.113   .     S
C542   H620    1.107   .     S
C542   C543    1.538   .     S
C542   O721    1.420   .     S
C543   C544    1.520   .     S
C543   H622    1.104   .     S
C543   H623    1.111   .     S
C544   H626    1.105   .     S
C544   H872    1.110   .     S
C545   H627    1.115   .     S
C545   H629    1.114   .     S
C545   C546    1.525   .     S
C545   O722    1.417   .     S
C546   H631    1.110   .     S
C546   H630    1.109   .     S
C546   C547    1.530   .     S
C547   H632    1.108   .     S
C547   H633    1.105   .     S
C547   H1626   1.107   .     S
C548   H635    1.099   .     S
C548   O723    1.423   .     S
C548   C549    1.539   .     S
C548   H636    1.112   .     S
C549   C550    1.523   .     S
C549   H638    1.107   .     S
C549   H637    1.106   .     S
C550   H888    1.108   .     S
C550   H145    1.107   1_565 S
C550   H890    1.099   .     S
C551   H644    1.114   .     S
C551   H643    1.118   .     S
C551   O724    1.406   .     S
C551   C553    1.518   .     S
C552   O711    1.304   .     A
C552   O710    1.317   .     A
C553   H645    1.110   .     S
C553   H646    1.099   .     S
C553   C554    1.512   .     S
C554   H649    1.098   .     S
C554   H648    1.109   .     S
C554   H647    1.107   .     S
C555   C556    1.530   .     S
C555   H651    1.104   .     S
C555   O725    1.411   .     S
C555   H652    1.111   .     S
C556   H653    1.110   .     S
C556   H654    1.109   .     S
C556   C557    1.527   .     S
C557   H657    1.103   .     S
C557   H655    1.110   .     S
C557   H656    1.089   .     S
C558   H659    1.115   .     S
C558   O726    1.412   .     S
C558   C559    1.529   .     S
C558   H658    1.111   .     S
C559   H662    1.105   .     S
C559   H660    1.111   .     S
C559   C560    1.510   .     S
C560   H663    1.109   .     S
C560   H665    1.095   .     S
C560   H664    1.108   .     S
C561   H667    1.111   .     S
C561   O727    1.407   .     S
C561   C562    1.521   .     S
C561   H666    1.104   .     S
C562   C564    1.528   .     S
C562   H668    1.108   .     S
C562   H669    1.109   .     S
C563   O716    1.312   .     A
C563   O713    1.316   .     A
C564   H673    1.110   .     S
C564   H671    1.102   .     S
C564   H670    1.108   .     S
C565   H674    1.109   .     S
C565   O728    1.418   .     S
C565   C566    1.532   .     S
C565   H675    1.119   .     S
C566   C567    1.520   .     S
C566   H677    1.106   .     S
C566   H676    1.110   .     S
C567   H678    1.107   .     S
C567   H679    1.104   .     S
C568   O729    1.420   .     S
C568   C569    1.538   .     S
C568   H682    1.113   .     S
C568   H681    1.107   .     S
C569   C570    1.520   .     S
C569   H684    1.104   .     S
C569   H685    1.111   .     S
C570   H686    1.110   .     S
C570   H687    1.107   .     S
C570   H688    1.105   .     S
C571   O730    1.417   .     S
C571   C572    1.525   .     S
C571   H689    1.115   .     S
C571   H690    1.114   .     S
C572   H692    1.110   .     S
C572   H691    1.109   .     S
C572   C573    1.530   .     S
C573   H693    1.108   .     S
C573   H199    1.105   1_565 S
C573   H1688   1.107   .     S
C574   O715    1.312   .     A
C574   O714    1.315   .     A
C575   C576    1.539   .     S
C575   O732    1.423   .     S
C575   H697    1.099   .     S
C575   H698    1.112   .     S
C576   H700    1.107   .     S
C576   H699    1.106   .     S
C576   C577    1.523   .     S
C577   H701    1.108   .     S
C577   H703    1.099   .     S
C577   H702    1.107   .     S
C578   H595    1.113   .     S
C578   H704    1.118   .     S
C578   O733    1.406   .     S
C578   C579    1.518   .     S
C579   H597    1.099   .     S
C579   H596    1.110   .     S
C580   H598    1.107   .     S
C580   H599    1.109   .     S
C580   C83     1.512   1_565 S
C580   H104    1.097   1_565 S
C581   O734    1.411   .     S
C581   H601    1.104   .     S
C581   C582    1.530   .     S
C581   H602    1.111   .     S
C582   H603    1.110   .     S
C582   C583    1.527   .     S
C582   H604    1.109   .     S
C583   H606    1.110   .     S
C583   H607    1.089   .     S
C583   H608    1.103   .     S
C584   C2484   1.425   1_554 S
C584   Cl833   1.738   .     S
C584   N954    1.366   .     S
Cl585  C832    1.738   1_455 S
H609   C785    1.108   .     S
H624   C792    1.110   1_455 S
H625   C48     1.107   1_565 S
H634   C2531   1.107   1_554 S
H640   C798    1.108   1_455 S
H642   C798    1.099   1_455 S
H680   C71     1.108   1_565 S
H696   C2557   1.107   1_554 S
N705   Zn741   2.055   .     S
N705   C748    1.379   1_455 A
N706   Zn742   2.055   .     S
N706   C747    1.372   1_455 S
N706   C832    1.366   1_455 S
N707   Zn743   2.055   .     S
N708   Zn744   2.055   .     S
O709   Zn741   2.057   .     S
O710   Zn744   2.057   .     S
O711   Zn743   2.053   .     S
O712   Zn248   2.053   1_565 S
O713   Zn248   2.073   1_565 S
O714   Zn743   2.073   .     S
O715   Zn744   2.064   .     S
O716   Zn247   2.064   1_565 S
O720   Zn990   2.057   .     S
O731   Zn989   2.053   .     S
O735   Zn742   2.053   .     S
O736   Zn990   2.073   .     S
O737   Zn741   2.073   .     S
O738   Zn742   2.064   .     S
O739   Zn989   2.064   .     S
O740   Zn247   2.057   1_565 S
Zn741  O987    2.064   1_455 S
Zn741  O979    2.053   1_455 S
Zn742  O984    2.073   1_455 S
Zn742  O968    2.057   1_455 S
C745   O983    1.311   .     A
C745   O957    1.316   .     A
C745   C774    1.473   .     S
C746   Cl834   1.726   .     S
C746   C1491   1.426   .     S
C746   N953    1.367   .     S
C747   Cl835   1.746   .     S
C747   C2482   1.426   1_654 S
C747   N706    1.372   1_655 S
C748   N705    1.379   1_655 A
C748   Cl836   1.750   .     S
C748   C1824   1.425   .     S
C749   N956    1.366   .     A
C749   Cl837   1.738   .     S
C749   C2736   1.425   1_554 S
C750   N459    1.367   1_565 A
C750   Cl838   1.726   .     S
C750   C1743   1.426   .     S
C751   Cl839   1.746   .     S
C751   C2734   1.426   1_554 S
C751   N460    1.372   1_565 S
C752   Cl840   1.750   .     S
C752   C1741   1.425   .     S
C752   N955    1.379   .     S
C753   C764    1.396   .     A
C753   O965    1.381   .     S
C753   C772    1.408   .     A
C754   C771    1.411   .     A
C754   C765    1.388   .     A
C754   O966    1.379   .     S
C755   C762    1.396   .     A
C755   C771    1.413   .     A
C755   O967    1.383   .     S
C756   C773    1.462   .     S
C756   O968    1.317   .     A
C756   O979    1.304   .     A
C757   O969    1.378   .     S
C757   C763    1.388   .     A
C757   C772    1.410   .     A
C758   C774    1.406   .     A
C758   O970    1.381   .     S
C758   C769    1.394   .     A
C759   C773    1.397   .     A
C759   O971    1.377   .     S
C759   C770    1.387   .     A
C760   C773    1.403   .     A
C760   O972    1.373   .     S
C760   C766    1.394   .     A
C761   C774    1.418   .     A
C761   C768    1.387   .     A
C761   O973    1.378   .     S
C762   O974    1.381   .     S
C762   C776    1.408   .     A
C763   C775    1.411   .     A
C763   O975    1.379   .     S
C764   O976    1.383   .     S
C764   C775    1.413   .     A
C765   O977    1.378   .     S
C765   C776    1.410   .     A
C766   C779    1.406   .     A
C766   O978    1.381   .     S
C767   C772    1.476   .     S
C767   O987    1.312   .     A
C767   O984    1.316   .     A
C768   O980    1.377   .     S
C768   C777    1.397   .     A
C769   O981    1.373   .     S
C769   C777    1.403   .     A
C770   O982    1.378   .     S
C770   C779    1.418   .     A
C771   C778    1.474   .     S
C775   C822    1.474   .     S
C776   C811    1.476   .     S
C777   C800    1.462   .     S
C778   O986    1.312   .     A
C778   O985    1.315   .     A
C779   C789    1.473   .     S
C780   H841    1.111   .     S
C780   H865    1.115   .     S
C780   C781    1.529   .     S
C780   O965    1.412   .     S
C781   C782    1.510   .     S
C781   H887    1.105   .     S
C781   H876    1.111   .     S
C782   H909    1.108   .     S
C782   H920    1.095   .     S
C782   H898    1.109   .     S
C783   H931    1.104   .     S
C783   C784    1.521   .     S
C783   O966    1.407   .     S
C783   H942    1.111   .     S
C784   H853    1.109   .     S
C784   C785    1.528   .     S
C784   H842    1.108   .     S
C785   H858    1.102   .     S
C785   H859    1.110   .     S
C786   C787    1.532   .     S
C786   H860    1.109   .     S
C786   H861    1.119   .     S
C786   O967    1.418   .     S
C787   C788    1.520   .     S
C787   H862    1.110   .     S
C787   H863    1.106   .     S
C788   H864    1.107   .     S
C788   H867    1.108   .     S
C788   H866    1.104   .     S
C789   O960    1.311   .     A
C789   O988    1.316   .     A
C790   H869    1.113   .     S
C790   H868    1.107   .     S
C790   C791    1.538   .     S
C790   O969    1.420   .     S
C791   C792    1.520   .     S
C791   H870    1.104   .     S
C791   H871    1.111   .     S
C792   H874    1.105   .     S
C792   H624    1.110   1_655 S
C793   H875    1.115   .     S
C793   H877    1.114   .     S
C793   C794    1.525   .     S
C793   O970    1.417   .     S
C794   H879    1.110   .     S
C794   H878    1.109   .     S
C794   C795    1.530   .     S
C795   H880    1.108   .     S
C795   H881    1.105   .     S
C795   H1874   1.107   .     S
C796   H883    1.099   .     S
C796   O971    1.423   .     S
C796   C797    1.539   .     S
C796   H884    1.112   .     S
C797   C798    1.523   .     S
C797   H886    1.107   .     S
C797   H885    1.106   .     S
C798   H640    1.108   1_655 S
C798   H393    1.107   1_565 S
C798   H642    1.099   1_655 S
C799   H892    1.114   .     S
C799   H891    1.118   .     S
C799   O972    1.406   .     S
C799   C801    1.518   .     S
C800   O959    1.304   .     A
C800   O958    1.317   .     A
C801   H893    1.110   .     S
C801   H894    1.099   .     S
C801   C802    1.512   .     S
C802   H897    1.098   .     S
C802   H896    1.109   .     S
C802   H895    1.107   .     S
C803   C804    1.530   .     S
C803   H899    1.104   .     S
C803   O973    1.411   .     S
C803   H900    1.111   .     S
C804   H901    1.110   .     S
C804   H902    1.109   .     S
C804   C805    1.527   .     S
C805   H905    1.103   .     S
C805   H903    1.110   .     S
C805   H904    1.089   .     S
C806   H907    1.115   .     S
C806   O974    1.412   .     S
C806   C807    1.529   .     S
C806   H906    1.111   .     S
C807   H910    1.105   .     S
C807   H908    1.111   .     S
C807   C808    1.510   .     S
C808   H911    1.109   .     S
C808   H913    1.095   .     S
C808   H912    1.108   .     S
C809   H915    1.111   .     S
C809   O975    1.407   .     S
C809   C810    1.521   .     S
C809   H914    1.104   .     S
C810   C812    1.528   .     S
C810   H916    1.108   .     S
C810   H917    1.109   .     S
C811   O964    1.312   .     A
C811   O961    1.316   .     A
C812   H921    1.110   .     S
C812   H919    1.102   .     S
C812   H918    1.108   .     S
C813   H922    1.109   .     S
C813   O976    1.418   .     S
C813   C814    1.532   .     S
C813   H923    1.119   .     S
C814   C815    1.520   .     S
C814   H925    1.106   .     S
C814   H924    1.110   .     S
C815   H926    1.107   .     S
C815   H927    1.104   .     S
C816   O977    1.420   .     S
C816   C817    1.538   .     S
C816   H930    1.113   .     S
C816   H929    1.107   .     S
C817   C818    1.520   .     S
C817   H932    1.104   .     S
C817   H933    1.111   .     S
C818   H934    1.110   .     S
C818   H935    1.107   .     S
C818   H936    1.105   .     S
C819   O978    1.417   .     S
C819   C820    1.525   .     S
C819   H937    1.115   .     S
C819   H938    1.114   .     S
C820   H940    1.110   .     S
C820   H939    1.109   .     S
C820   C821    1.530   .     S
C821   H941    1.108   .     S
C821   H447    1.105   1_565 S
C821   H1936   1.107   .     S
C822   O963    1.312   .     A
C822   O962    1.315   .     A
C823   C824    1.539   .     S
C823   O980    1.423   .     S
C823   H945    1.099   .     S
C823   H946    1.112   .     S
C824   H948    1.107   .     S
C824   H947    1.106   .     S
C824   C825    1.523   .     S
C825   H949    1.108   .     S
C825   H951    1.099   .     S
C825   H950    1.107   .     S
C826   H843    1.113   .     S
C826   H952    1.118   .     S
C826   O981    1.406   .     S
C826   C827    1.518   .     S
C827   H845    1.099   .     S
C827   H844    1.110   .     S
C828   H846    1.107   .     S
C828   H847    1.109   .     S
C828   C331    1.512   1_565 S
C828   H352    1.097   1_565 S
C829   O982    1.411   .     S
C829   H849    1.104   .     S
C829   C830    1.530   .     S
C829   H850    1.111   .     S
C830   H851    1.110   .     S
C830   C831    1.527   .     S
C830   H852    1.109   .     S
C831   H854    1.110   .     S
C831   H855    1.089   .     S
C831   H856    1.103   .     S
C832   C2732   1.425   1_554 S
C832   Cl585   1.738   1_655 S
C832   N706    1.366   1_655 S
H857   C537    1.108   1_655 S
H873   C296    1.107   1_565 S
H882   C2779   1.107   1_554 S
H928   C319    1.108   1_565 S
H944   C2805   1.107   1_554 S
N953   Zn989   2.055   .     S
N954   Zn990   2.055   .     S
N955   Zn991   2.055   .     S
N956   Zn992   2.055   .     S
O957   Zn989   2.057   .     S
O958   Zn992   2.057   .     S
O959   Zn991   2.053   .     S
O960   Zn496   2.053   1_565 S
O961   Zn496   2.073   1_565 S
O962   Zn991   2.073   .     S
O963   Zn992   2.064   .     S
O964   Zn495   2.064   1_565 S
O968   Zn742   2.057   1_655 S
O979   Zn741   2.053   1_655 S
O983   Zn990   2.053   .     S
O984   Zn742   2.073   1_655 S
O985   Zn989   2.073   .     S
O986   Zn990   2.064   .     S
O987   Zn741   2.064   1_655 S
O988   Zn495   2.057   1_565 S
C993   O1231   1.311   .     A
C993   O1205   1.316   .     A
C993   C1022   1.473   .     S
C994   Cl1082  1.726   .     S
C994   C2235   1.426   1_455 S
C994   N1201   1.367   .     S
C995   Cl1083  1.746   .     S
C995   N1450   1.372   .     S
C996   N1449   1.379   .     A
C996   Cl1084  1.750   .     S
C996   C2072   1.425   .     S
C997   N1204   1.366   .     A
C997   Cl1085  1.738   .     S
C998   N1699   1.367   .     A
C998   Cl1086  1.726   .     S
C998   C1991   1.426   .     S
C999   Cl1087  1.746   .     S
C999   N1700   1.372   .     S
C1000  Cl1088  1.750   .     S
C1000  C1989   1.425   .     S
C1000  N1203   1.379   .     S
C1001  C1012   1.396   .     A
C1001  O1213   1.381   .     S
C1001  C1020   1.408   .     A
C1002  C1019   1.411   .     A
C1002  C1013   1.388   .     A
C1002  O1214   1.379   .     S
C1003  C1010   1.396   .     A
C1003  C1019   1.413   .     A
C1003  O1215   1.383   .     S
C1004  C1021   1.462   .     S
C1004  O1216   1.317   .     A
C1004  O1227   1.304   .     A
C1005  O1217   1.378   .     S
C1005  C1011   1.388   .     A
C1005  C1020   1.410   .     A
C1006  C1022   1.406   .     A
C1006  O1218   1.381   .     S
C1006  C1017   1.394   .     A
C1007  C1021   1.397   .     A
C1007  O1219   1.377   .     S
C1007  C1018   1.387   .     A
C1008  C1021   1.403   .     A
C1008  O1220   1.373   .     S
C1008  C1014   1.394   .     A
C1009  C1022   1.418   .     A
C1009  C1016   1.387   .     A
C1009  O1221   1.378   .     S
C1010  O1222   1.381   .     S
C1010  C1024   1.408   .     A
C1011  C1023   1.411   .     A
C1011  O1223   1.379   .     S
C1012  O1224   1.383   .     S
C1012  C1023   1.413   .     A
C1013  O1225   1.378   .     S
C1013  C1024   1.410   .     A
C1014  C1027   1.406   .     A
C1014  O1226   1.381   .     S
C1015  C1020   1.476   .     S
C1015  O1235   1.312   .     A
C1015  O1232   1.316   .     A
C1016  O1228   1.377   .     S
C1016  C1025   1.397   .     A
C1017  O1229   1.373   .     S
C1017  C1025   1.403   .     A
C1018  O1230   1.378   .     S
C1018  C1027   1.418   .     A
C1019  C1026   1.474   .     S
C1023  C1070   1.474   .     S
C1024  C1059   1.476   .     S
C1025  C1048   1.462   .     S
C1026  O1234   1.312   .     A
C1026  O1233   1.315   .     A
C1027  C1037   1.473   .     S
C1028  H1089   1.111   .     S
C1028  H1113   1.115   .     S
C1028  C1029   1.529   .     S
C1028  O1213   1.412   .     S
C1029  C1030   1.510   .     S
C1029  H1135   1.105   .     S
C1029  H1124   1.111   .     S
C1030  H1157   1.108   .     S
C1030  H1168   1.095   .     S
C1030  H1146   1.109   .     S
C1031  H1179   1.104   .     S
C1031  C1032   1.521   .     S
C1031  O1214   1.407   .     S
C1031  H1190   1.111   .     S
C1032  H1101   1.109   .     S
C1032  C1033   1.528   .     S
C1032  H1090   1.108   .     S
C1033  H1106   1.102   .     S
C1033  H1107   1.110   .     S
C1033  H1353   1.108   1_455 S
C1034  C1035   1.532   .     S
C1034  H1108   1.109   .     S
C1034  H1109   1.119   .     S
C1034  O1215   1.418   .     S
C1035  C1036   1.520   .     S
C1035  H1110   1.110   .     S
C1035  H1111   1.106   .     S
C1036  H1112   1.107   .     S
C1036  H1115   1.108   .     S
C1036  H1114   1.104   .     S
C1037  O1208   1.311   .     A
C1037  O1236   1.316   .     A
C1038  H1117   1.113   .     S
C1038  H1116   1.107   .     S
C1038  C1039   1.538   .     S
C1038  O1217   1.420   .     S
C1039  C1040   1.520   .     S
C1039  H1118   1.104   .     S
C1039  H1119   1.111   .     S
C1040  H1122   1.105   .     S
C1040  H1368   1.110   .     S
C1040  H1617   1.107   1_545 S
C1041  H1123   1.115   .     S
C1041  H1125   1.114   .     S
C1041  C1042   1.525   .     S
C1041  O1218   1.417   .     S
C1042  H1127   1.110   .     S
C1042  H1126   1.109   .     S
C1042  C1043   1.530   .     S
C1043  H1128   1.108   .     S
C1043  H1129   1.105   .     S
C1043  H2122   1.107   .     S
C1044  H1131   1.099   .     S
C1044  O1219   1.423   .     S
C1044  C1045   1.539   .     S
C1044  H1132   1.112   .     S
C1045  C1046   1.523   .     S
C1045  H1134   1.107   .     S
C1045  H1133   1.106   .     S
C1046  H1384   1.108   .     S
C1046  H1633   1.107   .     S
C1046  H1386   1.099   .     S
C1047  H1140   1.114   .     S
C1047  H1139   1.118   .     S
C1047  O1220   1.406   .     S
C1047  C1049   1.518   .     S
C1048  O1207   1.304   .     A
C1048  O1206   1.317   .     A
C1049  H1141   1.110   .     S
C1049  H1142   1.099   .     S
C1049  C1050   1.512   .     S
C1050  H1145   1.098   .     S
C1050  H1144   1.109   .     S
C1050  H1143   1.107   .     S
C1051  C1052   1.530   .     S
C1051  H1147   1.104   .     S
C1051  O1221   1.411   .     S
C1051  H1148   1.111   .     S
C1052  H1149   1.110   .     S
C1052  H1150   1.109   .     S
C1052  C1053   1.527   .     S
C1053  H1153   1.103   .     S
C1053  H1151   1.110   .     S
C1053  H1152   1.089   .     S
C1054  H1155   1.115   .     S
C1054  O1222   1.412   .     S
C1054  C1055   1.529   .     S
C1054  H1154   1.111   .     S
C1055  H1158   1.105   .     S
C1055  H1156   1.111   .     S
C1055  C1056   1.510   .     S
C1056  H1159   1.109   .     S
C1056  H1161   1.095   .     S
C1056  H1160   1.108   .     S
C1057  H1163   1.111   .     S
C1057  O1223   1.407   .     S
C1057  C1058   1.521   .     S
C1057  H1162   1.104   .     S
C1058  C1060   1.528   .     S
C1058  H1164   1.108   .     S
C1058  H1165   1.109   .     S
C1059  O1212   1.312   .     A
C1059  O1209   1.316   .     A
C1060  H1169   1.110   .     S
C1060  H1167   1.102   .     S
C1060  H1166   1.108   .     S
C1061  H1170   1.109   .     S
C1061  O1224   1.418   .     S
C1061  C1062   1.532   .     S
C1061  H1171   1.119   .     S
C1062  C1063   1.520   .     S
C1062  H1173   1.106   .     S
C1062  H1172   1.110   .     S
C1063  H1174   1.107   .     S
C1063  H1175   1.104   .     S
C1063  H1672   1.108   1_545 S
C1064  O1225   1.420   .     S
C1064  C1065   1.538   .     S
C1064  H1178   1.113   .     S
C1064  H1177   1.107   .     S
C1065  C1066   1.520   .     S
C1065  H1180   1.104   .     S
C1065  H1181   1.111   .     S
C1066  H1182   1.110   .     S
C1066  H1183   1.107   .     S
C1066  H1184   1.105   .     S
C1067  O1226   1.417   .     S
C1067  C1068   1.525   .     S
C1067  H1185   1.115   .     S
C1067  H1186   1.114   .     S
C1068  H1188   1.110   .     S
C1068  H1187   1.109   .     S
C1068  C1069   1.530   .     S
C1069  H1189   1.108   .     S
C1069  H1687   1.105   .     S
C1069  H2184   1.107   .     S
C1070  O1211   1.312   .     A
C1070  O1210   1.315   .     A
C1071  C1072   1.539   .     S
C1071  O1228   1.423   .     S
C1071  H1193   1.099   .     S
C1071  H1194   1.112   .     S
C1072  H1196   1.107   .     S
C1072  H1195   1.106   .     S
C1072  C1073   1.523   .     S
C1073  H1197   1.108   .     S
C1073  H1199   1.099   .     S
C1073  H1198   1.107   .     S
C1074  H1091   1.113   .     S
C1074  H1200   1.118   .     S
C1074  O1229   1.406   .     S
C1074  C1075   1.518   .     S
C1075  H1093   1.099   .     S
C1075  H1092   1.110   .     S
C1075  C1572   1.512   1_545 S
C1076  H1094   1.107   .     S
C1076  H1095   1.109   .     S
C1076  C1571   1.512   .     S
C1076  H1592   1.097   .     S
C1077  O1230   1.411   .     S
C1077  H1097   1.104   .     S
C1077  C1078   1.530   .     S
C1077  H1098   1.111   .     S
C1078  H1099   1.110   .     S
C1078  C1079   1.527   .     S
C1078  H1100   1.109   .     S
C1079  H1102   1.110   .     S
C1079  H1103   1.089   .     S
C1079  H1104   1.103   .     S
C1080  Cl1329  1.738   .     S
C1080  N1450   1.366   .     S
Cl1081 C1328   1.738   1_455 S
H1096  C1572   1.097   1_545 S
H1105  C1281   1.108   .     S
H1120  C1288   1.110   1_455 S
H1121  C1536   1.107   .     S
H1136  C1294   1.108   1_455 S
H1137  C1542   1.107   1_545 S
H1138  C1294   1.099   1_455 S
H1176  C1559   1.108   .     S
H1191  C1565   1.105   1_545 S
N1201  Zn1237  2.055   .     S
N1201  C1244   1.379   1_455 A
N1202  Zn1238  2.055   .     S
N1202  C1243   1.372   1_455 S
N1202  C1328   1.366   1_455 S
N1203  Zn1239  2.055   .     S
N1203  C1494   1.367   1_545 A
N1204  C1495   1.372   1_545 S
N1204  Zn1240  2.055   .     S
O1205  Zn1237  2.057   .     S
O1206  Zn1240  2.057   .     S
O1207  Zn1239  2.053   .     S
O1208  Zn1736  2.053   .     S
O1209  Zn1736  2.073   .     S
O1210  Zn1239  2.073   .     S
O1211  Zn1240  2.064   .     S
O1212  Zn1735  2.064   .     S
O1216  Zn1486  2.057   .     S
O1227  Zn1485  2.053   .     S
O1231  Zn1238  2.053   .     S
O1232  Zn1486  2.073   .     S
O1233  Zn1237  2.073   .     S
O1234  Zn1238  2.064   .     S
O1235  Zn1485  2.064   .     S
O1236  Zn1735  2.057   .     S
Zn1237 O1483   2.064   1_455 S
Zn1237 O1475   2.053   1_455 S
Zn1238 O1480   2.073   1_455 S
Zn1238 O1464   2.057   1_455 S
Zn1239 O1708   2.064   1_545 S
Zn1239 O1732   2.057   1_545 S
Zn1240 O1705   2.073   1_545 S
Zn1240 O1704   2.053   1_545 S
C1241  O1479   1.311   .     A
C1241  O1453   1.316   .     A
C1241  C1270   1.473   .     S
C1242  Cl1330  1.726   .     S
C1242  C1987   1.426   .     S
C1242  N1449   1.367   .     S
C1243  Cl1331  1.746   .     S
C1243  C2      1.426   1_655 S
C1243  N1202   1.372   1_655 S
C1244  N1201   1.379   1_655 A
C1244  Cl1332  1.750   .     S
C1244  C2320   1.425   .     S
C1245  N1452   1.366   .     A
C1245  Cl1333  1.738   .     S
C1246  N1947   1.367   .     A
C1246  Cl1334  1.726   .     S
C1246  C2239   1.426   .     S
C1247  Cl1335  1.746   .     S
C1247  N1948   1.372   .     S
C1248  Cl1336  1.750   .     S
C1248  C2237   1.425   .     S
C1248  N1451   1.379   .     S
C1249  C1260   1.396   .     A
C1249  O1461   1.381   .     S
C1249  C1268   1.408   .     A
C1250  C1267   1.411   .     A
C1250  C1261   1.388   .     A
C1250  O1462   1.379   .     S
C1251  C1258   1.396   .     A
C1251  C1267   1.413   .     A
C1251  O1463   1.383   .     S
C1252  C1269   1.462   .     S
C1252  O1464   1.317   .     A
C1252  O1475   1.304   .     A
C1253  O1465   1.378   .     S
C1253  C1259   1.388   .     A
C1253  C1268   1.410   .     A
C1254  C1270   1.406   .     A
C1254  O1466   1.381   .     S
C1254  C1265   1.394   .     A
C1255  C1269   1.397   .     A
C1255  O1467   1.377   .     S
C1255  C1266   1.387   .     A
C1256  C1269   1.403   .     A
C1256  O1468   1.373   .     S
C1256  C1262   1.394   .     A
C1257  C1270   1.418   .     A
C1257  C1264   1.387   .     A
C1257  O1469   1.378   .     S
C1258  O1470   1.381   .     S
C1258  C1272   1.408   .     A
C1259  C1271   1.411   .     A
C1259  O1471   1.379   .     S
C1260  O1472   1.383   .     S
C1260  C1271   1.413   .     A
C1261  O1473   1.378   .     S
C1261  C1272   1.410   .     A
C1262  C1275   1.406   .     A
C1262  O1474   1.381   .     S
C1263  C1268   1.476   .     S
C1263  O1483   1.312   .     A
C1263  O1480   1.316   .     A
C1264  O1476   1.377   .     S
C1264  C1273   1.397   .     A
C1265  O1477   1.373   .     S
C1265  C1273   1.403   .     A
C1266  O1478   1.378   .     S
C1266  C1275   1.418   .     A
C1267  C1274   1.474   .     S
C1271  C1318   1.474   .     S
C1272  C1307   1.476   .     S
C1273  C1296   1.462   .     S
C1274  O1482   1.312   .     A
C1274  O1481   1.315   .     A
C1275  C1285   1.473   .     S
C1276  H1337   1.111   .     S
C1276  H1361   1.115   .     S
C1276  C1277   1.529   .     S
C1276  O1461   1.412   .     S
C1277  C1278   1.510   .     S
C1277  H1383   1.105   .     S
C1277  H1372   1.111   .     S
C1278  H1405   1.108   .     S
C1278  H1416   1.095   .     S
C1278  H1394   1.109   .     S
C1279  H1427   1.104   .     S
C1279  C1280   1.521   .     S
C1279  O1462   1.407   .     S
C1279  H1438   1.111   .     S
C1280  H1349   1.109   .     S
C1280  C1281   1.528   .     S
C1280  H1338   1.108   .     S
C1281  H1354   1.102   .     S
C1281  H1355   1.110   .     S
C1282  C1283   1.532   .     S
C1282  H1356   1.109   .     S
C1282  H1357   1.119   .     S
C1282  O1463   1.418   .     S
C1283  C1284   1.520   .     S
C1283  H1358   1.110   .     S
C1283  H1359   1.106   .     S
C1284  H1360   1.107   .     S
C1284  H1363   1.108   .     S
C1284  H1362   1.104   .     S
C1285  O1456   1.311   .     A
C1285  O1484   1.316   .     A
C1286  H1365   1.113   .     S
C1286  H1364   1.107   .     S
C1286  C1287   1.538   .     S
C1286  O1465   1.420   .     S
C1287  C1288   1.520   .     S
C1287  H1366   1.104   .     S
C1287  H1367   1.111   .     S
C1288  H1370   1.105   .     S
C1288  H1120   1.110   1_655 S
C1288  H1865   1.107   1_545 S
C1289  H1371   1.115   .     S
C1289  H1373   1.114   .     S
C1289  C1290   1.525   .     S
C1289  O1466   1.417   .     S
C1290  H1375   1.110   .     S
C1290  H1374   1.109   .     S
C1290  C1291   1.530   .     S
C1291  H1376   1.108   .     S
C1291  H1377   1.105   .     S
C1291  H2370   1.107   .     S
C1292  H1379   1.099   .     S
C1292  O1467   1.423   .     S
C1292  C1293   1.539   .     S
C1292  H1380   1.112   .     S
C1293  C1294   1.523   .     S
C1293  H1382   1.107   .     S
C1293  H1381   1.106   .     S
C1294  H1136   1.108   1_655 S
C1294  H1881   1.107   .     S
C1294  H1138   1.099   1_655 S
C1295  H1388   1.114   .     S
C1295  H1387   1.118   .     S
C1295  O1468   1.406   .     S
C1295  C1297   1.518   .     S
C1296  O1455   1.304   .     A
C1296  O1454   1.317   .     A
C1297  H1389   1.110   .     S
C1297  H1390   1.099   .     S
C1297  C1298   1.512   .     S
C1298  H1393   1.098   .     S
C1298  H1392   1.109   .     S
C1298  H1391   1.107   .     S
C1299  C1300   1.530   .     S
C1299  H1395   1.104   .     S
C1299  O1469   1.411   .     S
C1299  H1396   1.111   .     S
C1300  H1397   1.110   .     S
C1300  H1398   1.109   .     S
C1300  C1301   1.527   .     S
C1301  H1401   1.103   .     S
C1301  H1399   1.110   .     S
C1301  H1400   1.089   .     S
C1302  H1403   1.115   .     S
C1302  O1470   1.412   .     S
C1302  C1303   1.529   .     S
C1302  H1402   1.111   .     S
C1303  H1406   1.105   .     S
C1303  H1404   1.111   .     S
C1303  C1304   1.510   .     S
C1304  H1407   1.109   .     S
C1304  H1409   1.095   .     S
C1304  H1408   1.108   .     S
C1305  H1411   1.111   .     S
C1305  O1471   1.407   .     S
C1305  C1306   1.521   .     S
C1305  H1410   1.104   .     S
C1306  C1308   1.528   .     S
C1306  H1412   1.108   .     S
C1306  H1413   1.109   .     S
C1307  O1460   1.312   .     A
C1307  O1457   1.316   .     A
C1308  H1417   1.110   .     S
C1308  H1415   1.102   .     S
C1308  H1414   1.108   .     S
C1309  H1418   1.109   .     S
C1309  O1472   1.418   .     S
C1309  C1310   1.532   .     S
C1309  H1419   1.119   .     S
C1310  C1311   1.520   .     S
C1310  H1421   1.106   .     S
C1310  H1420   1.110   .     S
C1311  H1422   1.107   .     S
C1311  H1423   1.104   .     S
C1311  H1920   1.108   1_545 S
C1312  O1473   1.420   .     S
C1312  C1313   1.538   .     S
C1312  H1426   1.113   .     S
C1312  H1425   1.107   .     S
C1313  C1314   1.520   .     S
C1313  H1428   1.104   .     S
C1313  H1429   1.111   .     S
C1314  H1430   1.110   .     S
C1314  H1431   1.107   .     S
C1314  H1432   1.105   .     S
C1315  O1474   1.417   .     S
C1315  C1316   1.525   .     S
C1315  H1433   1.115   .     S
C1315  H1434   1.114   .     S
C1316  H1436   1.110   .     S
C1316  H1435   1.109   .     S
C1316  C1317   1.530   .     S
C1317  H1437   1.108   .     S
C1317  H1935   1.105   .     S
C1317  H2432   1.107   .     S
C1318  O1459   1.312   .     A
C1318  O1458   1.315   .     A
C1319  C1320   1.539   .     S
C1319  O1476   1.423   .     S
C1319  H1441   1.099   .     S
C1319  H1442   1.112   .     S
C1320  H1444   1.107   .     S
C1320  H1443   1.106   .     S
C1320  C1321   1.523   .     S
C1321  H1445   1.108   .     S
C1321  H1447   1.099   .     S
C1321  H1446   1.107   .     S
C1322  H1339   1.113   .     S
C1322  H1448   1.118   .     S
C1322  O1477   1.406   .     S
C1322  C1323   1.518   .     S
C1323  H1341   1.099   .     S
C1323  H1340   1.110   .     S
C1323  C1820   1.512   1_545 S
C1324  H1342   1.107   .     S
C1324  H1343   1.109   .     S
C1324  C1819   1.512   .     S
C1324  H1840   1.097   .     S
C1325  O1478   1.411   .     S
C1325  H1345   1.104   .     S
C1325  C1326   1.530   .     S
C1325  H1346   1.111   .     S
C1326  H1347   1.110   .     S
C1326  C1327   1.527   .     S
C1326  H1348   1.109   .     S
C1327  H1350   1.110   .     S
C1327  H1351   1.089   .     S
C1327  H1352   1.103   .     S
C1328  Cl1081  1.738   1_655 S
C1328  N1202   1.366   1_655 S
H1344  C1820   1.097   1_545 S
H1353  C1033   1.108   1_655 S
H1369  C1784   1.107   .     S
H1385  C1790   1.107   1_545 S
H1424  C1807   1.108   .     S
H1439  C1813   1.105   1_545 S
N1449  Zn1485  2.055   .     S
N1450  Zn1486  2.055   .     S
N1451  Zn1487  2.055   .     S
N1451  C1742   1.367   1_545 A
N1452  C1743   1.372   1_545 S
N1452  Zn1488  2.055   .     S
O1453  Zn1485  2.057   .     S
O1454  Zn1488  2.057   .     S
O1455  Zn1487  2.053   .     S
O1456  Zn1984  2.053   .     S
O1457  Zn1984  2.073   .     S
O1458  Zn1487  2.073   .     S
O1459  Zn1488  2.064   .     S
O1460  Zn1983  2.064   .     S
O1464  Zn1238  2.057   1_655 S
O1475  Zn1237  2.053   1_655 S
O1479  Zn1486  2.053   .     S
O1480  Zn1238  2.073   1_655 S
O1481  Zn1485  2.073   .     S
O1482  Zn1486  2.064   .     S
O1483  Zn1237  2.064   1_655 S
O1484  Zn1983  2.057   .     S
Zn1487 O1956   2.064   1_545 S
Zn1487 O1980   2.057   1_545 S
Zn1488 O1953   2.073   1_545 S
Zn1488 O1952   2.053   1_545 S
C1489  O1727   1.311   .     A
C1489  O1701   1.316   .     A
C1489  C1518   1.473   .     S
C1490  Cl1578  1.726   .     S
C1490  C2731   1.426   1_455 S
C1490  N1697   1.367   .     S
C1491  Cl1579  1.746   .     S
C1491  N1946   1.372   .     S
C1492  N1945   1.379   .     A
C1492  Cl1580  1.750   .     S
C1492  C2568   1.425   .     S
C1493  N1700   1.366   .     A
C1493  Cl1581  1.738   .     S
C1494  N1203   1.367   1_565 A
C1494  Cl1582  1.726   .     S
C1494  C2487   1.426   .     S
C1495  Cl1583  1.746   .     S
C1495  N1204   1.372   1_565 S
C1496  Cl1584  1.750   .     S
C1496  C2485   1.425   .     S
C1496  N1699   1.379   .     S
C1497  C1508   1.396   .     A
C1497  O1709   1.381   .     S
C1497  C1516   1.408   .     A
C1498  C1515   1.411   .     A
C1498  C1509   1.388   .     A
C1498  O1710   1.379   .     S
C1499  C1506   1.396   .     A
C1499  C1515   1.413   .     A
C1499  O1711   1.383   .     S
C1500  C1517   1.462   .     S
C1500  O1712   1.317   .     A
C1500  O1723   1.304   .     A
C1501  O1713   1.378   .     S
C1501  C1507   1.388   .     A
C1501  C1516   1.410   .     A
C1502  C1518   1.406   .     A
C1502  O1714   1.381   .     S
C1502  C1513   1.394   .     A
C1503  C1517   1.397   .     A
C1503  O1715   1.377   .     S
C1503  C1514   1.387   .     A
C1504  C1517   1.403   .     A
C1504  O1716   1.373   .     S
C1504  C1510   1.394   .     A
C1505  C1518   1.418   .     A
C1505  C1512   1.387   .     A
C1505  O1717   1.378   .     S
C1506  O1718   1.381   .     S
C1506  C1520   1.408   .     A
C1507  C1519   1.411   .     A
C1507  O1719   1.379   .     S
C1508  O1720   1.383   .     S
C1508  C1519   1.413   .     A
C1509  O1721   1.378   .     S
C1509  C1520   1.410   .     A
C1510  C1523   1.406   .     A
C1510  O1722   1.381   .     S
C1511  C1516   1.476   .     S
C1511  O1731   1.312   .     A
C1511  O1728   1.316   .     A
C1512  O1724   1.377   .     S
C1512  C1521   1.397   .     A
C1513  O1725   1.373   .     S
C1513  C1521   1.403   .     A
C1514  O1726   1.378   .     S
C1514  C1523   1.418   .     A
C1515  C1522   1.474   .     S
C1519  C1566   1.474   .     S
C1520  C1555   1.476   .     S
C1521  C1544   1.462   .     S
C1522  O1730   1.312   .     A
C1522  O1729   1.315   .     A
C1523  C1533   1.473   .     S
C1524  H1585   1.111   .     S
C1524  H1609   1.115   .     S
C1524  C1525   1.529   .     S
C1524  O1709   1.412   .     S
C1525  C1526   1.510   .     S
C1525  H1631   1.105   .     S
C1525  H1620   1.111   .     S
C1526  H1653   1.108   .     S
C1526  H1664   1.095   .     S
C1526  H1642   1.109   .     S
C1527  H1675   1.104   .     S
C1527  C1528   1.521   .     S
C1527  O1710   1.407   .     S
C1527  H1686   1.111   .     S
C1528  H1597   1.109   .     S
C1528  C1529   1.528   .     S
C1528  H1586   1.108   .     S
C1529  H1602   1.102   .     S
C1529  H1603   1.110   .     S
C1529  H1849   1.108   1_455 S
C1530  C1531   1.532   .     S
C1530  H1604   1.109   .     S
C1530  H1605   1.119   .     S
C1530  O1711   1.418   .     S
C1531  C1532   1.520   .     S
C1531  H1606   1.110   .     S
C1531  H1607   1.106   .     S
C1532  H1608   1.107   .     S
C1532  H1611   1.108   .     S
C1532  H1610   1.104   .     S
C1533  O1704   1.311   .     A
C1533  O1732   1.316   .     A
C1534  H1613   1.113   .     S
C1534  H1612   1.107   .     S
C1534  C1535   1.538   .     S
C1534  O1713   1.420   .     S
C1535  C1536   1.520   .     S
C1535  H1614   1.104   .     S
C1535  H1615   1.111   .     S
C1536  H1618   1.105   .     S
C1536  H1864   1.110   .     S
C1537  H1619   1.115   .     S
C1537  H1621   1.114   .     S
C1537  C1538   1.525   .     S
C1537  O1714   1.417   .     S
C1538  H1623   1.110   .     S
C1538  H1622   1.109   .     S
C1538  C1539   1.530   .     S
C1539  H1624   1.108   .     S
C1539  H1625   1.105   .     S
C1539  H2618   1.107   .     S
C1540  H1627   1.099   .     S
C1540  O1715   1.423   .     S
C1540  C1541   1.539   .     S
C1540  H1628   1.112   .     S
C1541  C1542   1.523   .     S
C1541  H1630   1.107   .     S
C1541  H1629   1.106   .     S
C1542  H1880   1.108   .     S
C1542  H1137   1.107   1_565 S
C1542  H1882   1.099   .     S
C1543  H1636   1.114   .     S
C1543  H1635   1.118   .     S
C1543  O1716   1.406   .     S
C1543  C1545   1.518   .     S
C1544  O1703   1.304   .     A
C1544  O1702   1.317   .     A
C1545  H1637   1.110   .     S
C1545  H1638   1.099   .     S
C1545  C1546   1.512   .     S
C1546  H1641   1.098   .     S
C1546  H1640   1.109   .     S
C1546  H1639   1.107   .     S
C1547  C1548   1.530   .     S
C1547  H1643   1.104   .     S
C1547  O1717   1.411   .     S
C1547  H1644   1.111   .     S
C1548  H1645   1.110   .     S
C1548  H1646   1.109   .     S
C1548  C1549   1.527   .     S
C1549  H1649   1.103   .     S
C1549  H1647   1.110   .     S
C1549  H1648   1.089   .     S
C1550  H1651   1.115   .     S
C1550  O1718   1.412   .     S
C1550  C1551   1.529   .     S
C1550  H1650   1.111   .     S
C1551  H1654   1.105   .     S
C1551  H1652   1.111   .     S
C1551  C1552   1.510   .     S
C1552  H1655   1.109   .     S
C1552  H1657   1.095   .     S
C1552  H1656   1.108   .     S
C1553  H1659   1.111   .     S
C1553  O1719   1.407   .     S
C1553  C1554   1.521   .     S
C1553  H1658   1.104   .     S
C1554  C1556   1.528   .     S
C1554  H1660   1.108   .     S
C1554  H1661   1.109   .     S
C1555  O1708   1.312   .     A
C1555  O1705   1.316   .     A
C1556  H1665   1.110   .     S
C1556  H1663   1.102   .     S
C1556  H1662   1.108   .     S
C1557  H1666   1.109   .     S
C1557  O1720   1.418   .     S
C1557  C1558   1.532   .     S
C1557  H1667   1.119   .     S
C1558  C1559   1.520   .     S
C1558  H1669   1.106   .     S
C1558  H1668   1.110   .     S
C1559  H1670   1.107   .     S
C1559  H1671   1.104   .     S
C1560  O1721   1.420   .     S
C1560  C1561   1.538   .     S
C1560  H1674   1.113   .     S
C1560  H1673   1.107   .     S
C1561  C1562   1.520   .     S
C1561  H1676   1.104   .     S
C1561  H1677   1.111   .     S
C1562  H1678   1.110   .     S
C1562  H1679   1.107   .     S
C1562  H1680   1.105   .     S
C1563  O1722   1.417   .     S
C1563  C1564   1.525   .     S
C1563  H1681   1.115   .     S
C1563  H1682   1.114   .     S
C1564  H1684   1.110   .     S
C1564  H1683   1.109   .     S
C1564  C1565   1.530   .     S
C1565  H1685   1.108   .     S
C1565  H1191   1.105   1_565 S
C1565  H2680   1.107   .     S
C1566  O1707   1.312   .     A
C1566  O1706   1.315   .     A
C1567  C1568   1.539   .     S
C1567  O1724   1.423   .     S
C1567  H1689   1.099   .     S
C1567  H1690   1.112   .     S
C1568  H1692   1.107   .     S
C1568  H1691   1.106   .     S
C1568  C1569   1.523   .     S
C1569  H1693   1.108   .     S
C1569  H1695   1.099   .     S
C1569  H1694   1.107   .     S
C1570  H1587   1.113   .     S
C1570  H1696   1.118   .     S
C1570  O1725   1.406   .     S
C1570  C1571   1.518   .     S
C1571  H1589   1.099   .     S
C1571  H1588   1.110   .     S
C1572  H1590   1.107   .     S
C1572  H1591   1.109   .     S
C1572  C1075   1.512   1_565 S
C1572  H1096   1.097   1_565 S
C1573  O1726   1.411   .     S
C1573  H1593   1.104   .     S
C1573  C1574   1.530   .     S
C1573  H1594   1.111   .     S
C1574  H1595   1.110   .     S
C1574  C1575   1.527   .     S
C1574  H1596   1.109   .     S
C1575  H1598   1.110   .     S
C1575  H1599   1.089   .     S
C1575  H1600   1.103   .     S
C1576  Cl1825  1.738   .     S
C1576  N1946   1.366   .     S
Cl1577 C1824   1.738   1_455 S
H1601  C1777   1.108   .     S
H1616  C1784   1.110   1_455 S
H1617  C1040   1.107   1_565 S
H1632  C1790   1.108   1_455 S
H1634  C1790   1.099   1_455 S
H1672  C1063   1.108   1_565 S
N1697  Zn1733  2.055   .     S
N1697  C1740   1.379   1_455 A
N1698  Zn1734  2.055   .     S
N1698  C1739   1.372   1_455 S
N1698  C1824   1.366   1_455 S
N1699  Zn1735  2.055   .     S
N1700  Zn1736  2.055   .     S
O1701  Zn1733  2.057   .     S
O1702  Zn1736  2.057   .     S
O1703  Zn1735  2.053   .     S
O1704  Zn1240  2.053   1_565 S
O1705  Zn1240  2.073   1_565 S
O1706  Zn1735  2.073   .     S
O1707  Zn1736  2.064   .     S
O1708  Zn1239  2.064   1_565 S
O1712  Zn1982  2.057   .     S
O1723  Zn1981  2.053   .     S
O1727  Zn1734  2.053   .     S
O1728  Zn1982  2.073   .     S
O1729  Zn1733  2.073   .     S
O1730  Zn1734  2.064   .     S
O1731  Zn1981  2.064   .     S
O1732  Zn1239  2.057   1_565 S
Zn1733 O1979   2.064   1_455 S
Zn1733 O1971   2.053   1_455 S
Zn1734 O1976   2.073   1_455 S
Zn1734 O1960   2.057   1_455 S
C1737  O1975   1.311   .     A
C1737  O1949   1.316   .     A
C1737  C1766   1.473   .     S
C1738  Cl1826  1.726   .     S
C1738  C2483   1.426   .     S
C1738  N1945   1.367   .     S
C1739  Cl1827  1.746   .     S
C1739  C498    1.426   1_655 S
C1739  N1698   1.372   1_655 S
C1740  N1697   1.379   1_655 A
C1740  Cl1828  1.750   .     S
C1740  C2816   1.425   .     S
C1741  N1948   1.366   .     A
C1741  Cl1829  1.738   .     S
C1742  N1451   1.367   1_565 A
C1742  Cl1830  1.726   .     S
C1742  C2735   1.426   .     S
C1743  Cl1831  1.746   .     S
C1743  N1452   1.372   1_565 S
C1744  Cl1832  1.750   .     S
C1744  C2733   1.425   .     S
C1744  N1947   1.379   .     S
C1745  C1756   1.396   .     A
C1745  O1957   1.381   .     S
C1745  C1764   1.408   .     A
C1746  C1763   1.411   .     A
C1746  C1757   1.388   .     A
C1746  O1958   1.379   .     S
C1747  C1754   1.396   .     A
C1747  C1763   1.413   .     A
C1747  O1959   1.383   .     S
C1748  C1765   1.462   .     S
C1748  O1960   1.317   .     A
C1748  O1971   1.304   .     A
C1749  O1961   1.378   .     S
C1749  C1755   1.388   .     A
C1749  C1764   1.410   .     A
C1750  C1766   1.406   .     A
C1750  O1962   1.381   .     S
C1750  C1761   1.394   .     A
C1751  C1765   1.397   .     A
C1751  O1963   1.377   .     S
C1751  C1762   1.387   .     A
C1752  C1765   1.403   .     A
C1752  O1964   1.373   .     S
C1752  C1758   1.394   .     A
C1753  C1766   1.418   .     A
C1753  C1760   1.387   .     A
C1753  O1965   1.378   .     S
C1754  O1966   1.381   .     S
C1754  C1768   1.408   .     A
C1755  C1767   1.411   .     A
C1755  O1967   1.379   .     S
C1756  O1968   1.383   .     S
C1756  C1767   1.413   .     A
C1757  O1969   1.378   .     S
C1757  C1768   1.410   .     A
C1758  C1771   1.406   .     A
C1758  O1970   1.381   .     S
C1759  C1764   1.476   .     S
C1759  O1979   1.312   .     A
C1759  O1976   1.316   .     A
C1760  O1972   1.377   .     S
C1760  C1769   1.397   .     A
C1761  O1973   1.373   .     S
C1761  C1769   1.403   .     A
C1762  O1974   1.378   .     S
C1762  C1771   1.418   .     A
C1763  C1770   1.474   .     S
C1767  C1814   1.474   .     S
C1768  C1803   1.476   .     S
C1769  C1792   1.462   .     S
C1770  O1978   1.312   .     A
C1770  O1977   1.315   .     A
C1771  C1781   1.473   .     S
C1772  H1833   1.111   .     S
C1772  H1857   1.115   .     S
C1772  C1773   1.529   .     S
C1772  O1957   1.412   .     S
C1773  C1774   1.510   .     S
C1773  H1879   1.105   .     S
C1773  H1868   1.111   .     S
C1774  H1901   1.108   .     S
C1774  H1912   1.095   .     S
C1774  H1890   1.109   .     S
C1775  H1923   1.104   .     S
C1775  C1776   1.521   .     S
C1775  O1958   1.407   .     S
C1775  H1934   1.111   .     S
C1776  H1845   1.109   .     S
C1776  C1777   1.528   .     S
C1776  H1834   1.108   .     S
C1777  H1850   1.102   .     S
C1777  H1851   1.110   .     S
C1778  C1779   1.532   .     S
C1778  H1852   1.109   .     S
C1778  H1853   1.119   .     S
C1778  O1959   1.418   .     S
C1779  C1780   1.520   .     S
C1779  H1854   1.110   .     S
C1779  H1855   1.106   .     S
C1780  H1856   1.107   .     S
C1780  H1859   1.108   .     S
C1780  H1858   1.104   .     S
C1781  O1952   1.311   .     A
C1781  O1980   1.316   .     A
C1782  H1861   1.113   .     S
C1782  H1860   1.107   .     S
C1782  C1783   1.538   .     S
C1782  O1961   1.420   .     S
C1783  C1784   1.520   .     S
C1783  H1862   1.104   .     S
C1783  H1863   1.111   .     S
C1784  H1866   1.105   .     S
C1784  H1616   1.110   1_655 S
C1785  H1867   1.115   .     S
C1785  H1869   1.114   .     S
C1785  C1786   1.525   .     S
C1785  O1962   1.417   .     S
C1786  H1871   1.110   .     S
C1786  H1870   1.109   .     S
C1786  C1787   1.530   .     S
C1787  H1872   1.108   .     S
C1787  H1873   1.105   .     S
C1787  H2866   1.107   .     S
C1788  H1875   1.099   .     S
C1788  O1963   1.423   .     S
C1788  C1789   1.539   .     S
C1788  H1876   1.112   .     S
C1789  C1790   1.523   .     S
C1789  H1878   1.107   .     S
C1789  H1877   1.106   .     S
C1790  H1632   1.108   1_655 S
C1790  H1385   1.107   1_565 S
C1790  H1634   1.099   1_655 S
C1791  H1884   1.114   .     S
C1791  H1883   1.118   .     S
C1791  O1964   1.406   .     S
C1791  C1793   1.518   .     S
C1792  O1951   1.304   .     A
C1792  O1950   1.317   .     A
C1793  H1885   1.110   .     S
C1793  H1886   1.099   .     S
C1793  C1794   1.512   .     S
C1794  H1889   1.098   .     S
C1794  H1888   1.109   .     S
C1794  H1887   1.107   .     S
C1795  C1796   1.530   .     S
C1795  H1891   1.104   .     S
C1795  O1965   1.411   .     S
C1795  H1892   1.111   .     S
C1796  H1893   1.110   .     S
C1796  H1894   1.109   .     S
C1796  C1797   1.527   .     S
C1797  H1897   1.103   .     S
C1797  H1895   1.110   .     S
C1797  H1896   1.089   .     S
C1798  H1899   1.115   .     S
C1798  O1966   1.412   .     S
C1798  C1799   1.529   .     S
C1798  H1898   1.111   .     S
C1799  H1902   1.105   .     S
C1799  H1900   1.111   .     S
C1799  C1800   1.510   .     S
C1800  H1903   1.109   .     S
C1800  H1905   1.095   .     S
C1800  H1904   1.108   .     S
C1801  H1907   1.111   .     S
C1801  O1967   1.407   .     S
C1801  C1802   1.521   .     S
C1801  H1906   1.104   .     S
C1802  C1804   1.528   .     S
C1802  H1908   1.108   .     S
C1802  H1909   1.109   .     S
C1803  O1956   1.312   .     A
C1803  O1953   1.316   .     A
C1804  H1913   1.110   .     S
C1804  H1911   1.102   .     S
C1804  H1910   1.108   .     S
C1805  H1914   1.109   .     S
C1805  O1968   1.418   .     S
C1805  C1806   1.532   .     S
C1805  H1915   1.119   .     S
C1806  C1807   1.520   .     S
C1806  H1917   1.106   .     S
C1806  H1916   1.110   .     S
C1807  H1918   1.107   .     S
C1807  H1919   1.104   .     S
C1808  O1969   1.420   .     S
C1808  C1809   1.538   .     S
C1808  H1922   1.113   .     S
C1808  H1921   1.107   .     S
C1809  C1810   1.520   .     S
C1809  H1924   1.104   .     S
C1809  H1925   1.111   .     S
C1810  H1926   1.110   .     S
C1810  H1927   1.107   .     S
C1810  H1928   1.105   .     S
C1811  O1970   1.417   .     S
C1811  C1812   1.525   .     S
C1811  H1929   1.115   .     S
C1811  H1930   1.114   .     S
C1812  H1932   1.110   .     S
C1812  H1931   1.109   .     S
C1812  C1813   1.530   .     S
C1813  H1933   1.108   .     S
C1813  H1439   1.105   1_565 S
C1813  H2928   1.107   .     S
C1814  O1955   1.312   .     A
C1814  O1954   1.315   .     A
C1815  C1816   1.539   .     S
C1815  O1972   1.423   .     S
C1815  H1937   1.099   .     S
C1815  H1938   1.112   .     S
C1816  H1940   1.107   .     S
C1816  H1939   1.106   .     S
C1816  C1817   1.523   .     S
C1817  H1941   1.108   .     S
C1817  H1943   1.099   .     S
C1817  H1942   1.107   .     S
C1818  H1835   1.113   .     S
C1818  H1944   1.118   .     S
C1818  O1973   1.406   .     S
C1818  C1819   1.518   .     S
C1819  H1837   1.099   .     S
C1819  H1836   1.110   .     S
C1820  H1838   1.107   .     S
C1820  H1839   1.109   .     S
C1820  C1323   1.512   1_565 S
C1820  H1344   1.097   1_565 S
C1821  O1974   1.411   .     S
C1821  H1841   1.104   .     S
C1821  C1822   1.530   .     S
C1821  H1842   1.111   .     S
C1822  H1843   1.110   .     S
C1822  C1823   1.527   .     S
C1822  H1844   1.109   .     S
C1823  H1846   1.110   .     S
C1823  H1847   1.089   .     S
C1823  H1848   1.103   .     S
C1824  Cl1577  1.738   1_655 S
C1824  N1698   1.366   1_655 S
H1849  C1529   1.108   1_655 S
H1865  C1288   1.107   1_565 S
H1920  C1311   1.108   1_565 S
N1945  Zn1981  2.055   .     S
N1946  Zn1982  2.055   .     S
N1947  Zn1983  2.055   .     S
N1948  Zn1984  2.055   .     S
O1949  Zn1981  2.057   .     S
O1950  Zn1984  2.057   .     S
O1951  Zn1983  2.053   .     S
O1952  Zn1488  2.053   1_565 S
O1953  Zn1488  2.073   1_565 S
O1954  Zn1983  2.073   .     S
O1955  Zn1984  2.064   .     S
O1956  Zn1487  2.064   1_565 S
O1960  Zn1734  2.057   1_655 S
O1971  Zn1733  2.053   1_655 S
O1975  Zn1982  2.053   .     S
O1976  Zn1734  2.073   1_655 S
O1977  Zn1981  2.073   .     S
O1978  Zn1982  2.064   .     S
O1979  Zn1733  2.064   1_655 S
O1980  Zn1487  2.057   1_565 S
C1985  O2223   1.311   .     A
C1985  O2197   1.316   .     A
C1985  C2014   1.473   .     S
C1986  Cl2074  1.726   .     S
C1986  C251    1.426   1_456 S
C1986  N2193   1.367   .     S
C1987  Cl2075  1.746   .     S
C1987  N2442   1.372   .     S
C1988  N2441   1.379   .     A
C1988  Cl2076  1.750   .     S
C1988  C88     1.425   1_556 S
C1989  N2196   1.366   .     A
C1989  Cl2077  1.738   .     S
C1990  N2691   1.367   .     A
C1990  Cl2078  1.726   .     S
C1990  C7      1.426   1_556 S
C1991  Cl2079  1.746   .     S
C1991  N2692   1.372   .     S
C1992  Cl2080  1.750   .     S
C1992  C5      1.425   1_556 S
C1992  N2195   1.379   .     S
C1993  C2004   1.396   .     A
C1993  O2205   1.381   .     S
C1993  C2012   1.408   .     A
C1994  C2011   1.411   .     A
C1994  C2005   1.388   .     A
C1994  O2206   1.379   .     S
C1995  C2002   1.396   .     A
C1995  C2011   1.413   .     A
C1995  O2207   1.383   .     S
C1996  C2013   1.462   .     S
C1996  O2208   1.317   .     A
C1996  O2219   1.304   .     A
C1997  O2209   1.378   .     S
C1997  C2003   1.388   .     A
C1997  C2012   1.410   .     A
C1998  C2014   1.406   .     A
C1998  O2210   1.381   .     S
C1998  C2009   1.394   .     A
C1999  C2013   1.397   .     A
C1999  O2211   1.377   .     S
C1999  C2010   1.387   .     A
C2000  C2013   1.403   .     A
C2000  O2212   1.373   .     S
C2000  C2006   1.394   .     A
C2001  C2014   1.418   .     A
C2001  C2008   1.387   .     A
C2001  O2213   1.378   .     S
C2002  O2214   1.381   .     S
C2002  C2016   1.408   .     A
C2003  C2015   1.411   .     A
C2003  O2215   1.379   .     S
C2004  O2216   1.383   .     S
C2004  C2015   1.413   .     A
C2005  O2217   1.378   .     S
C2005  C2016   1.410   .     A
C2006  C2019   1.406   .     A
C2006  O2218   1.381   .     S
C2007  C2012   1.476   .     S
C2007  O2227   1.312   .     A
C2007  O2224   1.316   .     A
C2008  O2220   1.377   .     S
C2008  C2017   1.397   .     A
C2009  O2221   1.373   .     S
C2009  C2017   1.403   .     A
C2010  O2222   1.378   .     S
C2010  C2019   1.418   .     A
C2011  C2018   1.474   .     S
C2015  C2062   1.474   .     S
C2016  C2051   1.476   .     S
C2017  C2040   1.462   .     S
C2018  O2226   1.312   .     A
C2018  O2225   1.315   .     A
C2019  C2029   1.473   .     S
C2020  H2081   1.111   .     S
C2020  H2105   1.115   .     S
C2020  C2021   1.529   .     S
C2020  O2205   1.412   .     S
C2021  C2022   1.510   .     S
C2021  H2127   1.105   .     S
C2021  H2116   1.111   .     S
C2022  H2149   1.108   .     S
C2022  H2160   1.095   .     S
C2022  H2138   1.109   .     S
C2023  H2171   1.104   .     S
C2023  C2024   1.521   .     S
C2023  O2206   1.407   .     S
C2023  H2182   1.111   .     S
C2024  H2093   1.109   .     S
C2024  C2025   1.528   .     S
C2024  H2082   1.108   .     S
C2025  H2098   1.102   .     S
C2025  H2099   1.110   .     S
C2025  H2345   1.108   1_455 S
C2026  C2027   1.532   .     S
C2026  H2100   1.109   .     S
C2026  H2101   1.119   .     S
C2026  O2207   1.418   .     S
C2027  C2028   1.520   .     S
C2027  H2102   1.110   .     S
C2027  H2103   1.106   .     S
C2028  H2104   1.107   .     S
C2028  H2107   1.108   .     S
C2028  H2106   1.104   .     S
C2029  O2200   1.311   .     A
C2029  O2228   1.316   .     A
C2030  H2109   1.113   .     S
C2030  H2108   1.107   .     S
C2030  C2031   1.538   .     S
C2030  O2209   1.420   .     S
C2031  C2032   1.520   .     S
C2031  H2110   1.104   .     S
C2031  H2111   1.111   .     S
C2032  H2114   1.105   .     S
C2032  H2360   1.110   .     S
C2032  H2609   1.107   1_545 S
C2033  H2115   1.115   .     S
C2033  H2117   1.114   .     S
C2033  C2034   1.525   .     S
C2033  O2210   1.417   .     S
C2034  H2119   1.110   .     S
C2034  H2118   1.109   .     S
C2034  C2035   1.530   .     S
C2035  H2120   1.108   .     S
C2035  H2121   1.105   .     S
C2035  H138    1.107   1_556 S
C2036  H2123   1.099   .     S
C2036  O2211   1.423   .     S
C2036  C2037   1.539   .     S
C2036  H2124   1.112   .     S
C2037  C2038   1.523   .     S
C2037  H2126   1.107   .     S
C2037  H2125   1.106   .     S
C2038  H2376   1.108   .     S
C2038  H2625   1.107   .     S
C2038  H2378   1.099   .     S
C2039  H2132   1.114   .     S
C2039  H2131   1.118   .     S
C2039  O2212   1.406   .     S
C2039  C2041   1.518   .     S
C2040  O2199   1.304   .     A
C2040  O2198   1.317   .     A
C2041  H2133   1.110   .     S
C2041  H2134   1.099   .     S
C2041  C2042   1.512   .     S
C2042  H2137   1.098   .     S
C2042  H2136   1.109   .     S
C2042  H2135   1.107   .     S
C2043  C2044   1.530   .     S
C2043  H2139   1.104   .     S
C2043  O2213   1.411   .     S
C2043  H2140   1.111   .     S
C2044  H2141   1.110   .     S
C2044  H2142   1.109   .     S
C2044  C2045   1.527   .     S
C2045  H2145   1.103   .     S
C2045  H2143   1.110   .     S
C2045  H2144   1.089   .     S
C2046  H2147   1.115   .     S
C2046  O2214   1.412   .     S
C2046  C2047   1.529   .     S
C2046  H2146   1.111   .     S
C2047  H2150   1.105   .     S
C2047  H2148   1.111   .     S
C2047  C2048   1.510   .     S
C2048  H2151   1.109   .     S
C2048  H2153   1.095   .     S
C2048  H2152   1.108   .     S
C2049  H2155   1.111   .     S
C2049  O2215   1.407   .     S
C2049  C2050   1.521   .     S
C2049  H2154   1.104   .     S
C2050  C2052   1.528   .     S
C2050  H2156   1.108   .     S
C2050  H2157   1.109   .     S
C2051  O2204   1.312   .     A
C2051  O2201   1.316   .     A
C2052  H2161   1.110   .     S
C2052  H2159   1.102   .     S
C2052  H2158   1.108   .     S
C2053  H2162   1.109   .     S
C2053  O2216   1.418   .     S
C2053  C2054   1.532   .     S
C2053  H2163   1.119   .     S
C2054  C2055   1.520   .     S
C2054  H2165   1.106   .     S
C2054  H2164   1.110   .     S
C2055  H2166   1.107   .     S
C2055  H2167   1.104   .     S
C2055  H2664   1.108   1_545 S
C2056  O2217   1.420   .     S
C2056  C2057   1.538   .     S
C2056  H2170   1.113   .     S
C2056  H2169   1.107   .     S
C2057  C2058   1.520   .     S
C2057  H2172   1.104   .     S
C2057  H2173   1.111   .     S
C2058  H2174   1.110   .     S
C2058  H2175   1.107   .     S
C2058  H2176   1.105   .     S
C2059  O2218   1.417   .     S
C2059  C2060   1.525   .     S
C2059  H2177   1.115   .     S
C2059  H2178   1.114   .     S
C2060  H2180   1.110   .     S
C2060  H2179   1.109   .     S
C2060  C2061   1.530   .     S
C2061  H2181   1.108   .     S
C2061  H2679   1.105   .     S
C2061  H200    1.107   1_556 S
C2062  O2203   1.312   .     A
C2062  O2202   1.315   .     A
C2063  C2064   1.539   .     S
C2063  O2220   1.423   .     S
C2063  H2185   1.099   .     S
C2063  H2186   1.112   .     S
C2064  H2188   1.107   .     S
C2064  H2187   1.106   .     S
C2064  C2065   1.523   .     S
C2065  H2189   1.108   .     S
C2065  H2191   1.099   .     S
C2065  H2190   1.107   .     S
C2066  H2083   1.113   .     S
C2066  H2192   1.118   .     S
C2066  O2221   1.406   .     S
C2066  C2067   1.518   .     S
C2067  H2085   1.099   .     S
C2067  H2084   1.110   .     S
C2067  C2564   1.512   1_545 S
C2068  H2086   1.107   .     S
C2068  H2087   1.109   .     S
C2068  C2563   1.512   .     S
C2068  H2584   1.097   .     S
C2069  O2222   1.411   .     S
C2069  H2089   1.104   .     S
C2069  C2070   1.530   .     S
C2069  H2090   1.111   .     S
C2070  H2091   1.110   .     S
C2070  C2071   1.527   .     S
C2070  H2092   1.109   .     S
C2071  H2094   1.110   .     S
C2071  H2095   1.089   .     S
C2071  H2096   1.103   .     S
C2072  Cl2321  1.738   .     S
C2072  N2442   1.366   .     S
Cl2073 C2320   1.738   1_455 S
H2088  C2564   1.097   1_545 S
H2097  C2273   1.108   .     S
H2112  C2280   1.110   1_455 S
H2113  C2528   1.107   .     S
H2128  C2286   1.108   1_455 S
H2129  C2534   1.107   1_545 S
H2130  C2286   1.099   1_455 S
H2168  C2551   1.108   .     S
H2183  C2557   1.105   1_545 S
N2193  Zn2229  2.055   .     S
N2193  C2236   1.379   1_455 A
N2194  Zn2230  2.055   .     S
N2194  C2235   1.372   1_455 S
N2194  C2320   1.366   1_455 S
N2195  Zn2231  2.055   .     S
N2195  C2486   1.367   1_545 A
N2196  C2487   1.372   1_545 S
N2196  Zn2232  2.055   .     S
O2197  Zn2229  2.057   .     S
O2198  Zn2232  2.057   .     S
O2199  Zn2231  2.053   .     S
O2200  Zn2728  2.053   .     S
O2201  Zn2728  2.073   .     S
O2202  Zn2231  2.073   .     S
O2203  Zn2232  2.064   .     S
O2204  Zn2727  2.064   .     S
O2208  Zn2478  2.057   .     S
O2219  Zn2477  2.053   .     S
O2223  Zn2230  2.053   .     S
O2224  Zn2478  2.073   .     S
O2225  Zn2229  2.073   .     S
O2226  Zn2230  2.064   .     S
O2227  Zn2477  2.064   .     S
O2228  Zn2727  2.057   .     S
Zn2229 O2475   2.064   1_455 S
Zn2229 O2467   2.053   1_455 S
Zn2230 O2472   2.073   1_455 S
Zn2230 O2456   2.057   1_455 S
Zn2231 O2700   2.064   1_545 S
Zn2231 O2724   2.057   1_545 S
Zn2232 O2697   2.073   1_545 S
Zn2232 O2696   2.053   1_545 S
C2233  O2471   1.311   .     A
C2233  O2445   1.316   .     A
C2233  C2262   1.473   .     S
C2234  Cl2322  1.726   .     S
C2234  C3      1.426   1_556 S
C2234  N2441   1.367   .     S
C2235  Cl2323  1.746   .     S
C2235  C994    1.426   1_655 S
C2235  N2194   1.372   1_655 S
C2236  N2193   1.379   1_655 A
C2236  Cl2324  1.750   .     S
C2236  C336    1.425   1_556 S
C2237  N2444   1.366   .     A
C2237  Cl2325  1.738   .     S
C2238  N2939   1.367   .     A
C2238  Cl2326  1.726   .     S
C2238  C255    1.426   1_556 S
C2239  Cl2327  1.746   .     S
C2239  N2940   1.372   .     S
C2240  Cl2328  1.750   .     S
C2240  C253    1.425   1_556 S
C2240  N2443   1.379   .     S
C2241  C2252   1.396   .     A
C2241  O2453   1.381   .     S
C2241  C2260   1.408   .     A
C2242  C2259   1.411   .     A
C2242  C2253   1.388   .     A
C2242  O2454   1.379   .     S
C2243  C2250   1.396   .     A
C2243  C2259   1.413   .     A
C2243  O2455   1.383   .     S
C2244  C2261   1.462   .     S
C2244  O2456   1.317   .     A
C2244  O2467   1.304   .     A
C2245  O2457   1.378   .     S
C2245  C2251   1.388   .     A
C2245  C2260   1.410   .     A
C2246  C2262   1.406   .     A
C2246  O2458   1.381   .     S
C2246  C2257   1.394   .     A
C2247  C2261   1.397   .     A
C2247  O2459   1.377   .     S
C2247  C2258   1.387   .     A
C2248  C2261   1.403   .     A
C2248  O2460   1.373   .     S
C2248  C2254   1.394   .     A
C2249  C2262   1.418   .     A
C2249  C2256   1.387   .     A
C2249  O2461   1.378   .     S
C2250  O2462   1.381   .     S
C2250  C2264   1.408   .     A
C2251  C2263   1.411   .     A
C2251  O2463   1.379   .     S
C2252  O2464   1.383   .     S
C2252  C2263   1.413   .     A
C2253  O2465   1.378   .     S
C2253  C2264   1.410   .     A
C2254  C2267   1.406   .     A
C2254  O2466   1.381   .     S
C2255  C2260   1.476   .     S
C2255  O2475   1.312   .     A
C2255  O2472   1.316   .     A
C2256  O2468   1.377   .     S
C2256  C2265   1.397   .     A
C2257  O2469   1.373   .     S
C2257  C2265   1.403   .     A
C2258  O2470   1.378   .     S
C2258  C2267   1.418   .     A
C2259  C2266   1.474   .     S
C2263  C2310   1.474   .     S
C2264  C2299   1.476   .     S
C2265  C2288   1.462   .     S
C2266  O2474   1.312   .     A
C2266  O2473   1.315   .     A
C2267  C2277   1.473   .     S
C2268  H2329   1.111   .     S
C2268  H2353   1.115   .     S
C2268  C2269   1.529   .     S
C2268  O2453   1.412   .     S
C2269  C2270   1.510   .     S
C2269  H2375   1.105   .     S
C2269  H2364   1.111   .     S
C2270  H2397   1.108   .     S
C2270  H2408   1.095   .     S
C2270  H2386   1.109   .     S
C2271  H2419   1.104   .     S
C2271  C2272   1.521   .     S
C2271  O2454   1.407   .     S
C2271  H2430   1.111   .     S
C2272  H2341   1.109   .     S
C2272  C2273   1.528   .     S
C2272  H2330   1.108   .     S
C2273  H2346   1.102   .     S
C2273  H2347   1.110   .     S
C2274  C2275   1.532   .     S
C2274  H2348   1.109   .     S
C2274  H2349   1.119   .     S
C2274  O2455   1.418   .     S
C2275  C2276   1.520   .     S
C2275  H2350   1.110   .     S
C2275  H2351   1.106   .     S
C2276  H2352   1.107   .     S
C2276  H2355   1.108   .     S
C2276  H2354   1.104   .     S
C2277  O2448   1.311   .     A
C2277  O2476   1.316   .     A
C2278  H2357   1.113   .     S
C2278  H2356   1.107   .     S
C2278  C2279   1.538   .     S
C2278  O2457   1.420   .     S
C2279  C2280   1.520   .     S
C2279  H2358   1.104   .     S
C2279  H2359   1.111   .     S
C2280  H2362   1.105   .     S
C2280  H2112   1.110   1_655 S
C2280  H2857   1.107   1_545 S
C2281  H2363   1.115   .     S
C2281  H2365   1.114   .     S
C2281  C2282   1.525   .     S
C2281  O2458   1.417   .     S
C2282  H2367   1.110   .     S
C2282  H2366   1.109   .     S
C2282  C2283   1.530   .     S
C2283  H2368   1.108   .     S
C2283  H2369   1.105   .     S
C2283  H386    1.107   1_556 S
C2284  H2371   1.099   .     S
C2284  O2459   1.423   .     S
C2284  C2285   1.539   .     S
C2284  H2372   1.112   .     S
C2285  C2286   1.523   .     S
C2285  H2374   1.107   .     S
C2285  H2373   1.106   .     S
C2286  H2128   1.108   1_655 S
C2286  H2873   1.107   .     S
C2286  H2130   1.099   1_655 S
C2287  H2380   1.114   .     S
C2287  H2379   1.118   .     S
C2287  O2460   1.406   .     S
C2287  C2289   1.518   .     S
C2288  O2447   1.304   .     A
C2288  O2446   1.317   .     A
C2289  H2381   1.110   .     S
C2289  H2382   1.099   .     S
C2289  C2290   1.512   .     S
C2290  H2385   1.098   .     S
C2290  H2384   1.109   .     S
C2290  H2383   1.107   .     S
C2291  C2292   1.530   .     S
C2291  H2387   1.104   .     S
C2291  O2461   1.411   .     S
C2291  H2388   1.111   .     S
C2292  H2389   1.110   .     S
C2292  H2390   1.109   .     S
C2292  C2293   1.527   .     S
C2293  H2393   1.103   .     S
C2293  H2391   1.110   .     S
C2293  H2392   1.089   .     S
C2294  H2395   1.115   .     S
C2294  O2462   1.412   .     S
C2294  C2295   1.529   .     S
C2294  H2394   1.111   .     S
C2295  H2398   1.105   .     S
C2295  H2396   1.111   .     S
C2295  C2296   1.510   .     S
C2296  H2399   1.109   .     S
C2296  H2401   1.095   .     S
C2296  H2400   1.108   .     S
C2297  H2403   1.111   .     S
C2297  O2463   1.407   .     S
C2297  C2298   1.521   .     S
C2297  H2402   1.104   .     S
C2298  C2300   1.528   .     S
C2298  H2404   1.108   .     S
C2298  H2405   1.109   .     S
C2299  O2452   1.312   .     A
C2299  O2449   1.316   .     A
C2300  H2409   1.110   .     S
C2300  H2407   1.102   .     S
C2300  H2406   1.108   .     S
C2301  H2410   1.109   .     S
C2301  O2464   1.418   .     S
C2301  C2302   1.532   .     S
C2301  H2411   1.119   .     S
C2302  C2303   1.520   .     S
C2302  H2413   1.106   .     S
C2302  H2412   1.110   .     S
C2303  H2414   1.107   .     S
C2303  H2415   1.104   .     S
C2303  H2912   1.108   1_545 S
C2304  O2465   1.420   .     S
C2304  C2305   1.538   .     S
C2304  H2418   1.113   .     S
C2304  H2417   1.107   .     S
C2305  C2306   1.520   .     S
C2305  H2420   1.104   .     S
C2305  H2421   1.111   .     S
C2306  H2422   1.110   .     S
C2306  H2423   1.107   .     S
C2306  H2424   1.105   .     S
C2307  O2466   1.417   .     S
C2307  C2308   1.525   .     S
C2307  H2425   1.115   .     S
C2307  H2426   1.114   .     S
C2308  H2428   1.110   .     S
C2308  H2427   1.109   .     S
C2308  C2309   1.530   .     S
C2309  H2429   1.108   .     S
C2309  H2927   1.105   .     S
C2309  H448    1.107   1_556 S
C2310  O2451   1.312   .     A
C2310  O2450   1.315   .     A
C2311  C2312   1.539   .     S
C2311  O2468   1.423   .     S
C2311  H2433   1.099   .     S
C2311  H2434   1.112   .     S
C2312  H2436   1.107   .     S
C2312  H2435   1.106   .     S
C2312  C2313   1.523   .     S
C2313  H2437   1.108   .     S
C2313  H2439   1.099   .     S
C2313  H2438   1.107   .     S
C2314  H2331   1.113   .     S
C2314  H2440   1.118   .     S
C2314  O2469   1.406   .     S
C2314  C2315   1.518   .     S
C2315  H2333   1.099   .     S
C2315  H2332   1.110   .     S
C2315  C2812   1.512   1_545 S
C2316  H2334   1.107   .     S
C2316  H2335   1.109   .     S
C2316  C2811   1.512   .     S
C2316  H2832   1.097   .     S
C2317  O2470   1.411   .     S
C2317  H2337   1.104   .     S
C2317  C2318   1.530   .     S
C2317  H2338   1.111   .     S
C2318  H2339   1.110   .     S
C2318  C2319   1.527   .     S
C2318  H2340   1.109   .     S
C2319  H2342   1.110   .     S
C2319  H2343   1.089   .     S
C2319  H2344   1.103   .     S
C2320  Cl2073  1.738   1_655 S
C2320  N2194   1.366   1_655 S
H2336  C2812   1.097   1_545 S
H2345  C2025   1.108   1_655 S
H2361  C2776   1.107   .     S
H2377  C2782   1.107   1_545 S
H2416  C2799   1.108   .     S
H2431  C2805   1.105   1_545 S
N2441  Zn2477  2.055   .     S
N2442  Zn2478  2.055   .     S
N2443  Zn2479  2.055   .     S
N2443  C2734   1.367   1_545 A
N2444  C2735   1.372   1_545 S
N2444  Zn2480  2.055   .     S
O2445  Zn2477  2.057   .     S
O2446  Zn2480  2.057   .     S
O2447  Zn2479  2.053   .     S
O2448  Zn2976  2.053   .     S
O2449  Zn2976  2.073   .     S
O2450  Zn2479  2.073   .     S
O2451  Zn2480  2.064   .     S
O2452  Zn2975  2.064   .     S
O2456  Zn2230  2.057   1_655 S
O2467  Zn2229  2.053   1_655 S
O2471  Zn2478  2.053   .     S
O2472  Zn2230  2.073   1_655 S
O2473  Zn2477  2.073   .     S
O2474  Zn2478  2.064   .     S
O2475  Zn2229  2.064   1_655 S
O2476  Zn2975  2.057   .     S
Zn2479 O2948   2.064   1_545 S
Zn2479 O2972   2.057   1_545 S
Zn2480 O2945   2.073   1_545 S
Zn2480 O2944   2.053   1_545 S
C2481  O2719   1.311   .     A
C2481  O2693   1.316   .     A
C2481  C2510   1.473   .     S
C2482  Cl2570  1.726   .     S
C2482  C747    1.426   1_456 S
C2482  N2689   1.367   .     S
C2483  Cl2571  1.746   .     S
C2483  N2938   1.372   .     S
C2484  N2937   1.379   .     A
C2484  Cl2572  1.750   .     S
C2484  C584    1.425   1_556 S
C2485  N2692   1.366   .     A
C2485  Cl2573  1.738   .     S
C2486  N2195   1.367   1_565 A
C2486  Cl2574  1.726   .     S
C2486  C503    1.426   1_556 S
C2487  Cl2575  1.746   .     S
C2487  N2196   1.372   1_565 S
C2488  Cl2576  1.750   .     S
C2488  C501    1.425   1_556 S
C2488  N2691   1.379   .     S
C2489  C2500   1.396   .     A
C2489  O2701   1.381   .     S
C2489  C2508   1.408   .     A
C2490  C2507   1.411   .     A
C2490  C2501   1.388   .     A
C2490  O2702   1.379   .     S
C2491  C2498   1.396   .     A
C2491  C2507   1.413   .     A
C2491  O2703   1.383   .     S
C2492  C2509   1.462   .     S
C2492  O2704   1.317   .     A
C2492  O2715   1.304   .     A
C2493  O2705   1.378   .     S
C2493  C2499   1.388   .     A
C2493  C2508   1.410   .     A
C2494  C2510   1.406   .     A
C2494  O2706   1.381   .     S
C2494  C2505   1.394   .     A
C2495  C2509   1.397   .     A
C2495  O2707   1.377   .     S
C2495  C2506   1.387   .     A
C2496  C2509   1.403   .     A
C2496  O2708   1.373   .     S
C2496  C2502   1.394   .     A
C2497  C2510   1.418   .     A
C2497  C2504   1.387   .     A
C2497  O2709   1.378   .     S
C2498  O2710   1.381   .     S
C2498  C2512   1.408   .     A
C2499  C2511   1.411   .     A
C2499  O2711   1.379   .     S
C2500  O2712   1.383   .     S
C2500  C2511   1.413   .     A
C2501  O2713   1.378   .     S
C2501  C2512   1.410   .     A
C2502  C2515   1.406   .     A
C2502  O2714   1.381   .     S
C2503  C2508   1.476   .     S
C2503  O2723   1.312   .     A
C2503  O2720   1.316   .     A
C2504  O2716   1.377   .     S
C2504  C2513   1.397   .     A
C2505  O2717   1.373   .     S
C2505  C2513   1.403   .     A
C2506  O2718   1.378   .     S
C2506  C2515   1.418   .     A
C2507  C2514   1.474   .     S
C2511  C2558   1.474   .     S
C2512  C2547   1.476   .     S
C2513  C2536   1.462   .     S
C2514  O2722   1.312   .     A
C2514  O2721   1.315   .     A
C2515  C2525   1.473   .     S
C2516  H2577   1.111   .     S
C2516  H2601   1.115   .     S
C2516  C2517   1.529   .     S
C2516  O2701   1.412   .     S
C2517  C2518   1.510   .     S
C2517  H2623   1.105   .     S
C2517  H2612   1.111   .     S
C2518  H2645   1.108   .     S
C2518  H2656   1.095   .     S
C2518  H2634   1.109   .     S
C2519  H2667   1.104   .     S
C2519  C2520   1.521   .     S
C2519  O2702   1.407   .     S
C2519  H2678   1.111   .     S
C2520  H2589   1.109   .     S
C2520  C2521   1.528   .     S
C2520  H2578   1.108   .     S
C2521  H2594   1.102   .     S
C2521  H2595   1.110   .     S
C2521  H2841   1.108   1_455 S
C2522  C2523   1.532   .     S
C2522  H2596   1.109   .     S
C2522  H2597   1.119   .     S
C2522  O2703   1.418   .     S
C2523  C2524   1.520   .     S
C2523  H2598   1.110   .     S
C2523  H2599   1.106   .     S
C2524  H2600   1.107   .     S
C2524  H2603   1.108   .     S
C2524  H2602   1.104   .     S
C2525  O2696   1.311   .     A
C2525  O2724   1.316   .     A
C2526  H2605   1.113   .     S
C2526  H2604   1.107   .     S
C2526  C2527   1.538   .     S
C2526  O2705   1.420   .     S
C2527  C2528   1.520   .     S
C2527  H2606   1.104   .     S
C2527  H2607   1.111   .     S
C2528  H2610   1.105   .     S
C2528  H2856   1.110   .     S
C2529  H2611   1.115   .     S
C2529  H2613   1.114   .     S
C2529  C2530   1.525   .     S
C2529  O2706   1.417   .     S
C2530  H2615   1.110   .     S
C2530  H2614   1.109   .     S
C2530  C2531   1.530   .     S
C2531  H2616   1.108   .     S
C2531  H2617   1.105   .     S
C2531  H634    1.107   1_556 S
C2532  H2619   1.099   .     S
C2532  O2707   1.423   .     S
C2532  C2533   1.539   .     S
C2532  H2620   1.112   .     S
C2533  C2534   1.523   .     S
C2533  H2622   1.107   .     S
C2533  H2621   1.106   .     S
C2534  H2872   1.108   .     S
C2534  H2129   1.107   1_565 S
C2534  H2874   1.099   .     S
C2535  H2628   1.114   .     S
C2535  H2627   1.118   .     S
C2535  O2708   1.406   .     S
C2535  C2537   1.518   .     S
C2536  O2695   1.304   .     A
C2536  O2694   1.317   .     A
C2537  H2629   1.110   .     S
C2537  H2630   1.099   .     S
C2537  C2538   1.512   .     S
C2538  H2633   1.098   .     S
C2538  H2632   1.109   .     S
C2538  H2631   1.107   .     S
C2539  C2540   1.530   .     S
C2539  H2635   1.104   .     S
C2539  O2709   1.411   .     S
C2539  H2636   1.111   .     S
C2540  H2637   1.110   .     S
C2540  H2638   1.109   .     S
C2540  C2541   1.527   .     S
C2541  H2641   1.103   .     S
C2541  H2639   1.110   .     S
C2541  H2640   1.089   .     S
C2542  H2643   1.115   .     S
C2542  O2710   1.412   .     S
C2542  C2543   1.529   .     S
C2542  H2642   1.111   .     S
C2543  H2646   1.105   .     S
C2543  H2644   1.111   .     S
C2543  C2544   1.510   .     S
C2544  H2647   1.109   .     S
C2544  H2649   1.095   .     S
C2544  H2648   1.108   .     S
C2545  H2651   1.111   .     S
C2545  O2711   1.407   .     S
C2545  C2546   1.521   .     S
C2545  H2650   1.104   .     S
C2546  C2548   1.528   .     S
C2546  H2652   1.108   .     S
C2546  H2653   1.109   .     S
C2547  O2700   1.312   .     A
C2547  O2697   1.316   .     A
C2548  H2657   1.110   .     S
C2548  H2655   1.102   .     S
C2548  H2654   1.108   .     S
C2549  H2658   1.109   .     S
C2549  O2712   1.418   .     S
C2549  C2550   1.532   .     S
C2549  H2659   1.119   .     S
C2550  C2551   1.520   .     S
C2550  H2661   1.106   .     S
C2550  H2660   1.110   .     S
C2551  H2662   1.107   .     S
C2551  H2663   1.104   .     S
C2552  O2713   1.420   .     S
C2552  C2553   1.538   .     S
C2552  H2666   1.113   .     S
C2552  H2665   1.107   .     S
C2553  C2554   1.520   .     S
C2553  H2668   1.104   .     S
C2553  H2669   1.111   .     S
C2554  H2670   1.110   .     S
C2554  H2671   1.107   .     S
C2554  H2672   1.105   .     S
C2555  O2714   1.417   .     S
C2555  C2556   1.525   .     S
C2555  H2673   1.115   .     S
C2555  H2674   1.114   .     S
C2556  H2676   1.110   .     S
C2556  H2675   1.109   .     S
C2556  C2557   1.530   .     S
C2557  H2677   1.108   .     S
C2557  H2183   1.105   1_565 S
C2557  H696    1.107   1_556 S
C2558  O2699   1.312   .     A
C2558  O2698   1.315   .     A
C2559  C2560   1.539   .     S
C2559  O2716   1.423   .     S
C2559  H2681   1.099   .     S
C2559  H2682   1.112   .     S
C2560  H2684   1.107   .     S
C2560  H2683   1.106   .     S
C2560  C2561   1.523   .     S
C2561  H2685   1.108   .     S
C2561  H2687   1.099   .     S
C2561  H2686   1.107   .     S
C2562  H2579   1.113   .     S
C2562  H2688   1.118   .     S
C2562  O2717   1.406   .     S
C2562  C2563   1.518   .     S
C2563  H2581   1.099   .     S
C2563  H2580   1.110   .     S
C2564  H2582   1.107   .     S
C2564  H2583   1.109   .     S
C2564  C2067   1.512   1_565 S
C2564  H2088   1.097   1_565 S
C2565  O2718   1.411   .     S
C2565  H2585   1.104   .     S
C2565  C2566   1.530   .     S
C2565  H2586   1.111   .     S
C2566  H2587   1.110   .     S
C2566  C2567   1.527   .     S
C2566  H2588   1.109   .     S
C2567  H2590   1.110   .     S
C2567  H2591   1.089   .     S
C2567  H2592   1.103   .     S
C2568  Cl2817  1.738   .     S
C2568  N2938   1.366   .     S
Cl2569 C2816   1.738   1_455 S
H2593  C2769   1.108   .     S
H2608  C2776   1.110   1_455 S
H2609  C2032   1.107   1_565 S
H2624  C2782   1.108   1_455 S
H2626  C2782   1.099   1_455 S
H2664  C2055   1.108   1_565 S
N2689  Zn2725  2.055   .     S
N2689  C2732   1.379   1_455 A
N2690  Zn2726  2.055   .     S
N2690  C2731   1.372   1_455 S
N2690  C2816   1.366   1_455 S
N2691  Zn2727  2.055   .     S
N2692  Zn2728  2.055   .     S
O2693  Zn2725  2.057   .     S
O2694  Zn2728  2.057   .     S
O2695  Zn2727  2.053   .     S
O2696  Zn2232  2.053   1_565 S
O2697  Zn2232  2.073   1_565 S
O2698  Zn2727  2.073   .     S
O2699  Zn2728  2.064   .     S
O2700  Zn2231  2.064   1_565 S
O2704  Zn2974  2.057   .     S
O2715  Zn2973  2.053   .     S
O2719  Zn2726  2.053   .     S
O2720  Zn2974  2.073   .     S
O2721  Zn2725  2.073   .     S
O2722  Zn2726  2.064   .     S
O2723  Zn2973  2.064   .     S
O2724  Zn2231  2.057   1_565 S
Zn2725 O2971   2.064   1_455 S
Zn2725 O2963   2.053   1_455 S
Zn2726 O2968   2.073   1_455 S
Zn2726 O2952   2.057   1_455 S
C2729  O2967   1.311   .     A
C2729  O2941   1.316   .     A
C2729  C2758   1.473   .     S
C2730  Cl2818  1.726   .     S
C2730  C499    1.426   1_556 S
C2730  N2937   1.367   .     S
C2731  Cl2819  1.746   .     S
C2731  C1490   1.426   1_655 S
C2731  N2690   1.372   1_655 S
C2732  N2689   1.379   1_655 A
C2732  Cl2820  1.750   .     S
C2732  C832    1.425   1_556 S
C2733  N2940   1.366   .     A
C2733  Cl2821  1.738   .     S
C2734  N2443   1.367   1_565 A
C2734  Cl2822  1.726   .     S
C2734  C751    1.426   1_556 S
C2735  Cl2823  1.746   .     S
C2735  N2444   1.372   1_565 S
C2736  Cl2824  1.750   .     S
C2736  C749    1.425   1_556 S
C2736  N2939   1.379   .     S
C2737  C2748   1.396   .     A
C2737  O2949   1.381   .     S
C2737  C2756   1.408   .     A
C2738  C2755   1.411   .     A
C2738  C2749   1.388   .     A
C2738  O2950   1.379   .     S
C2739  C2746   1.396   .     A
C2739  C2755   1.413   .     A
C2739  O2951   1.383   .     S
C2740  C2757   1.462   .     S
C2740  O2952   1.317   .     A
C2740  O2963   1.304   .     A
C2741  O2953   1.378   .     S
C2741  C2747   1.388   .     A
C2741  C2756   1.410   .     A
C2742  C2758   1.406   .     A
C2742  O2954   1.381   .     S
C2742  C2753   1.394   .     A
C2743  C2757   1.397   .     A
C2743  O2955   1.377   .     S
C2743  C2754   1.387   .     A
C2744  C2757   1.403   .     A
C2744  O2956   1.373   .     S
C2744  C2750   1.394   .     A
C2745  C2758   1.418   .     A
C2745  C2752   1.387   .     A
C2745  O2957   1.378   .     S
C2746  O2958   1.381   .     S
C2746  C2760   1.408   .     A
C2747  C2759   1.411   .     A
C2747  O2959   1.379   .     S
C2748  O2960   1.383   .     S
C2748  C2759   1.413   .     A
C2749  O2961   1.378   .     S
C2749  C2760   1.410   .     A
C2750  C2763   1.406   .     A
C2750  O2962   1.381   .     S
C2751  C2756   1.476   .     S
C2751  O2971   1.312   .     A
C2751  O2968   1.316   .     A
C2752  O2964   1.377   .     S
C2752  C2761   1.397   .     A
C2753  O2965   1.373   .     S
C2753  C2761   1.403   .     A
C2754  O2966   1.378   .     S
C2754  C2763   1.418   .     A
C2755  C2762   1.474   .     S
C2759  C2806   1.474   .     S
C2760  C2795   1.476   .     S
C2761  C2784   1.462   .     S
C2762  O2970   1.312   .     A
C2762  O2969   1.315   .     A
C2763  C2773   1.473   .     S
C2764  H2825   1.111   .     S
C2764  H2849   1.115   .     S
C2764  C2765   1.529   .     S
C2764  O2949   1.412   .     S
C2765  C2766   1.510   .     S
C2765  H2871   1.105   .     S
C2765  H2860   1.111   .     S
C2766  H2893   1.108   .     S
C2766  H2904   1.095   .     S
C2766  H2882   1.109   .     S
C2767  H2915   1.104   .     S
C2767  C2768   1.521   .     S
C2767  O2950   1.407   .     S
C2767  H2926   1.111   .     S
C2768  H2837   1.109   .     S
C2768  C2769   1.528   .     S
C2768  H2826   1.108   .     S
C2769  H2842   1.102   .     S
C2769  H2843   1.110   .     S
C2770  C2771   1.532   .     S
C2770  H2844   1.109   .     S
C2770  H2845   1.119   .     S
C2770  O2951   1.418   .     S
C2771  C2772   1.520   .     S
C2771  H2846   1.110   .     S
C2771  H2847   1.106   .     S
C2772  H2848   1.107   .     S
C2772  H2851   1.108   .     S
C2772  H2850   1.104   .     S
C2773  O2944   1.311   .     A
C2773  O2972   1.316   .     A
C2774  H2853   1.113   .     S
C2774  H2852   1.107   .     S
C2774  C2775   1.538   .     S
C2774  O2953   1.420   .     S
C2775  C2776   1.520   .     S
C2775  H2854   1.104   .     S
C2775  H2855   1.111   .     S
C2776  H2858   1.105   .     S
C2776  H2608   1.110   1_655 S
C2777  H2859   1.115   .     S
C2777  H2861   1.114   .     S
C2777  C2778   1.525   .     S
C2777  O2954   1.417   .     S
C2778  H2863   1.110   .     S
C2778  H2862   1.109   .     S
C2778  C2779   1.530   .     S
C2779  H2864   1.108   .     S
C2779  H2865   1.105   .     S
C2779  H882    1.107   1_556 S
C2780  H2867   1.099   .     S
C2780  O2955   1.423   .     S
C2780  C2781   1.539   .     S
C2780  H2868   1.112   .     S
C2781  C2782   1.523   .     S
C2781  H2870   1.107   .     S
C2781  H2869   1.106   .     S
C2782  H2624   1.108   1_655 S
C2782  H2377   1.107   1_565 S
C2782  H2626   1.099   1_655 S
C2783  H2876   1.114   .     S
C2783  H2875   1.118   .     S
C2783  O2956   1.406   .     S
C2783  C2785   1.518   .     S
C2784  O2943   1.304   .     A
C2784  O2942   1.317   .     A
C2785  H2877   1.110   .     S
C2785  H2878   1.099   .     S
C2785  C2786   1.512   .     S
C2786  H2881   1.098   .     S
C2786  H2880   1.109   .     S
C2786  H2879   1.107   .     S
C2787  C2788   1.530   .     S
C2787  H2883   1.104   .     S
C2787  O2957   1.411   .     S
C2787  H2884   1.111   .     S
C2788  H2885   1.110   .     S
C2788  H2886   1.109   .     S
C2788  C2789   1.527   .     S
C2789  H2889   1.103   .     S
C2789  H2887   1.110   .     S
C2789  H2888   1.089   .     S
C2790  H2891   1.115   .     S
C2790  O2958   1.412   .     S
C2790  C2791   1.529   .     S
C2790  H2890   1.111   .     S
C2791  H2894   1.105   .     S
C2791  H2892   1.111   .     S
C2791  C2792   1.510   .     S
C2792  H2895   1.109   .     S
C2792  H2897   1.095   .     S
C2792  H2896   1.108   .     S
C2793  H2899   1.111   .     S
C2793  O2959   1.407   .     S
C2793  C2794   1.521   .     S
C2793  H2898   1.104   .     S
C2794  C2796   1.528   .     S
C2794  H2900   1.108   .     S
C2794  H2901   1.109   .     S
C2795  O2948   1.312   .     A
C2795  O2945   1.316   .     A
C2796  H2905   1.110   .     S
C2796  H2903   1.102   .     S
C2796  H2902   1.108   .     S
C2797  H2906   1.109   .     S
C2797  O2960   1.418   .     S
C2797  C2798   1.532   .     S
C2797  H2907   1.119   .     S
C2798  C2799   1.520   .     S
C2798  H2909   1.106   .     S
C2798  H2908   1.110   .     S
C2799  H2910   1.107   .     S
C2799  H2911   1.104   .     S
C2800  O2961   1.420   .     S
C2800  C2801   1.538   .     S
C2800  H2914   1.113   .     S
C2800  H2913   1.107   .     S
C2801  C2802   1.520   .     S
C2801  H2916   1.104   .     S
C2801  H2917   1.111   .     S
C2802  H2918   1.110   .     S
C2802  H2919   1.107   .     S
C2802  H2920   1.105   .     S
C2803  O2962   1.417   .     S
C2803  C2804   1.525   .     S
C2803  H2921   1.115   .     S
C2803  H2922   1.114   .     S
C2804  H2924   1.110   .     S
C2804  H2923   1.109   .     S
C2804  C2805   1.530   .     S
C2805  H2925   1.108   .     S
C2805  H2431   1.105   1_565 S
C2805  H944    1.107   1_556 S
C2806  O2947   1.312   .     A
C2806  O2946   1.315   .     A
C2807  C2808   1.539   .     S
C2807  O2964   1.423   .     S
C2807  H2929   1.099   .     S
C2807  H2930   1.112   .     S
C2808  H2932   1.107   .     S
C2808  H2931   1.106   .     S
C2808  C2809   1.523   .     S
C2809  H2933   1.108   .     S
C2809  H2935   1.099   .     S
C2809  H2934   1.107   .     S
C2810  H2827   1.113   .     S
C2810  H2936   1.118   .     S
C2810  O2965   1.406   .     S
C2810  C2811   1.518   .     S
C2811  H2829   1.099   .     S
C2811  H2828   1.110   .     S
C2812  H2830   1.107   .     S
C2812  H2831   1.109   .     S
C2812  C2315   1.512   1_565 S
C2812  H2336   1.097   1_565 S
C2813  O2966   1.411   .     S
C2813  H2833   1.104   .     S
C2813  C2814   1.530   .     S
C2813  H2834   1.111   .     S
C2814  H2835   1.110   .     S
C2814  C2815   1.527   .     S
C2814  H2836   1.109   .     S
C2815  H2838   1.110   .     S
C2815  H2839   1.089   .     S
C2815  H2840   1.103   .     S
C2816  Cl2569  1.738   1_655 S
C2816  N2690   1.366   1_655 S
H2841  C2521   1.108   1_655 S
H2857  C2280   1.107   1_565 S
H2912  C2303   1.108   1_565 S
N2937  Zn2973  2.055   .     S
N2938  Zn2974  2.055   .     S
N2939  Zn2975  2.055   .     S
N2940  Zn2976  2.055   .     S
O2941  Zn2973  2.057   .     S
O2942  Zn2976  2.057   .     S
O2943  Zn2975  2.053   .     S
O2944  Zn2480  2.053   1_565 S
O2945  Zn2480  2.073   1_565 S
O2946  Zn2975  2.073   .     S
O2947  Zn2976  2.064   .     S
O2948  Zn2479  2.064   1_565 S
O2952  Zn2726  2.057   1_655 S
O2963  Zn2725  2.053   1_655 S
O2967  Zn2974  2.053   .     S
O2968  Zn2726  2.073   1_655 S
O2969  Zn2973  2.073   .     S
O2970  Zn2974  2.064   .     S
O2971  Zn2725  2.064   1_655 S
O2972  Zn2479  2.057   1_565 S
