data_str_m3_o10_o18_pcu_sym.13
_audit_creation_date              2020-01-03
_audit_creation_method            'Materials Studio'
_symmetry_space_group_name_H-M    'P1'
_symmetry_Int_Tables_number       1
_symmetry_cell_setting            triclinic
loop_
_symmetry_equiv_pos_as_xyz
  x,y,z
_cell_length_a                    23.5443
_cell_length_b                    25.3129
_cell_length_c                    27.7876
_cell_angle_alpha                 92.8326
_cell_angle_beta                  94.7981
_cell_angle_gamma                 94.4234
loop_
_atom_site_label
_atom_site_type_symbol
_atom_site_fract_x
_atom_site_fract_y
_atom_site_fract_z
_atom_site_U_iso_or_equiv
_atom_site_adp_type
_atom_site_occupancy
C1     C     0.01659   0.26507   0.25494   0.00000  Uiso   1.00
C2     C     0.31108   0.16057   0.15911   0.00000  Uiso   1.00
C3     C     0.03247   0.17236   0.39305   0.00000  Uiso   1.00
C4     C     0.29671   0.14406   0.10811   0.00000  Uiso   1.00
C5     C     0.01060   0.20140   0.47308   0.00000  Uiso   1.00
C6     C     0.29844   0.07849   0.04142   0.00000  Uiso   1.00
C7     C     0.32994   0.19728   0.42329   0.00000  Uiso   1.00
C8     C     0.32154   0.10128   0.08633   0.00000  Uiso   1.00
C9     C     0.07976   0.14873   0.41260   0.00000  Uiso   1.00
C10    C     0.24895   0.16326   0.08478   0.00000  Uiso   1.00
C11    C     0.09255   0.14956   0.46243   0.00000  Uiso   1.00
C12    C     0.32023   0.06908   0.25794   0.00000  Uiso   1.00
C13    C     0.21978   0.13475   0.04461   0.00000  Uiso   1.00
C14    C     0.05965   0.17943   0.49268   0.00000  Uiso   1.00
C15    C     0.24671   0.09454   0.02061   0.00000  Uiso   1.00
C16    C     0.14084   0.12591   0.48245   0.00000  Uiso   1.00
C17    C     0.16340   0.14445   0.02911   0.00000  Uiso   1.00
C18    C     0.13686   0.10603   0.12524   0.00000  Uiso   1.00
C19    C     0.08928   0.01632   0.43413   0.00000  Uiso   1.00
C20    C     0.09266   0.00675   0.28017   0.00000  Uiso   1.00
C21    C     0.12389   0.00900   0.23398   0.00000  Uiso   1.00
C22    C     0.27339   0.00011   0.31025   0.00000  Uiso   1.00
C23    C     0.12657   0.16694   0.06086   0.00000  Uiso   1.00
C24    C     0.27463   0.03951   0.35379   0.00000  Uiso   1.00
C25    C     0.16638   0.08346   0.45903   0.00000  Uiso   1.00
C26    C     0.07595   0.18623   0.04206   0.00000  Uiso   1.00
C27    C     0.21920   0.06831   0.47867   0.00000  Uiso   1.00
C28    C     0.02962   0.32014   0.26964   0.00000  Uiso   1.00
C29    C     0.31881   0.01682   0.27695   0.00000  Uiso   1.00
C30    C     0.02184   0.17090   0.34082   0.00000  Uiso   1.00
H31    H     0.04897   0.20552   0.06607   0.00000  Uiso   1.00
H32    H     0.17154   0.21093   0.28356   0.00000  Uiso   1.00
H33    H     0.11389   0.18496   0.13338   0.00000  Uiso   1.00
H34    H     0.18031   0.09968   0.14133   0.00000  Uiso   1.00
H35    H     0.12626   0.07681   0.09393   0.00000  Uiso   1.00
H36    H     0.10560   0.09725   0.15190   0.00000  Uiso   1.00
H37    H     0.16157   0.03171   0.39809   0.00000  Uiso   1.00
H38    H     0.06709   0.32763   0.40144   0.00000  Uiso   1.00
H39    H     0.05767   0.03940   0.45170   0.00000  Uiso   1.00
H40    H     0.10575   0.32052   0.45937   0.00000  Uiso   1.00
H41    H     0.16412   0.03488   0.24103   0.00000  Uiso   1.00
H42    H     0.23777   0.03478   0.46230   0.00000  Uiso   1.00
H43    H     0.13522   0.30231   0.22205   0.00000  Uiso   1.00
H44    H     0.09720   0.02484   0.20411   0.00000  Uiso   1.00
H45    H     0.09812   0.04589   0.30064   0.00000  Uiso   1.00
H46    H     0.11396   0.31285   0.30478   0.00000  Uiso   1.00
H47    H     0.31931   0.05183   0.36843   0.00000  Uiso   1.00
H48    H     0.25243   0.07508   0.34395   0.00000  Uiso   1.00
H49    H     0.25266   0.02001   0.38258   0.00000  Uiso   1.00
H50    H     0.23050   0.32961   0.29023   0.00000  Uiso   1.00
H51    H     0.28110   0.29453   0.32533   0.00000  Uiso   1.00
H52    H     0.23178   0.19780   0.10086   0.00000  Uiso   1.00
H53    H     0.10811   0.13203   0.38838   0.00000  Uiso   1.00
H54    H     0.02325   0.08360   0.10489   0.00000  Uiso   1.00
H55    H     0.29265   0.21539   0.40834   0.00000  Uiso   1.00
H56    H     0.31728   0.22261   0.49605   0.00000  Uiso   1.00
H57    H     0.31864   0.04600   0.02484   0.00000  Uiso   1.00
H58    H     0.16254   0.12129   0.21891   0.00000  Uiso   1.00
N59    N     0.14695   0.15216   0.23740   0.00000  Uiso   1.00
N60    N     0.18638   0.18117   0.26261   0.00000  Uiso   1.00
N61    N     0.13513   0.16065   0.11148   0.00000  Uiso   1.00
N62    N     0.13604   0.05119   0.42020   0.00000  Uiso   1.00
O63    O     0.29719   0.24631   0.25310   0.00000  Uiso   1.00
O64    O     0.03614   0.08702   0.24691   0.00000  Uiso   1.00
O65    O     0.05822   0.23702   0.24502   0.00000  Uiso   1.00
O66    O     0.27512   0.09632   0.25499   0.00000  Uiso   1.00
O67    O     0.30328   0.17397   0.32247   0.00000  Uiso   1.00
O68    O     0.03005   0.15937   0.17753   0.00000  Uiso   1.00
O69    O     0.06431   0.16467   0.31439   0.00000  Uiso   1.00
O70    O     0.26902   0.16866   0.18561   0.00000  Uiso   1.00
Zn71   Zn    0.27033   0.17287   0.25540   0.00000  Uiso   1.00
Zn72   Zn    0.06300   0.16046   0.24461   0.00000  Uiso   1.00
C73    C     0.34992   0.26507   0.25494   0.00000  Uiso   1.00
C74    C     0.64441   0.16057   0.15911   0.00000  Uiso   1.00
C75    C     0.36580   0.17236   0.39305   0.00000  Uiso   1.00
C76    C     0.63005   0.14406   0.10811   0.00000  Uiso   1.00
C77    C     0.34394   0.20140   0.47308   0.00000  Uiso   1.00
C78    C     0.63177   0.07849   0.04142   0.00000  Uiso   1.00
C79    C     0.66328   0.19728   0.42329   0.00000  Uiso   1.00
C80    C     0.65487   0.10128   0.08633   0.00000  Uiso   1.00
C81    C     0.41310   0.14873   0.41260   0.00000  Uiso   1.00
C82    C     0.58228   0.16326   0.08478   0.00000  Uiso   1.00
C83    C     0.42589   0.14956   0.46243   0.00000  Uiso   1.00
C84    C     0.65356   0.06908   0.25794   0.00000  Uiso   1.00
C85    C     0.55311   0.13475   0.04461   0.00000  Uiso   1.00
C86    C     0.39299   0.17943   0.49268   0.00000  Uiso   1.00
C87    C     0.58004   0.09454   0.02061   0.00000  Uiso   1.00
C88    C     0.47417   0.12591   0.48245   0.00000  Uiso   1.00
C89    C     0.49673   0.14445   0.02911   0.00000  Uiso   1.00
C90    C     0.47020   0.10603   0.12524   0.00000  Uiso   1.00
C91    C     0.42261   0.01632   0.43413   0.00000  Uiso   1.00
C92    C     0.42600   0.00675   0.28017   0.00000  Uiso   1.00
C93    C     0.45722   0.00900   0.23398   0.00000  Uiso   1.00
C94    C     0.60673   0.00011   0.31025   0.00000  Uiso   1.00
C95    C     0.45990   0.16694   0.06086   0.00000  Uiso   1.00
C96    C     0.60797   0.03951   0.35379   0.00000  Uiso   1.00
C97    C     0.49971   0.08346   0.45903   0.00000  Uiso   1.00
C98    C     0.40929   0.18623   0.04206   0.00000  Uiso   1.00
C99    C     0.55253   0.06831   0.47867   0.00000  Uiso   1.00
C100   C     0.36295   0.32014   0.26964   0.00000  Uiso   1.00
C101   C     0.65214   0.01682   0.27695   0.00000  Uiso   1.00
C102   C     0.35518   0.17090   0.34082   0.00000  Uiso   1.00
H103   H     0.38230   0.20552   0.06607   0.00000  Uiso   1.00
H104   H     0.50487   0.21093   0.28356   0.00000  Uiso   1.00
H105   H     0.44722   0.18496   0.13338   0.00000  Uiso   1.00
H106   H     0.51364   0.09968   0.14133   0.00000  Uiso   1.00
H107   H     0.45959   0.07681   0.09393   0.00000  Uiso   1.00
H108   H     0.43894   0.09725   0.15190   0.00000  Uiso   1.00
H109   H     0.49490   0.03171   0.39809   0.00000  Uiso   1.00
H110   H     0.40042   0.32763   0.40144   0.00000  Uiso   1.00
H111   H     0.39100   0.03940   0.45170   0.00000  Uiso   1.00
H112   H     0.43908   0.32052   0.45937   0.00000  Uiso   1.00
H113   H     0.49745   0.03488   0.24103   0.00000  Uiso   1.00
H114   H     0.57110   0.03478   0.46230   0.00000  Uiso   1.00
H115   H     0.46855   0.30231   0.22205   0.00000  Uiso   1.00
H116   H     0.43054   0.02484   0.20411   0.00000  Uiso   1.00
H117   H     0.43146   0.04589   0.30064   0.00000  Uiso   1.00
H118   H     0.44729   0.31285   0.30478   0.00000  Uiso   1.00
H119   H     0.65265   0.05183   0.36843   0.00000  Uiso   1.00
H120   H     0.58577   0.07508   0.34395   0.00000  Uiso   1.00
H121   H     0.58599   0.02001   0.38258   0.00000  Uiso   1.00
H122   H     0.56384   0.32961   0.29023   0.00000  Uiso   1.00
H123   H     0.61444   0.29453   0.32533   0.00000  Uiso   1.00
H124   H     0.56512   0.19780   0.10086   0.00000  Uiso   1.00
H125   H     0.44144   0.13203   0.38838   0.00000  Uiso   1.00
H126   H     0.35659   0.08360   0.10489   0.00000  Uiso   1.00
H127   H     0.62598   0.21539   0.40834   0.00000  Uiso   1.00
H128   H     0.65062   0.22261   0.49605   0.00000  Uiso   1.00
H129   H     0.65197   0.04600   0.02484   0.00000  Uiso   1.00
H130   H     0.49587   0.12129   0.21891   0.00000  Uiso   1.00
N131   N     0.48029   0.15216   0.23740   0.00000  Uiso   1.00
N132   N     0.51971   0.18117   0.26261   0.00000  Uiso   1.00
N133   N     0.46846   0.16065   0.11148   0.00000  Uiso   1.00
N134   N     0.46937   0.05119   0.42020   0.00000  Uiso   1.00
O135   O     0.63052   0.24631   0.25310   0.00000  Uiso   1.00
O136   O     0.36948   0.08702   0.24691   0.00000  Uiso   1.00
O137   O     0.39155   0.23702   0.24502   0.00000  Uiso   1.00
O138   O     0.60845   0.09632   0.25499   0.00000  Uiso   1.00
O139   O     0.63662   0.17397   0.32247   0.00000  Uiso   1.00
O140   O     0.36338   0.15937   0.17753   0.00000  Uiso   1.00
O141   O     0.39764   0.16467   0.31439   0.00000  Uiso   1.00
O142   O     0.60236   0.16866   0.18561   0.00000  Uiso   1.00
Zn143  Zn    0.60366   0.17287   0.25540   0.00000  Uiso   1.00
Zn144  Zn    0.39634   0.16046   0.24461   0.00000  Uiso   1.00
C145   C     0.68325   0.26507   0.25494   0.00000  Uiso   1.00
C146   C     0.97774   0.16057   0.15911   0.00000  Uiso   1.00
C147   C     0.69913   0.17236   0.39305   0.00000  Uiso   1.00
C148   C     0.96338   0.14406   0.10811   0.00000  Uiso   1.00
C149   C     0.67727   0.20140   0.47308   0.00000  Uiso   1.00
C150   C     0.96511   0.07849   0.04142   0.00000  Uiso   1.00
C151   C     0.99661   0.19728   0.42329   0.00000  Uiso   1.00
C152   C     0.98821   0.10128   0.08633   0.00000  Uiso   1.00
C153   C     0.74643   0.14873   0.41260   0.00000  Uiso   1.00
C154   C     0.91561   0.16326   0.08478   0.00000  Uiso   1.00
C155   C     0.75922   0.14956   0.46243   0.00000  Uiso   1.00
C156   C     0.98689   0.06908   0.25794   0.00000  Uiso   1.00
C157   C     0.88644   0.13475   0.04461   0.00000  Uiso   1.00
C158   C     0.72632   0.17943   0.49268   0.00000  Uiso   1.00
C159   C     0.91338   0.09454   0.02061   0.00000  Uiso   1.00
C160   C     0.80750   0.12591   0.48245   0.00000  Uiso   1.00
C161   C     0.83006   0.14445   0.02911   0.00000  Uiso   1.00
C162   C     0.80353   0.10603   0.12524   0.00000  Uiso   1.00
C163   C     0.75594   0.01632   0.43413   0.00000  Uiso   1.00
C164   C     0.75933   0.00675   0.28017   0.00000  Uiso   1.00
C165   C     0.79055   0.00900   0.23398   0.00000  Uiso   1.00
C166   C     0.94006   0.00011   0.31025   0.00000  Uiso   1.00
C167   C     0.79324   0.16694   0.06086   0.00000  Uiso   1.00
C168   C     0.94130   0.03951   0.35379   0.00000  Uiso   1.00
C169   C     0.83305   0.08346   0.45903   0.00000  Uiso   1.00
C170   C     0.74262   0.18623   0.04206   0.00000  Uiso   1.00
C171   C     0.88586   0.06831   0.47867   0.00000  Uiso   1.00
C172   C     0.69629   0.32014   0.26964   0.00000  Uiso   1.00
C173   C     0.98547   0.01682   0.27695   0.00000  Uiso   1.00
C174   C     0.68851   0.17090   0.34082   0.00000  Uiso   1.00
H175   H     0.71564   0.20552   0.06607   0.00000  Uiso   1.00
H176   H     0.83821   0.21093   0.28356   0.00000  Uiso   1.00
H177   H     0.78055   0.18496   0.13338   0.00000  Uiso   1.00
H178   H     0.84697   0.09968   0.14133   0.00000  Uiso   1.00
H179   H     0.79292   0.07681   0.09393   0.00000  Uiso   1.00
H180   H     0.77227   0.09725   0.15190   0.00000  Uiso   1.00
H181   H     0.82823   0.03171   0.39809   0.00000  Uiso   1.00
H182   H     0.73376   0.32763   0.40144   0.00000  Uiso   1.00
H183   H     0.72433   0.03940   0.45170   0.00000  Uiso   1.00
H184   H     0.77241   0.32052   0.45937   0.00000  Uiso   1.00
H185   H     0.83079   0.03488   0.24103   0.00000  Uiso   1.00
H186   H     0.90444   0.03478   0.46230   0.00000  Uiso   1.00
H187   H     0.80189   0.30231   0.22205   0.00000  Uiso   1.00
H188   H     0.76387   0.02484   0.20411   0.00000  Uiso   1.00
H189   H     0.76479   0.04589   0.30064   0.00000  Uiso   1.00
H190   H     0.78062   0.31285   0.30478   0.00000  Uiso   1.00
H191   H     0.98598   0.05183   0.36843   0.00000  Uiso   1.00
H192   H     0.91910   0.07508   0.34395   0.00000  Uiso   1.00
H193   H     0.91932   0.02001   0.38258   0.00000  Uiso   1.00
H194   H     0.89717   0.32961   0.29023   0.00000  Uiso   1.00
H195   H     0.94777   0.29453   0.32533   0.00000  Uiso   1.00
H196   H     0.89845   0.19780   0.10086   0.00000  Uiso   1.00
H197   H     0.77478   0.13203   0.38838   0.00000  Uiso   1.00
H198   H     0.68992   0.08360   0.10489   0.00000  Uiso   1.00
H199   H     0.95932   0.21539   0.40834   0.00000  Uiso   1.00
H200   H     0.98395   0.22261   0.49605   0.00000  Uiso   1.00
H201   H     0.98530   0.04600   0.02484   0.00000  Uiso   1.00
H202   H     0.82920   0.12129   0.21891   0.00000  Uiso   1.00
N203   N     0.81362   0.15216   0.23740   0.00000  Uiso   1.00
N204   N     0.85305   0.18117   0.26261   0.00000  Uiso   1.00
N205   N     0.80179   0.16065   0.11148   0.00000  Uiso   1.00
N206   N     0.80271   0.05119   0.42020   0.00000  Uiso   1.00
O207   O     0.96386   0.24631   0.25310   0.00000  Uiso   1.00
O208   O     0.70281   0.08702   0.24691   0.00000  Uiso   1.00
O209   O     0.72488   0.23702   0.24502   0.00000  Uiso   1.00
O210   O     0.94178   0.09632   0.25499   0.00000  Uiso   1.00
O211   O     0.96995   0.17397   0.32247   0.00000  Uiso   1.00
O212   O     0.69672   0.15937   0.17753   0.00000  Uiso   1.00
O213   O     0.73098   0.16467   0.31439   0.00000  Uiso   1.00
O214   O     0.93569   0.16866   0.18561   0.00000  Uiso   1.00
Zn215  Zn    0.93700   0.17287   0.25540   0.00000  Uiso   1.00
Zn216  Zn    0.72967   0.16046   0.24461   0.00000  Uiso   1.00
C217   C     0.01659   0.59841   0.25494   0.00000  Uiso   1.00
C218   C     0.31108   0.49390   0.15911   0.00000  Uiso   1.00
C219   C     0.03247   0.50569   0.39305   0.00000  Uiso   1.00
C220   C     0.29671   0.47739   0.10811   0.00000  Uiso   1.00
C221   C     0.01060   0.53473   0.47308   0.00000  Uiso   1.00
C222   C     0.29844   0.41182   0.04142   0.00000  Uiso   1.00
C223   C     0.32994   0.53062   0.42329   0.00000  Uiso   1.00
C224   C     0.32154   0.43461   0.08633   0.00000  Uiso   1.00
C225   C     0.07976   0.48206   0.41260   0.00000  Uiso   1.00
C226   C     0.24895   0.49659   0.08478   0.00000  Uiso   1.00
C227   C     0.09255   0.48289   0.46243   0.00000  Uiso   1.00
C228   C     0.32023   0.40242   0.25794   0.00000  Uiso   1.00
C229   C     0.21978   0.46808   0.04461   0.00000  Uiso   1.00
C230   C     0.05965   0.51276   0.49268   0.00000  Uiso   1.00
C231   C     0.24671   0.42787   0.02061   0.00000  Uiso   1.00
C232   C     0.14084   0.45924   0.48245   0.00000  Uiso   1.00
C233   C     0.16340   0.47778   0.02911   0.00000  Uiso   1.00
C234   C     0.13686   0.43937   0.12524   0.00000  Uiso   1.00
C235   C     0.08928   0.34965   0.43413   0.00000  Uiso   1.00
C236   C     0.09266   0.34008   0.28017   0.00000  Uiso   1.00
C237   C     0.12389   0.34233   0.23398   0.00000  Uiso   1.00
C238   C     0.27339   0.33345   0.31025   0.00000  Uiso   1.00
C239   C     0.12657   0.50027   0.06086   0.00000  Uiso   1.00
C240   C     0.27463   0.37285   0.35379   0.00000  Uiso   1.00
C241   C     0.16638   0.41679   0.45903   0.00000  Uiso   1.00
C242   C     0.07595   0.51957   0.04206   0.00000  Uiso   1.00
C243   C     0.21920   0.40164   0.47867   0.00000  Uiso   1.00
C244   C     0.02962   0.65348   0.26964   0.00000  Uiso   1.00
C245   C     0.31881   0.35016   0.27695   0.00000  Uiso   1.00
C246   C     0.02184   0.50423   0.34082   0.00000  Uiso   1.00
H247   H     0.04897   0.53885   0.06607   0.00000  Uiso   1.00
H248   H     0.17154   0.54426   0.28356   0.00000  Uiso   1.00
H249   H     0.11389   0.51830   0.13338   0.00000  Uiso   1.00
H250   H     0.18031   0.43302   0.14133   0.00000  Uiso   1.00
H251   H     0.12626   0.41014   0.09393   0.00000  Uiso   1.00
H252   H     0.10560   0.43058   0.15190   0.00000  Uiso   1.00
H253   H     0.16157   0.36504   0.39809   0.00000  Uiso   1.00
H254   H     0.06709   0.66097   0.40144   0.00000  Uiso   1.00
H255   H     0.05767   0.37273   0.45170   0.00000  Uiso   1.00
H256   H     0.10575   0.65385   0.45937   0.00000  Uiso   1.00
H257   H     0.16412   0.36821   0.24103   0.00000  Uiso   1.00
H258   H     0.23777   0.36812   0.46230   0.00000  Uiso   1.00
H259   H     0.13522   0.63564   0.22205   0.00000  Uiso   1.00
H260   H     0.09720   0.35817   0.20411   0.00000  Uiso   1.00
H261   H     0.09812   0.37922   0.30064   0.00000  Uiso   1.00
H262   H     0.11396   0.64619   0.30478   0.00000  Uiso   1.00
H263   H     0.31931   0.38517   0.36843   0.00000  Uiso   1.00
H264   H     0.25243   0.40841   0.34395   0.00000  Uiso   1.00
H265   H     0.25266   0.35334   0.38258   0.00000  Uiso   1.00
H266   H     0.23050   0.66294   0.29023   0.00000  Uiso   1.00
H267   H     0.28110   0.62786   0.32533   0.00000  Uiso   1.00
H268   H     0.23178   0.53113   0.10086   0.00000  Uiso   1.00
H269   H     0.10811   0.46537   0.38838   0.00000  Uiso   1.00
H270   H     0.02325   0.41694   0.10489   0.00000  Uiso   1.00
H271   H     0.29265   0.54872   0.40834   0.00000  Uiso   1.00
H272   H     0.31728   0.55595   0.49605   0.00000  Uiso   1.00
H273   H     0.31864   0.37933   0.02484   0.00000  Uiso   1.00
H274   H     0.16254   0.45462   0.21891   0.00000  Uiso   1.00
N275   N     0.14695   0.48550   0.23740   0.00000  Uiso   1.00
N276   N     0.18638   0.51450   0.26261   0.00000  Uiso   1.00
N277   N     0.13513   0.49399   0.11148   0.00000  Uiso   1.00
N278   N     0.13604   0.38452   0.42020   0.00000  Uiso   1.00
O279   O     0.29719   0.57964   0.25310   0.00000  Uiso   1.00
O280   O     0.03614   0.42036   0.24691   0.00000  Uiso   1.00
O281   O     0.05822   0.57035   0.24502   0.00000  Uiso   1.00
O282   O     0.27512   0.42965   0.25499   0.00000  Uiso   1.00
O283   O     0.30328   0.50730   0.32247   0.00000  Uiso   1.00
O284   O     0.03005   0.49270   0.17753   0.00000  Uiso   1.00
O285   O     0.06431   0.49801   0.31439   0.00000  Uiso   1.00
O286   O     0.26902   0.50199   0.18561   0.00000  Uiso   1.00
Zn287  Zn    0.27033   0.50621   0.25540   0.00000  Uiso   1.00
Zn288  Zn    0.06300   0.49379   0.24461   0.00000  Uiso   1.00
C289   C     0.34992   0.59841   0.25494   0.00000  Uiso   1.00
C290   C     0.64441   0.49390   0.15911   0.00000  Uiso   1.00
C291   C     0.36580   0.50569   0.39305   0.00000  Uiso   1.00
C292   C     0.63005   0.47739   0.10811   0.00000  Uiso   1.00
C293   C     0.34394   0.53473   0.47308   0.00000  Uiso   1.00
C294   C     0.63177   0.41182   0.04142   0.00000  Uiso   1.00
C295   C     0.66328   0.53062   0.42329   0.00000  Uiso   1.00
C296   C     0.65487   0.43461   0.08633   0.00000  Uiso   1.00
C297   C     0.41310   0.48206   0.41260   0.00000  Uiso   1.00
C298   C     0.58228   0.49659   0.08478   0.00000  Uiso   1.00
C299   C     0.42589   0.48289   0.46243   0.00000  Uiso   1.00
C300   C     0.65356   0.40242   0.25794   0.00000  Uiso   1.00
C301   C     0.55311   0.46808   0.04461   0.00000  Uiso   1.00
C302   C     0.39299   0.51276   0.49268   0.00000  Uiso   1.00
C303   C     0.58004   0.42787   0.02061   0.00000  Uiso   1.00
C304   C     0.47417   0.45924   0.48245   0.00000  Uiso   1.00
C305   C     0.49673   0.47778   0.02911   0.00000  Uiso   1.00
C306   C     0.47020   0.43937   0.12524   0.00000  Uiso   1.00
C307   C     0.42261   0.34965   0.43413   0.00000  Uiso   1.00
C308   C     0.42600   0.34008   0.28017   0.00000  Uiso   1.00
C309   C     0.45722   0.34233   0.23398   0.00000  Uiso   1.00
C310   C     0.60673   0.33345   0.31025   0.00000  Uiso   1.00
C311   C     0.45990   0.50027   0.06086   0.00000  Uiso   1.00
C312   C     0.60797   0.37285   0.35379   0.00000  Uiso   1.00
C313   C     0.49971   0.41679   0.45903   0.00000  Uiso   1.00
C314   C     0.40929   0.51957   0.04206   0.00000  Uiso   1.00
C315   C     0.55253   0.40164   0.47867   0.00000  Uiso   1.00
C316   C     0.36295   0.65348   0.26964   0.00000  Uiso   1.00
C317   C     0.65214   0.35016   0.27695   0.00000  Uiso   1.00
C318   C     0.35518   0.50423   0.34082   0.00000  Uiso   1.00
H319   H     0.38230   0.53885   0.06607   0.00000  Uiso   1.00
H320   H     0.50487   0.54426   0.28356   0.00000  Uiso   1.00
H321   H     0.44722   0.51830   0.13338   0.00000  Uiso   1.00
H322   H     0.51364   0.43302   0.14133   0.00000  Uiso   1.00
H323   H     0.45959   0.41014   0.09393   0.00000  Uiso   1.00
H324   H     0.43894   0.43058   0.15190   0.00000  Uiso   1.00
H325   H     0.49490   0.36504   0.39809   0.00000  Uiso   1.00
H326   H     0.40042   0.66097   0.40144   0.00000  Uiso   1.00
H327   H     0.39100   0.37273   0.45170   0.00000  Uiso   1.00
H328   H     0.43908   0.65385   0.45937   0.00000  Uiso   1.00
H329   H     0.49745   0.36821   0.24103   0.00000  Uiso   1.00
H330   H     0.57110   0.36812   0.46230   0.00000  Uiso   1.00
H331   H     0.46855   0.63564   0.22205   0.00000  Uiso   1.00
H332   H     0.43054   0.35817   0.20411   0.00000  Uiso   1.00
H333   H     0.43146   0.37922   0.30064   0.00000  Uiso   1.00
H334   H     0.44729   0.64619   0.30478   0.00000  Uiso   1.00
H335   H     0.65265   0.38517   0.36843   0.00000  Uiso   1.00
H336   H     0.58577   0.40841   0.34395   0.00000  Uiso   1.00
H337   H     0.58599   0.35334   0.38258   0.00000  Uiso   1.00
H338   H     0.56384   0.66294   0.29023   0.00000  Uiso   1.00
H339   H     0.61444   0.62786   0.32533   0.00000  Uiso   1.00
H340   H     0.56512   0.53113   0.10086   0.00000  Uiso   1.00
H341   H     0.44144   0.46537   0.38838   0.00000  Uiso   1.00
H342   H     0.35659   0.41694   0.10489   0.00000  Uiso   1.00
H343   H     0.62598   0.54872   0.40834   0.00000  Uiso   1.00
H344   H     0.65062   0.55595   0.49605   0.00000  Uiso   1.00
H345   H     0.65197   0.37933   0.02484   0.00000  Uiso   1.00
H346   H     0.49587   0.45462   0.21891   0.00000  Uiso   1.00
N347   N     0.48029   0.48550   0.23740   0.00000  Uiso   1.00
N348   N     0.51971   0.51450   0.26261   0.00000  Uiso   1.00
N349   N     0.46846   0.49399   0.11148   0.00000  Uiso   1.00
N350   N     0.46937   0.38452   0.42020   0.00000  Uiso   1.00
O351   O     0.63052   0.57964   0.25310   0.00000  Uiso   1.00
O352   O     0.36948   0.42036   0.24691   0.00000  Uiso   1.00
O353   O     0.39155   0.57035   0.24502   0.00000  Uiso   1.00
O354   O     0.60845   0.42965   0.25499   0.00000  Uiso   1.00
O355   O     0.63662   0.50730   0.32247   0.00000  Uiso   1.00
O356   O     0.36338   0.49270   0.17753   0.00000  Uiso   1.00
O357   O     0.39764   0.49801   0.31439   0.00000  Uiso   1.00
O358   O     0.60236   0.50199   0.18561   0.00000  Uiso   1.00
Zn359  Zn    0.60366   0.50621   0.25540   0.00000  Uiso   1.00
Zn360  Zn    0.39634   0.49379   0.24461   0.00000  Uiso   1.00
C361   C     0.68325   0.59841   0.25494   0.00000  Uiso   1.00
C362   C     0.97774   0.49390   0.15911   0.00000  Uiso   1.00
C363   C     0.69913   0.50569   0.39305   0.00000  Uiso   1.00
C364   C     0.96338   0.47739   0.10811   0.00000  Uiso   1.00
C365   C     0.67727   0.53473   0.47308   0.00000  Uiso   1.00
C366   C     0.96511   0.41182   0.04142   0.00000  Uiso   1.00
C367   C     0.99661   0.53062   0.42329   0.00000  Uiso   1.00
C368   C     0.98821   0.43461   0.08633   0.00000  Uiso   1.00
C369   C     0.74643   0.48206   0.41260   0.00000  Uiso   1.00
C370   C     0.91561   0.49659   0.08478   0.00000  Uiso   1.00
C371   C     0.75922   0.48289   0.46243   0.00000  Uiso   1.00
C372   C     0.98689   0.40242   0.25794   0.00000  Uiso   1.00
C373   C     0.88644   0.46808   0.04461   0.00000  Uiso   1.00
C374   C     0.72632   0.51276   0.49268   0.00000  Uiso   1.00
C375   C     0.91338   0.42787   0.02061   0.00000  Uiso   1.00
C376   C     0.80750   0.45924   0.48245   0.00000  Uiso   1.00
C377   C     0.83006   0.47778   0.02911   0.00000  Uiso   1.00
C378   C     0.80353   0.43937   0.12524   0.00000  Uiso   1.00
C379   C     0.75594   0.34965   0.43413   0.00000  Uiso   1.00
C380   C     0.75933   0.34008   0.28017   0.00000  Uiso   1.00
C381   C     0.79055   0.34233   0.23398   0.00000  Uiso   1.00
C382   C     0.94006   0.33345   0.31025   0.00000  Uiso   1.00
C383   C     0.79324   0.50027   0.06086   0.00000  Uiso   1.00
C384   C     0.94130   0.37285   0.35379   0.00000  Uiso   1.00
C385   C     0.83305   0.41679   0.45903   0.00000  Uiso   1.00
C386   C     0.74262   0.51957   0.04206   0.00000  Uiso   1.00
C387   C     0.88586   0.40164   0.47867   0.00000  Uiso   1.00
C388   C     0.69629   0.65348   0.26964   0.00000  Uiso   1.00
C389   C     0.98547   0.35016   0.27695   0.00000  Uiso   1.00
C390   C     0.68851   0.50423   0.34082   0.00000  Uiso   1.00
H391   H     0.71564   0.53885   0.06607   0.00000  Uiso   1.00
H392   H     0.83821   0.54426   0.28356   0.00000  Uiso   1.00
H393   H     0.78055   0.51830   0.13338   0.00000  Uiso   1.00
H394   H     0.84697   0.43302   0.14133   0.00000  Uiso   1.00
H395   H     0.79292   0.41014   0.09393   0.00000  Uiso   1.00
H396   H     0.77227   0.43058   0.15190   0.00000  Uiso   1.00
H397   H     0.82823   0.36504   0.39809   0.00000  Uiso   1.00
H398   H     0.73376   0.66097   0.40144   0.00000  Uiso   1.00
H399   H     0.72433   0.37273   0.45170   0.00000  Uiso   1.00
H400   H     0.77241   0.65385   0.45937   0.00000  Uiso   1.00
H401   H     0.83079   0.36821   0.24103   0.00000  Uiso   1.00
H402   H     0.90444   0.36812   0.46230   0.00000  Uiso   1.00
H403   H     0.80189   0.63564   0.22205   0.00000  Uiso   1.00
H404   H     0.76387   0.35817   0.20411   0.00000  Uiso   1.00
H405   H     0.76479   0.37922   0.30064   0.00000  Uiso   1.00
H406   H     0.78062   0.64619   0.30478   0.00000  Uiso   1.00
H407   H     0.98598   0.38517   0.36843   0.00000  Uiso   1.00
H408   H     0.91910   0.40841   0.34395   0.00000  Uiso   1.00
H409   H     0.91932   0.35334   0.38258   0.00000  Uiso   1.00
H410   H     0.89717   0.66294   0.29023   0.00000  Uiso   1.00
H411   H     0.94777   0.62786   0.32533   0.00000  Uiso   1.00
H412   H     0.89845   0.53113   0.10086   0.00000  Uiso   1.00
H413   H     0.77478   0.46537   0.38838   0.00000  Uiso   1.00
H414   H     0.68992   0.41694   0.10489   0.00000  Uiso   1.00
H415   H     0.95932   0.54872   0.40834   0.00000  Uiso   1.00
H416   H     0.98395   0.55595   0.49605   0.00000  Uiso   1.00
H417   H     0.98530   0.37933   0.02484   0.00000  Uiso   1.00
H418   H     0.82920   0.45462   0.21891   0.00000  Uiso   1.00
N419   N     0.81362   0.48550   0.23740   0.00000  Uiso   1.00
N420   N     0.85305   0.51450   0.26261   0.00000  Uiso   1.00
N421   N     0.80179   0.49399   0.11148   0.00000  Uiso   1.00
N422   N     0.80271   0.38452   0.42020   0.00000  Uiso   1.00
O423   O     0.96386   0.57964   0.25310   0.00000  Uiso   1.00
O424   O     0.70281   0.42036   0.24691   0.00000  Uiso   1.00
O425   O     0.72488   0.57035   0.24502   0.00000  Uiso   1.00
O426   O     0.94178   0.42965   0.25499   0.00000  Uiso   1.00
O427   O     0.96995   0.50730   0.32247   0.00000  Uiso   1.00
O428   O     0.69672   0.49270   0.17753   0.00000  Uiso   1.00
O429   O     0.73098   0.49801   0.31439   0.00000  Uiso   1.00
O430   O     0.93569   0.50199   0.18561   0.00000  Uiso   1.00
Zn431  Zn    0.93700   0.50621   0.25540   0.00000  Uiso   1.00
Zn432  Zn    0.72967   0.49379   0.24461   0.00000  Uiso   1.00
C433   C     0.01659   0.93174   0.25494   0.00000  Uiso   1.00
C434   C     0.31108   0.82723   0.15911   0.00000  Uiso   1.00
C435   C     0.03247   0.83902   0.39305   0.00000  Uiso   1.00
C436   C     0.29671   0.81073   0.10811   0.00000  Uiso   1.00
C437   C     0.01060   0.86806   0.47308   0.00000  Uiso   1.00
C438   C     0.29844   0.74515   0.04142   0.00000  Uiso   1.00
C439   C     0.32994   0.86395   0.42329   0.00000  Uiso   1.00
C440   C     0.32154   0.76794   0.08633   0.00000  Uiso   1.00
C441   C     0.07976   0.81540   0.41260   0.00000  Uiso   1.00
C442   C     0.24895   0.82992   0.08478   0.00000  Uiso   1.00
C443   C     0.09255   0.81623   0.46243   0.00000  Uiso   1.00
C444   C     0.32023   0.73575   0.25794   0.00000  Uiso   1.00
C445   C     0.21978   0.80141   0.04461   0.00000  Uiso   1.00
C446   C     0.05965   0.84610   0.49268   0.00000  Uiso   1.00
C447   C     0.24671   0.76120   0.02061   0.00000  Uiso   1.00
C448   C     0.14084   0.79258   0.48245   0.00000  Uiso   1.00
C449   C     0.16340   0.81111   0.02911   0.00000  Uiso   1.00
C450   C     0.13686   0.77270   0.12524   0.00000  Uiso   1.00
C451   C     0.08928   0.68299   0.43413   0.00000  Uiso   1.00
C452   C     0.09266   0.67342   0.28017   0.00000  Uiso   1.00
C453   C     0.12389   0.67566   0.23398   0.00000  Uiso   1.00
C454   C     0.27339   0.66678   0.31025   0.00000  Uiso   1.00
C455   C     0.12657   0.83361   0.06086   0.00000  Uiso   1.00
C456   C     0.27463   0.70618   0.35379   0.00000  Uiso   1.00
C457   C     0.16638   0.75012   0.45903   0.00000  Uiso   1.00
C458   C     0.07595   0.85290   0.04206   0.00000  Uiso   1.00
C459   C     0.21920   0.73497   0.47867   0.00000  Uiso   1.00
C460   C     0.02962   0.98681   0.26964   0.00000  Uiso   1.00
C461   C     0.31881   0.68349   0.27695   0.00000  Uiso   1.00
C462   C     0.02184   0.83757   0.34082   0.00000  Uiso   1.00
H463   H     0.04897   0.87218   0.06607   0.00000  Uiso   1.00
H464   H     0.17154   0.87760   0.28356   0.00000  Uiso   1.00
H465   H     0.11389   0.85163   0.13338   0.00000  Uiso   1.00
H466   H     0.18031   0.76635   0.14133   0.00000  Uiso   1.00
H467   H     0.12626   0.74348   0.09393   0.00000  Uiso   1.00
H468   H     0.10560   0.76391   0.15190   0.00000  Uiso   1.00
H469   H     0.16157   0.69838   0.39809   0.00000  Uiso   1.00
H470   H     0.06709   0.99430   0.40144   0.00000  Uiso   1.00
H471   H     0.05767   0.70607   0.45170   0.00000  Uiso   1.00
H472   H     0.10575   0.98719   0.45937   0.00000  Uiso   1.00
H473   H     0.16412   0.70155   0.24103   0.00000  Uiso   1.00
H474   H     0.23777   0.70145   0.46230   0.00000  Uiso   1.00
H475   H     0.13522   0.96898   0.22205   0.00000  Uiso   1.00
H476   H     0.09720   0.69150   0.20411   0.00000  Uiso   1.00
H477   H     0.09812   0.71256   0.30064   0.00000  Uiso   1.00
H478   H     0.11396   0.97952   0.30478   0.00000  Uiso   1.00
H479   H     0.31931   0.71850   0.36843   0.00000  Uiso   1.00
H480   H     0.25243   0.74175   0.34395   0.00000  Uiso   1.00
H481   H     0.25266   0.68667   0.38258   0.00000  Uiso   1.00
H482   H     0.23050   0.99628   0.29023   0.00000  Uiso   1.00
H483   H     0.28110   0.96120   0.32533   0.00000  Uiso   1.00
H484   H     0.23178   0.86446   0.10086   0.00000  Uiso   1.00
H485   H     0.10811   0.79870   0.38838   0.00000  Uiso   1.00
H486   H     0.02325   0.75027   0.10489   0.00000  Uiso   1.00
H487   H     0.29265   0.88205   0.40834   0.00000  Uiso   1.00
H488   H     0.31728   0.88928   0.49605   0.00000  Uiso   1.00
H489   H     0.31864   0.71266   0.02484   0.00000  Uiso   1.00
H490   H     0.16254   0.78796   0.21891   0.00000  Uiso   1.00
N491   N     0.14695   0.81883   0.23740   0.00000  Uiso   1.00
N492   N     0.18638   0.84784   0.26261   0.00000  Uiso   1.00
N493   N     0.13513   0.82732   0.11148   0.00000  Uiso   1.00
N494   N     0.13604   0.71785   0.42020   0.00000  Uiso   1.00
O495   O     0.29719   0.91298   0.25310   0.00000  Uiso   1.00
O496   O     0.03614   0.75369   0.24691   0.00000  Uiso   1.00
O497   O     0.05822   0.90368   0.24502   0.00000  Uiso   1.00
O498   O     0.27512   0.76298   0.25499   0.00000  Uiso   1.00
O499   O     0.30328   0.84063   0.32247   0.00000  Uiso   1.00
O500   O     0.03005   0.82603   0.17753   0.00000  Uiso   1.00
O501   O     0.06431   0.83134   0.31439   0.00000  Uiso   1.00
O502   O     0.26902   0.83533   0.18561   0.00000  Uiso   1.00
Zn503  Zn    0.27033   0.83954   0.25540   0.00000  Uiso   1.00
Zn504  Zn    0.06300   0.82713   0.24461   0.00000  Uiso   1.00
C505   C     0.34992   0.93174   0.25494   0.00000  Uiso   1.00
C506   C     0.64441   0.82723   0.15911   0.00000  Uiso   1.00
C507   C     0.36580   0.83902   0.39305   0.00000  Uiso   1.00
C508   C     0.63005   0.81073   0.10811   0.00000  Uiso   1.00
C509   C     0.34394   0.86806   0.47308   0.00000  Uiso   1.00
C510   C     0.63177   0.74515   0.04142   0.00000  Uiso   1.00
C511   C     0.66328   0.86395   0.42329   0.00000  Uiso   1.00
C512   C     0.65487   0.76794   0.08633   0.00000  Uiso   1.00
C513   C     0.41310   0.81540   0.41260   0.00000  Uiso   1.00
C514   C     0.58228   0.82992   0.08478   0.00000  Uiso   1.00
C515   C     0.42589   0.81623   0.46243   0.00000  Uiso   1.00
C516   C     0.65356   0.73575   0.25794   0.00000  Uiso   1.00
C517   C     0.55311   0.80141   0.04461   0.00000  Uiso   1.00
C518   C     0.39299   0.84610   0.49268   0.00000  Uiso   1.00
C519   C     0.58004   0.76120   0.02061   0.00000  Uiso   1.00
C520   C     0.47417   0.79258   0.48245   0.00000  Uiso   1.00
C521   C     0.49673   0.81111   0.02911   0.00000  Uiso   1.00
C522   C     0.47020   0.77270   0.12524   0.00000  Uiso   1.00
C523   C     0.42261   0.68299   0.43413   0.00000  Uiso   1.00
C524   C     0.42600   0.67342   0.28017   0.00000  Uiso   1.00
C525   C     0.45722   0.67566   0.23398   0.00000  Uiso   1.00
C526   C     0.60673   0.66678   0.31025   0.00000  Uiso   1.00
C527   C     0.45990   0.83361   0.06086   0.00000  Uiso   1.00
C528   C     0.60797   0.70618   0.35379   0.00000  Uiso   1.00
C529   C     0.49971   0.75012   0.45903   0.00000  Uiso   1.00
C530   C     0.40929   0.85290   0.04206   0.00000  Uiso   1.00
C531   C     0.55253   0.73497   0.47867   0.00000  Uiso   1.00
C532   C     0.36295   0.98681   0.26964   0.00000  Uiso   1.00
C533   C     0.65214   0.68349   0.27695   0.00000  Uiso   1.00
C534   C     0.35518   0.83757   0.34082   0.00000  Uiso   1.00
H535   H     0.38230   0.87218   0.06607   0.00000  Uiso   1.00
H536   H     0.50487   0.87760   0.28356   0.00000  Uiso   1.00
H537   H     0.44722   0.85163   0.13338   0.00000  Uiso   1.00
H538   H     0.51364   0.76635   0.14133   0.00000  Uiso   1.00
H539   H     0.45959   0.74348   0.09393   0.00000  Uiso   1.00
H540   H     0.43894   0.76391   0.15190   0.00000  Uiso   1.00
H541   H     0.49490   0.69838   0.39809   0.00000  Uiso   1.00
H542   H     0.40042   0.99430   0.40144   0.00000  Uiso   1.00
H543   H     0.39100   0.70607   0.45170   0.00000  Uiso   1.00
H544   H     0.43908   0.98719   0.45937   0.00000  Uiso   1.00
H545   H     0.49745   0.70155   0.24103   0.00000  Uiso   1.00
H546   H     0.57110   0.70145   0.46230   0.00000  Uiso   1.00
H547   H     0.46855   0.96898   0.22205   0.00000  Uiso   1.00
H548   H     0.43054   0.69150   0.20411   0.00000  Uiso   1.00
H549   H     0.43146   0.71256   0.30064   0.00000  Uiso   1.00
H550   H     0.44729   0.97952   0.30478   0.00000  Uiso   1.00
H551   H     0.65265   0.71850   0.36843   0.00000  Uiso   1.00
H552   H     0.58577   0.74175   0.34395   0.00000  Uiso   1.00
H553   H     0.58599   0.68667   0.38258   0.00000  Uiso   1.00
H554   H     0.56384   0.99628   0.29023   0.00000  Uiso   1.00
H555   H     0.61444   0.96120   0.32533   0.00000  Uiso   1.00
H556   H     0.56512   0.86446   0.10086   0.00000  Uiso   1.00
H557   H     0.44144   0.79870   0.38838   0.00000  Uiso   1.00
H558   H     0.35659   0.75027   0.10489   0.00000  Uiso   1.00
H559   H     0.62598   0.88205   0.40834   0.00000  Uiso   1.00
H560   H     0.65062   0.88928   0.49605   0.00000  Uiso   1.00
H561   H     0.65197   0.71266   0.02484   0.00000  Uiso   1.00
H562   H     0.49587   0.78796   0.21891   0.00000  Uiso   1.00
N563   N     0.48029   0.81883   0.23740   0.00000  Uiso   1.00
N564   N     0.51971   0.84784   0.26261   0.00000  Uiso   1.00
N565   N     0.46846   0.82732   0.11148   0.00000  Uiso   1.00
N566   N     0.46937   0.71785   0.42020   0.00000  Uiso   1.00
O567   O     0.63052   0.91298   0.25310   0.00000  Uiso   1.00
O568   O     0.36948   0.75369   0.24691   0.00000  Uiso   1.00
O569   O     0.39155   0.90368   0.24502   0.00000  Uiso   1.00
O570   O     0.60845   0.76298   0.25499   0.00000  Uiso   1.00
O571   O     0.63662   0.84063   0.32247   0.00000  Uiso   1.00
O572   O     0.36338   0.82603   0.17753   0.00000  Uiso   1.00
O573   O     0.39764   0.83134   0.31439   0.00000  Uiso   1.00
O574   O     0.60236   0.83533   0.18561   0.00000  Uiso   1.00
Zn575  Zn    0.60366   0.83954   0.25540   0.00000  Uiso   1.00
Zn576  Zn    0.39634   0.82713   0.24461   0.00000  Uiso   1.00
C577   C     0.68325   0.93174   0.25494   0.00000  Uiso   1.00
C578   C     0.97774   0.82723   0.15911   0.00000  Uiso   1.00
C579   C     0.69913   0.83902   0.39305   0.00000  Uiso   1.00
C580   C     0.96338   0.81073   0.10811   0.00000  Uiso   1.00
C581   C     0.67727   0.86806   0.47308   0.00000  Uiso   1.00
C582   C     0.96511   0.74515   0.04142   0.00000  Uiso   1.00
C583   C     0.99661   0.86395   0.42329   0.00000  Uiso   1.00
C584   C     0.98821   0.76794   0.08633   0.00000  Uiso   1.00
C585   C     0.74643   0.81540   0.41260   0.00000  Uiso   1.00
C586   C     0.91561   0.82992   0.08478   0.00000  Uiso   1.00
C587   C     0.75922   0.81623   0.46243   0.00000  Uiso   1.00
C588   C     0.98689   0.73575   0.25794   0.00000  Uiso   1.00
C589   C     0.88644   0.80141   0.04461   0.00000  Uiso   1.00
C590   C     0.72632   0.84610   0.49268   0.00000  Uiso   1.00
C591   C     0.91338   0.76120   0.02061   0.00000  Uiso   1.00
C592   C     0.80750   0.79258   0.48245   0.00000  Uiso   1.00
C593   C     0.83006   0.81111   0.02911   0.00000  Uiso   1.00
C594   C     0.80353   0.77270   0.12524   0.00000  Uiso   1.00
C595   C     0.75594   0.68299   0.43413   0.00000  Uiso   1.00
C596   C     0.75933   0.67342   0.28017   0.00000  Uiso   1.00
C597   C     0.79055   0.67566   0.23398   0.00000  Uiso   1.00
C598   C     0.94006   0.66678   0.31025   0.00000  Uiso   1.00
C599   C     0.79324   0.83361   0.06086   0.00000  Uiso   1.00
C600   C     0.94130   0.70618   0.35379   0.00000  Uiso   1.00
C601   C     0.83305   0.75012   0.45903   0.00000  Uiso   1.00
C602   C     0.74262   0.85290   0.04206   0.00000  Uiso   1.00
C603   C     0.88586   0.73497   0.47867   0.00000  Uiso   1.00
C604   C     0.69629   0.98681   0.26964   0.00000  Uiso   1.00
C605   C     0.98547   0.68349   0.27695   0.00000  Uiso   1.00
C606   C     0.68851   0.83757   0.34082   0.00000  Uiso   1.00
H607   H     0.71564   0.87218   0.06607   0.00000  Uiso   1.00
H608   H     0.83821   0.87760   0.28356   0.00000  Uiso   1.00
H609   H     0.78055   0.85163   0.13338   0.00000  Uiso   1.00
H610   H     0.84697   0.76635   0.14133   0.00000  Uiso   1.00
H611   H     0.79292   0.74348   0.09393   0.00000  Uiso   1.00
H612   H     0.77227   0.76391   0.15190   0.00000  Uiso   1.00
H613   H     0.82823   0.69838   0.39809   0.00000  Uiso   1.00
H614   H     0.73376   0.99430   0.40144   0.00000  Uiso   1.00
H615   H     0.72433   0.70607   0.45170   0.00000  Uiso   1.00
H616   H     0.77241   0.98719   0.45937   0.00000  Uiso   1.00
H617   H     0.83079   0.70155   0.24103   0.00000  Uiso   1.00
H618   H     0.90444   0.70145   0.46230   0.00000  Uiso   1.00
H619   H     0.80189   0.96898   0.22205   0.00000  Uiso   1.00
H620   H     0.76387   0.69150   0.20411   0.00000  Uiso   1.00
H621   H     0.76479   0.71256   0.30064   0.00000  Uiso   1.00
H622   H     0.78062   0.97952   0.30478   0.00000  Uiso   1.00
H623   H     0.98598   0.71850   0.36843   0.00000  Uiso   1.00
H624   H     0.91910   0.74175   0.34395   0.00000  Uiso   1.00
H625   H     0.91932   0.68667   0.38258   0.00000  Uiso   1.00
H626   H     0.89717   0.99628   0.29023   0.00000  Uiso   1.00
H627   H     0.94777   0.96120   0.32533   0.00000  Uiso   1.00
H628   H     0.89845   0.86446   0.10086   0.00000  Uiso   1.00
H629   H     0.77478   0.79870   0.38838   0.00000  Uiso   1.00
H630   H     0.68992   0.75027   0.10489   0.00000  Uiso   1.00
H631   H     0.95932   0.88205   0.40834   0.00000  Uiso   1.00
H632   H     0.98395   0.88928   0.49605   0.00000  Uiso   1.00
H633   H     0.98530   0.71266   0.02484   0.00000  Uiso   1.00
H634   H     0.82920   0.78796   0.21891   0.00000  Uiso   1.00
N635   N     0.81362   0.81883   0.23740   0.00000  Uiso   1.00
N636   N     0.85305   0.84784   0.26261   0.00000  Uiso   1.00
N637   N     0.80179   0.82732   0.11148   0.00000  Uiso   1.00
N638   N     0.80271   0.71785   0.42020   0.00000  Uiso   1.00
O639   O     0.96386   0.91298   0.25310   0.00000  Uiso   1.00
O640   O     0.70281   0.75369   0.24691   0.00000  Uiso   1.00
O641   O     0.72488   0.90368   0.24502   0.00000  Uiso   1.00
O642   O     0.94178   0.76298   0.25499   0.00000  Uiso   1.00
O643   O     0.96995   0.84063   0.32247   0.00000  Uiso   1.00
O644   O     0.69672   0.82603   0.17753   0.00000  Uiso   1.00
O645   O     0.73098   0.83134   0.31439   0.00000  Uiso   1.00
O646   O     0.93569   0.83533   0.18561   0.00000  Uiso   1.00
Zn647  Zn    0.93700   0.83954   0.25540   0.00000  Uiso   1.00
Zn648  Zn    0.72967   0.82713   0.24461   0.00000  Uiso   1.00
C649   C     0.01659   0.26507   0.75494   0.00000  Uiso   1.00
C650   C     0.31108   0.16057   0.65911   0.00000  Uiso   1.00
C651   C     0.03247   0.17236   0.89305   0.00000  Uiso   1.00
C652   C     0.29671   0.14406   0.60811   0.00000  Uiso   1.00
C653   C     0.01060   0.20140   0.97308   0.00000  Uiso   1.00
C654   C     0.29844   0.07849   0.54142   0.00000  Uiso   1.00
C655   C     0.32994   0.19728   0.92329   0.00000  Uiso   1.00
C656   C     0.32154   0.10128   0.58633   0.00000  Uiso   1.00
C657   C     0.07976   0.14873   0.91260   0.00000  Uiso   1.00
C658   C     0.24895   0.16326   0.58478   0.00000  Uiso   1.00
C659   C     0.09255   0.14956   0.96243   0.00000  Uiso   1.00
C660   C     0.32023   0.06908   0.75794   0.00000  Uiso   1.00
C661   C     0.21978   0.13475   0.54461   0.00000  Uiso   1.00
C662   C     0.05965   0.17943   0.99268   0.00000  Uiso   1.00
C663   C     0.24671   0.09454   0.52061   0.00000  Uiso   1.00
C664   C     0.14084   0.12591   0.98245   0.00000  Uiso   1.00
C665   C     0.16340   0.14445   0.52911   0.00000  Uiso   1.00
C666   C     0.13686   0.10603   0.62524   0.00000  Uiso   1.00
C667   C     0.08928   0.01632   0.93413   0.00000  Uiso   1.00
C668   C     0.09266   0.00675   0.78017   0.00000  Uiso   1.00
C669   C     0.12389   0.00900   0.73398   0.00000  Uiso   1.00
C670   C     0.27339   0.00011   0.81025   0.00000  Uiso   1.00
C671   C     0.12657   0.16694   0.56086   0.00000  Uiso   1.00
C672   C     0.27463   0.03951   0.85379   0.00000  Uiso   1.00
C673   C     0.16638   0.08346   0.95903   0.00000  Uiso   1.00
C674   C     0.07595   0.18623   0.54206   0.00000  Uiso   1.00
C675   C     0.21920   0.06831   0.97867   0.00000  Uiso   1.00
C676   C     0.02962   0.32014   0.76964   0.00000  Uiso   1.00
C677   C     0.31881   0.01682   0.77695   0.00000  Uiso   1.00
C678   C     0.02184   0.17090   0.84082   0.00000  Uiso   1.00
H679   H     0.04897   0.20552   0.56607   0.00000  Uiso   1.00
H680   H     0.17154   0.21093   0.78356   0.00000  Uiso   1.00
H681   H     0.11389   0.18496   0.63338   0.00000  Uiso   1.00
H682   H     0.18031   0.09968   0.64133   0.00000  Uiso   1.00
H683   H     0.12626   0.07681   0.59393   0.00000  Uiso   1.00
H684   H     0.10560   0.09725   0.65190   0.00000  Uiso   1.00
H685   H     0.16157   0.03171   0.89809   0.00000  Uiso   1.00
H686   H     0.06709   0.32763   0.90144   0.00000  Uiso   1.00
H687   H     0.05767   0.03940   0.95170   0.00000  Uiso   1.00
H688   H     0.10575   0.32052   0.95937   0.00000  Uiso   1.00
H689   H     0.16412   0.03488   0.74103   0.00000  Uiso   1.00
H690   H     0.23777   0.03478   0.96230   0.00000  Uiso   1.00
H691   H     0.13522   0.30231   0.72205   0.00000  Uiso   1.00
H692   H     0.09720   0.02484   0.70411   0.00000  Uiso   1.00
H693   H     0.09812   0.04589   0.80064   0.00000  Uiso   1.00
H694   H     0.11396   0.31285   0.80478   0.00000  Uiso   1.00
H695   H     0.31931   0.05183   0.86843   0.00000  Uiso   1.00
H696   H     0.25243   0.07508   0.84395   0.00000  Uiso   1.00
H697   H     0.25266   0.02001   0.88258   0.00000  Uiso   1.00
H698   H     0.23050   0.32961   0.79023   0.00000  Uiso   1.00
H699   H     0.28110   0.29453   0.82533   0.00000  Uiso   1.00
H700   H     0.23178   0.19780   0.60086   0.00000  Uiso   1.00
H701   H     0.10811   0.13203   0.88838   0.00000  Uiso   1.00
H702   H     0.02325   0.08360   0.60489   0.00000  Uiso   1.00
H703   H     0.29265   0.21539   0.90834   0.00000  Uiso   1.00
H704   H     0.31728   0.22261   0.99605   0.00000  Uiso   1.00
H705   H     0.31864   0.04600   0.52484   0.00000  Uiso   1.00
H706   H     0.16254   0.12129   0.71891   0.00000  Uiso   1.00
N707   N     0.14695   0.15216   0.73740   0.00000  Uiso   1.00
N708   N     0.18638   0.18117   0.76261   0.00000  Uiso   1.00
N709   N     0.13513   0.16065   0.61148   0.00000  Uiso   1.00
N710   N     0.13604   0.05119   0.92020   0.00000  Uiso   1.00
O711   O     0.29719   0.24631   0.75310   0.00000  Uiso   1.00
O712   O     0.03614   0.08702   0.74691   0.00000  Uiso   1.00
O713   O     0.05822   0.23702   0.74502   0.00000  Uiso   1.00
O714   O     0.27512   0.09632   0.75499   0.00000  Uiso   1.00
O715   O     0.30328   0.17397   0.82247   0.00000  Uiso   1.00
O716   O     0.03005   0.15937   0.67753   0.00000  Uiso   1.00
O717   O     0.06431   0.16467   0.81439   0.00000  Uiso   1.00
O718   O     0.26902   0.16866   0.68561   0.00000  Uiso   1.00
Zn719  Zn    0.27033   0.17287   0.75540   0.00000  Uiso   1.00
Zn720  Zn    0.06300   0.16046   0.74461   0.00000  Uiso   1.00
C721   C     0.34992   0.26507   0.75494   0.00000  Uiso   1.00
C722   C     0.64441   0.16057   0.65911   0.00000  Uiso   1.00
C723   C     0.36580   0.17236   0.89305   0.00000  Uiso   1.00
C724   C     0.63005   0.14406   0.60811   0.00000  Uiso   1.00
C725   C     0.34394   0.20140   0.97308   0.00000  Uiso   1.00
C726   C     0.63177   0.07849   0.54142   0.00000  Uiso   1.00
C727   C     0.66328   0.19728   0.92329   0.00000  Uiso   1.00
C728   C     0.65487   0.10128   0.58633   0.00000  Uiso   1.00
C729   C     0.41310   0.14873   0.91260   0.00000  Uiso   1.00
C730   C     0.58228   0.16326   0.58478   0.00000  Uiso   1.00
C731   C     0.42589   0.14956   0.96243   0.00000  Uiso   1.00
C732   C     0.65356   0.06908   0.75794   0.00000  Uiso   1.00
C733   C     0.55311   0.13475   0.54461   0.00000  Uiso   1.00
C734   C     0.39299   0.17943   0.99268   0.00000  Uiso   1.00
C735   C     0.58004   0.09454   0.52061   0.00000  Uiso   1.00
C736   C     0.47417   0.12591   0.98245   0.00000  Uiso   1.00
C737   C     0.49673   0.14445   0.52911   0.00000  Uiso   1.00
C738   C     0.47020   0.10603   0.62524   0.00000  Uiso   1.00
C739   C     0.42261   0.01632   0.93413   0.00000  Uiso   1.00
C740   C     0.42600   0.00675   0.78017   0.00000  Uiso   1.00
C741   C     0.45722   0.00900   0.73398   0.00000  Uiso   1.00
C742   C     0.60673   0.00011   0.81025   0.00000  Uiso   1.00
C743   C     0.45990   0.16694   0.56086   0.00000  Uiso   1.00
C744   C     0.60797   0.03951   0.85379   0.00000  Uiso   1.00
C745   C     0.49971   0.08346   0.95903   0.00000  Uiso   1.00
C746   C     0.40929   0.18623   0.54206   0.00000  Uiso   1.00
C747   C     0.55253   0.06831   0.97867   0.00000  Uiso   1.00
C748   C     0.36295   0.32014   0.76964   0.00000  Uiso   1.00
C749   C     0.65214   0.01682   0.77695   0.00000  Uiso   1.00
C750   C     0.35518   0.17090   0.84082   0.00000  Uiso   1.00
H751   H     0.38230   0.20552   0.56607   0.00000  Uiso   1.00
H752   H     0.50487   0.21093   0.78356   0.00000  Uiso   1.00
H753   H     0.44722   0.18496   0.63338   0.00000  Uiso   1.00
H754   H     0.51364   0.09968   0.64133   0.00000  Uiso   1.00
H755   H     0.45959   0.07681   0.59393   0.00000  Uiso   1.00
H756   H     0.43894   0.09725   0.65190   0.00000  Uiso   1.00
H757   H     0.49490   0.03171   0.89809   0.00000  Uiso   1.00
H758   H     0.40042   0.32763   0.90144   0.00000  Uiso   1.00
H759   H     0.39100   0.03940   0.95170   0.00000  Uiso   1.00
H760   H     0.43908   0.32052   0.95937   0.00000  Uiso   1.00
H761   H     0.49745   0.03488   0.74103   0.00000  Uiso   1.00
H762   H     0.57110   0.03478   0.96230   0.00000  Uiso   1.00
H763   H     0.46855   0.30231   0.72205   0.00000  Uiso   1.00
H764   H     0.43054   0.02484   0.70411   0.00000  Uiso   1.00
H765   H     0.43146   0.04589   0.80064   0.00000  Uiso   1.00
H766   H     0.44729   0.31285   0.80478   0.00000  Uiso   1.00
H767   H     0.65265   0.05183   0.86843   0.00000  Uiso   1.00
H768   H     0.58577   0.07508   0.84395   0.00000  Uiso   1.00
H769   H     0.58599   0.02001   0.88258   0.00000  Uiso   1.00
H770   H     0.56384   0.32961   0.79023   0.00000  Uiso   1.00
H771   H     0.61444   0.29453   0.82533   0.00000  Uiso   1.00
H772   H     0.56512   0.19780   0.60086   0.00000  Uiso   1.00
H773   H     0.44144   0.13203   0.88838   0.00000  Uiso   1.00
H774   H     0.35659   0.08360   0.60489   0.00000  Uiso   1.00
H775   H     0.62598   0.21539   0.90834   0.00000  Uiso   1.00
H776   H     0.65062   0.22261   0.99605   0.00000  Uiso   1.00
H777   H     0.65197   0.04600   0.52484   0.00000  Uiso   1.00
H778   H     0.49587   0.12129   0.71891   0.00000  Uiso   1.00
N779   N     0.48029   0.15216   0.73740   0.00000  Uiso   1.00
N780   N     0.51971   0.18117   0.76261   0.00000  Uiso   1.00
N781   N     0.46846   0.16065   0.61148   0.00000  Uiso   1.00
N782   N     0.46937   0.05119   0.92020   0.00000  Uiso   1.00
O783   O     0.63052   0.24631   0.75310   0.00000  Uiso   1.00
O784   O     0.36948   0.08702   0.74691   0.00000  Uiso   1.00
O785   O     0.39155   0.23702   0.74502   0.00000  Uiso   1.00
O786   O     0.60845   0.09632   0.75499   0.00000  Uiso   1.00
O787   O     0.63662   0.17397   0.82247   0.00000  Uiso   1.00
O788   O     0.36338   0.15937   0.67753   0.00000  Uiso   1.00
O789   O     0.39764   0.16467   0.81439   0.00000  Uiso   1.00
O790   O     0.60236   0.16866   0.68561   0.00000  Uiso   1.00
Zn791  Zn    0.60366   0.17287   0.75540   0.00000  Uiso   1.00
Zn792  Zn    0.39634   0.16046   0.74461   0.00000  Uiso   1.00
C793   C     0.68325   0.26507   0.75494   0.00000  Uiso   1.00
C794   C     0.97774   0.16057   0.65911   0.00000  Uiso   1.00
C795   C     0.69913   0.17236   0.89305   0.00000  Uiso   1.00
C796   C     0.96338   0.14406   0.60811   0.00000  Uiso   1.00
C797   C     0.67727   0.20140   0.97308   0.00000  Uiso   1.00
C798   C     0.96511   0.07849   0.54142   0.00000  Uiso   1.00
C799   C     0.99661   0.19728   0.92329   0.00000  Uiso   1.00
C800   C     0.98821   0.10128   0.58633   0.00000  Uiso   1.00
C801   C     0.74643   0.14873   0.91260   0.00000  Uiso   1.00
C802   C     0.91561   0.16326   0.58478   0.00000  Uiso   1.00
C803   C     0.75922   0.14956   0.96243   0.00000  Uiso   1.00
C804   C     0.98689   0.06908   0.75794   0.00000  Uiso   1.00
C805   C     0.88644   0.13475   0.54461   0.00000  Uiso   1.00
C806   C     0.72632   0.17943   0.99268   0.00000  Uiso   1.00
C807   C     0.91338   0.09454   0.52061   0.00000  Uiso   1.00
C808   C     0.80750   0.12591   0.98245   0.00000  Uiso   1.00
C809   C     0.83006   0.14445   0.52911   0.00000  Uiso   1.00
C810   C     0.80353   0.10603   0.62524   0.00000  Uiso   1.00
C811   C     0.75594   0.01632   0.93413   0.00000  Uiso   1.00
C812   C     0.75933   0.00675   0.78017   0.00000  Uiso   1.00
C813   C     0.79055   0.00900   0.73398   0.00000  Uiso   1.00
C814   C     0.94006   0.00011   0.81025   0.00000  Uiso   1.00
C815   C     0.79324   0.16694   0.56086   0.00000  Uiso   1.00
C816   C     0.94130   0.03951   0.85379   0.00000  Uiso   1.00
C817   C     0.83305   0.08346   0.95903   0.00000  Uiso   1.00
C818   C     0.74262   0.18623   0.54206   0.00000  Uiso   1.00
C819   C     0.88586   0.06831   0.97867   0.00000  Uiso   1.00
C820   C     0.69629   0.32014   0.76964   0.00000  Uiso   1.00
C821   C     0.98547   0.01682   0.77695   0.00000  Uiso   1.00
C822   C     0.68851   0.17090   0.84082   0.00000  Uiso   1.00
H823   H     0.71564   0.20552   0.56607   0.00000  Uiso   1.00
H824   H     0.83821   0.21093   0.78356   0.00000  Uiso   1.00
H825   H     0.78055   0.18496   0.63338   0.00000  Uiso   1.00
H826   H     0.84697   0.09968   0.64133   0.00000  Uiso   1.00
H827   H     0.79292   0.07681   0.59393   0.00000  Uiso   1.00
H828   H     0.77227   0.09725   0.65190   0.00000  Uiso   1.00
H829   H     0.82823   0.03171   0.89809   0.00000  Uiso   1.00
H830   H     0.73376   0.32763   0.90144   0.00000  Uiso   1.00
H831   H     0.72433   0.03940   0.95170   0.00000  Uiso   1.00
H832   H     0.77241   0.32052   0.95937   0.00000  Uiso   1.00
H833   H     0.83079   0.03488   0.74103   0.00000  Uiso   1.00
H834   H     0.90444   0.03478   0.96230   0.00000  Uiso   1.00
H835   H     0.80189   0.30231   0.72205   0.00000  Uiso   1.00
H836   H     0.76387   0.02484   0.70411   0.00000  Uiso   1.00
H837   H     0.76479   0.04589   0.80064   0.00000  Uiso   1.00
H838   H     0.78062   0.31285   0.80478   0.00000  Uiso   1.00
H839   H     0.98598   0.05183   0.86843   0.00000  Uiso   1.00
H840   H     0.91910   0.07508   0.84395   0.00000  Uiso   1.00
H841   H     0.91932   0.02001   0.88258   0.00000  Uiso   1.00
H842   H     0.89717   0.32961   0.79023   0.00000  Uiso   1.00
H843   H     0.94777   0.29453   0.82533   0.00000  Uiso   1.00
H844   H     0.89845   0.19780   0.60086   0.00000  Uiso   1.00
H845   H     0.77478   0.13203   0.88838   0.00000  Uiso   1.00
H846   H     0.68992   0.08360   0.60489   0.00000  Uiso   1.00
H847   H     0.95932   0.21539   0.90834   0.00000  Uiso   1.00
H848   H     0.98395   0.22261   0.99605   0.00000  Uiso   1.00
H849   H     0.98530   0.04600   0.52484   0.00000  Uiso   1.00
H850   H     0.82920   0.12129   0.71891   0.00000  Uiso   1.00
N851   N     0.81362   0.15216   0.73740   0.00000  Uiso   1.00
N852   N     0.85305   0.18117   0.76261   0.00000  Uiso   1.00
N853   N     0.80179   0.16065   0.61148   0.00000  Uiso   1.00
N854   N     0.80271   0.05119   0.92020   0.00000  Uiso   1.00
O855   O     0.96386   0.24631   0.75310   0.00000  Uiso   1.00
O856   O     0.70281   0.08702   0.74691   0.00000  Uiso   1.00
O857   O     0.72488   0.23702   0.74502   0.00000  Uiso   1.00
O858   O     0.94178   0.09632   0.75499   0.00000  Uiso   1.00
O859   O     0.96995   0.17397   0.82247   0.00000  Uiso   1.00
O860   O     0.69672   0.15937   0.67753   0.00000  Uiso   1.00
O861   O     0.73098   0.16467   0.81439   0.00000  Uiso   1.00
O862   O     0.93569   0.16866   0.68561   0.00000  Uiso   1.00
Zn863  Zn    0.93700   0.17287   0.75540   0.00000  Uiso   1.00
Zn864  Zn    0.72967   0.16046   0.74461   0.00000  Uiso   1.00
C865   C     0.01659   0.59841   0.75494   0.00000  Uiso   1.00
C866   C     0.31108   0.49390   0.65911   0.00000  Uiso   1.00
C867   C     0.03247   0.50569   0.89305   0.00000  Uiso   1.00
C868   C     0.29671   0.47739   0.60811   0.00000  Uiso   1.00
C869   C     0.01060   0.53473   0.97308   0.00000  Uiso   1.00
C870   C     0.29844   0.41182   0.54142   0.00000  Uiso   1.00
C871   C     0.32994   0.53062   0.92329   0.00000  Uiso   1.00
C872   C     0.32154   0.43461   0.58633   0.00000  Uiso   1.00
C873   C     0.07976   0.48206   0.91260   0.00000  Uiso   1.00
C874   C     0.24895   0.49659   0.58478   0.00000  Uiso   1.00
C875   C     0.09255   0.48289   0.96243   0.00000  Uiso   1.00
C876   C     0.32023   0.40242   0.75794   0.00000  Uiso   1.00
C877   C     0.21978   0.46808   0.54461   0.00000  Uiso   1.00
C878   C     0.05965   0.51276   0.99268   0.00000  Uiso   1.00
C879   C     0.24671   0.42787   0.52061   0.00000  Uiso   1.00
C880   C     0.14084   0.45924   0.98245   0.00000  Uiso   1.00
C881   C     0.16340   0.47778   0.52911   0.00000  Uiso   1.00
C882   C     0.13686   0.43937   0.62524   0.00000  Uiso   1.00
C883   C     0.08928   0.34965   0.93413   0.00000  Uiso   1.00
C884   C     0.09266   0.34008   0.78017   0.00000  Uiso   1.00
C885   C     0.12389   0.34233   0.73398   0.00000  Uiso   1.00
C886   C     0.27339   0.33345   0.81025   0.00000  Uiso   1.00
C887   C     0.12657   0.50027   0.56086   0.00000  Uiso   1.00
C888   C     0.27463   0.37285   0.85379   0.00000  Uiso   1.00
C889   C     0.16638   0.41679   0.95903   0.00000  Uiso   1.00
C890   C     0.07595   0.51957   0.54206   0.00000  Uiso   1.00
C891   C     0.21920   0.40164   0.97867   0.00000  Uiso   1.00
C892   C     0.02962   0.65348   0.76964   0.00000  Uiso   1.00
C893   C     0.31881   0.35016   0.77695   0.00000  Uiso   1.00
C894   C     0.02184   0.50423   0.84082   0.00000  Uiso   1.00
H895   H     0.04897   0.53885   0.56607   0.00000  Uiso   1.00
H896   H     0.17154   0.54426   0.78356   0.00000  Uiso   1.00
H897   H     0.11389   0.51830   0.63338   0.00000  Uiso   1.00
H898   H     0.18031   0.43302   0.64133   0.00000  Uiso   1.00
H899   H     0.12626   0.41014   0.59393   0.00000  Uiso   1.00
H900   H     0.10560   0.43058   0.65190   0.00000  Uiso   1.00
H901   H     0.16157   0.36504   0.89809   0.00000  Uiso   1.00
H902   H     0.06709   0.66097   0.90144   0.00000  Uiso   1.00
H903   H     0.05767   0.37273   0.95170   0.00000  Uiso   1.00
H904   H     0.10575   0.65385   0.95937   0.00000  Uiso   1.00
H905   H     0.16412   0.36821   0.74103   0.00000  Uiso   1.00
H906   H     0.23777   0.36812   0.96230   0.00000  Uiso   1.00
H907   H     0.13522   0.63564   0.72205   0.00000  Uiso   1.00
H908   H     0.09720   0.35817   0.70411   0.00000  Uiso   1.00
H909   H     0.09812   0.37922   0.80064   0.00000  Uiso   1.00
H910   H     0.11396   0.64619   0.80478   0.00000  Uiso   1.00
H911   H     0.31931   0.38517   0.86843   0.00000  Uiso   1.00
H912   H     0.25243   0.40841   0.84395   0.00000  Uiso   1.00
H913   H     0.25266   0.35334   0.88258   0.00000  Uiso   1.00
H914   H     0.23050   0.66294   0.79023   0.00000  Uiso   1.00
H915   H     0.28110   0.62786   0.82533   0.00000  Uiso   1.00
H916   H     0.23178   0.53113   0.60086   0.00000  Uiso   1.00
H917   H     0.10811   0.46537   0.88838   0.00000  Uiso   1.00
H918   H     0.02325   0.41694   0.60489   0.00000  Uiso   1.00
H919   H     0.29265   0.54872   0.90834   0.00000  Uiso   1.00
H920   H     0.31728   0.55595   0.99605   0.00000  Uiso   1.00
H921   H     0.31864   0.37933   0.52484   0.00000  Uiso   1.00
H922   H     0.16254   0.45462   0.71891   0.00000  Uiso   1.00
N923   N     0.14695   0.48550   0.73740   0.00000  Uiso   1.00
N924   N     0.18638   0.51450   0.76261   0.00000  Uiso   1.00
N925   N     0.13513   0.49399   0.61148   0.00000  Uiso   1.00
N926   N     0.13604   0.38452   0.92020   0.00000  Uiso   1.00
O927   O     0.29719   0.57964   0.75310   0.00000  Uiso   1.00
O928   O     0.03614   0.42036   0.74691   0.00000  Uiso   1.00
O929   O     0.05822   0.57035   0.74502   0.00000  Uiso   1.00
O930   O     0.27512   0.42965   0.75499   0.00000  Uiso   1.00
O931   O     0.30328   0.50730   0.82247   0.00000  Uiso   1.00
O932   O     0.03005   0.49270   0.67753   0.00000  Uiso   1.00
O933   O     0.06431   0.49801   0.81439   0.00000  Uiso   1.00
O934   O     0.26902   0.50199   0.68561   0.00000  Uiso   1.00
Zn935  Zn    0.27033   0.50621   0.75540   0.00000  Uiso   1.00
Zn936  Zn    0.06300   0.49379   0.74461   0.00000  Uiso   1.00
C937   C     0.34992   0.59841   0.75494   0.00000  Uiso   1.00
C938   C     0.64441   0.49390   0.65911   0.00000  Uiso   1.00
C939   C     0.36580   0.50569   0.89305   0.00000  Uiso   1.00
C940   C     0.63005   0.47739   0.60811   0.00000  Uiso   1.00
C941   C     0.34394   0.53473   0.97308   0.00000  Uiso   1.00
C942   C     0.63177   0.41182   0.54142   0.00000  Uiso   1.00
C943   C     0.66328   0.53062   0.92329   0.00000  Uiso   1.00
C944   C     0.65487   0.43461   0.58633   0.00000  Uiso   1.00
C945   C     0.41310   0.48206   0.91260   0.00000  Uiso   1.00
C946   C     0.58228   0.49659   0.58478   0.00000  Uiso   1.00
C947   C     0.42589   0.48289   0.96243   0.00000  Uiso   1.00
C948   C     0.65356   0.40242   0.75794   0.00000  Uiso   1.00
C949   C     0.55311   0.46808   0.54461   0.00000  Uiso   1.00
C950   C     0.39299   0.51276   0.99268   0.00000  Uiso   1.00
C951   C     0.58004   0.42787   0.52061   0.00000  Uiso   1.00
C952   C     0.47417   0.45924   0.98245   0.00000  Uiso   1.00
C953   C     0.49673   0.47778   0.52911   0.00000  Uiso   1.00
C954   C     0.47020   0.43937   0.62524   0.00000  Uiso   1.00
C955   C     0.42261   0.34965   0.93413   0.00000  Uiso   1.00
C956   C     0.42600   0.34008   0.78017   0.00000  Uiso   1.00
C957   C     0.45722   0.34233   0.73398   0.00000  Uiso   1.00
C958   C     0.60673   0.33345   0.81025   0.00000  Uiso   1.00
C959   C     0.45990   0.50027   0.56086   0.00000  Uiso   1.00
C960   C     0.60797   0.37285   0.85379   0.00000  Uiso   1.00
C961   C     0.49971   0.41679   0.95903   0.00000  Uiso   1.00
C962   C     0.40929   0.51957   0.54206   0.00000  Uiso   1.00
C963   C     0.55253   0.40164   0.97867   0.00000  Uiso   1.00
C964   C     0.36295   0.65348   0.76964   0.00000  Uiso   1.00
C965   C     0.65214   0.35016   0.77695   0.00000  Uiso   1.00
C966   C     0.35518   0.50423   0.84082   0.00000  Uiso   1.00
H967   H     0.38230   0.53885   0.56607   0.00000  Uiso   1.00
H968   H     0.50487   0.54426   0.78356   0.00000  Uiso   1.00
H969   H     0.44722   0.51830   0.63338   0.00000  Uiso   1.00
H970   H     0.51364   0.43302   0.64133   0.00000  Uiso   1.00
H971   H     0.45959   0.41014   0.59393   0.00000  Uiso   1.00
H972   H     0.43894   0.43058   0.65190   0.00000  Uiso   1.00
H973   H     0.49490   0.36504   0.89809   0.00000  Uiso   1.00
H974   H     0.40042   0.66097   0.90144   0.00000  Uiso   1.00
H975   H     0.39100   0.37273   0.95170   0.00000  Uiso   1.00
H976   H     0.43908   0.65385   0.95937   0.00000  Uiso   1.00
H977   H     0.49745   0.36821   0.74103   0.00000  Uiso   1.00
H978   H     0.57110   0.36812   0.96230   0.00000  Uiso   1.00
H979   H     0.46855   0.63564   0.72205   0.00000  Uiso   1.00
H980   H     0.43054   0.35817   0.70411   0.00000  Uiso   1.00
H981   H     0.43146   0.37922   0.80064   0.00000  Uiso   1.00
H982   H     0.44729   0.64619   0.80478   0.00000  Uiso   1.00
H983   H     0.65265   0.38517   0.86843   0.00000  Uiso   1.00
H984   H     0.58577   0.40841   0.84395   0.00000  Uiso   1.00
H985   H     0.58599   0.35334   0.88258   0.00000  Uiso   1.00
H986   H     0.56384   0.66294   0.79023   0.00000  Uiso   1.00
H987   H     0.61444   0.62786   0.82533   0.00000  Uiso   1.00
H988   H     0.56512   0.53113   0.60086   0.00000  Uiso   1.00
H989   H     0.44144   0.46537   0.88838   0.00000  Uiso   1.00
H990   H     0.35659   0.41694   0.60489   0.00000  Uiso   1.00
H991   H     0.62598   0.54872   0.90834   0.00000  Uiso   1.00
H992   H     0.65062   0.55595   0.99605   0.00000  Uiso   1.00
H993   H     0.65197   0.37933   0.52484   0.00000  Uiso   1.00
H994   H     0.49587   0.45462   0.71891   0.00000  Uiso   1.00
N995   N     0.48029   0.48550   0.73740   0.00000  Uiso   1.00
N996   N     0.51971   0.51450   0.76261   0.00000  Uiso   1.00
N997   N     0.46846   0.49399   0.61148   0.00000  Uiso   1.00
N998   N     0.46937   0.38452   0.92020   0.00000  Uiso   1.00
O999   O     0.63052   0.57964   0.75310   0.00000  Uiso   1.00
O1000  O     0.36948   0.42036   0.74691   0.00000  Uiso   1.00
O1001  O     0.39155   0.57035   0.74502   0.00000  Uiso   1.00
O1002  O     0.60845   0.42965   0.75499   0.00000  Uiso   1.00
O1003  O     0.63662   0.50730   0.82247   0.00000  Uiso   1.00
O1004  O     0.36338   0.49270   0.67753   0.00000  Uiso   1.00
O1005  O     0.39764   0.49801   0.81439   0.00000  Uiso   1.00
O1006  O     0.60236   0.50199   0.68561   0.00000  Uiso   1.00
Zn1007 Zn    0.60366   0.50621   0.75540   0.00000  Uiso   1.00
Zn1008 Zn    0.39634   0.49379   0.74461   0.00000  Uiso   1.00
C1009  C     0.68325   0.59841   0.75494   0.00000  Uiso   1.00
C1010  C     0.97774   0.49390   0.65911   0.00000  Uiso   1.00
C1011  C     0.69913   0.50569   0.89305   0.00000  Uiso   1.00
C1012  C     0.96338   0.47739   0.60811   0.00000  Uiso   1.00
C1013  C     0.67727   0.53473   0.97308   0.00000  Uiso   1.00
C1014  C     0.96511   0.41182   0.54142   0.00000  Uiso   1.00
C1015  C     0.99661   0.53062   0.92329   0.00000  Uiso   1.00
C1016  C     0.98821   0.43461   0.58633   0.00000  Uiso   1.00
C1017  C     0.74643   0.48206   0.91260   0.00000  Uiso   1.00
C1018  C     0.91561   0.49659   0.58478   0.00000  Uiso   1.00
C1019  C     0.75922   0.48289   0.96243   0.00000  Uiso   1.00
C1020  C     0.98689   0.40242   0.75794   0.00000  Uiso   1.00
C1021  C     0.88644   0.46808   0.54461   0.00000  Uiso   1.00
C1022  C     0.72632   0.51276   0.99268   0.00000  Uiso   1.00
C1023  C     0.91338   0.42787   0.52061   0.00000  Uiso   1.00
C1024  C     0.80750   0.45924   0.98245   0.00000  Uiso   1.00
C1025  C     0.83006   0.47778   0.52911   0.00000  Uiso   1.00
C1026  C     0.80353   0.43937   0.62524   0.00000  Uiso   1.00
C1027  C     0.75594   0.34965   0.93413   0.00000  Uiso   1.00
C1028  C     0.75933   0.34008   0.78017   0.00000  Uiso   1.00
C1029  C     0.79055   0.34233   0.73398   0.00000  Uiso   1.00
C1030  C     0.94006   0.33345   0.81025   0.00000  Uiso   1.00
C1031  C     0.79324   0.50027   0.56086   0.00000  Uiso   1.00
C1032  C     0.94130   0.37285   0.85379   0.00000  Uiso   1.00
C1033  C     0.83305   0.41679   0.95903   0.00000  Uiso   1.00
C1034  C     0.74262   0.51957   0.54206   0.00000  Uiso   1.00
C1035  C     0.88586   0.40164   0.97867   0.00000  Uiso   1.00
C1036  C     0.69629   0.65348   0.76964   0.00000  Uiso   1.00
C1037  C     0.98547   0.35016   0.77695   0.00000  Uiso   1.00
C1038  C     0.68851   0.50423   0.84082   0.00000  Uiso   1.00
H1039  H     0.71564   0.53885   0.56607   0.00000  Uiso   1.00
H1040  H     0.83821   0.54426   0.78356   0.00000  Uiso   1.00
H1041  H     0.78055   0.51830   0.63338   0.00000  Uiso   1.00
H1042  H     0.84697   0.43302   0.64133   0.00000  Uiso   1.00
H1043  H     0.79292   0.41014   0.59393   0.00000  Uiso   1.00
H1044  H     0.77227   0.43058   0.65190   0.00000  Uiso   1.00
H1045  H     0.82823   0.36504   0.89809   0.00000  Uiso   1.00
H1046  H     0.73376   0.66097   0.90144   0.00000  Uiso   1.00
H1047  H     0.72433   0.37273   0.95170   0.00000  Uiso   1.00
H1048  H     0.77241   0.65385   0.95937   0.00000  Uiso   1.00
H1049  H     0.83079   0.36821   0.74103   0.00000  Uiso   1.00
H1050  H     0.90444   0.36812   0.96230   0.00000  Uiso   1.00
H1051  H     0.80189   0.63564   0.72205   0.00000  Uiso   1.00
H1052  H     0.76387   0.35817   0.70411   0.00000  Uiso   1.00
H1053  H     0.76479   0.37922   0.80064   0.00000  Uiso   1.00
H1054  H     0.78062   0.64619   0.80478   0.00000  Uiso   1.00
H1055  H     0.98598   0.38517   0.86843   0.00000  Uiso   1.00
H1056  H     0.91910   0.40841   0.84395   0.00000  Uiso   1.00
H1057  H     0.91932   0.35334   0.88258   0.00000  Uiso   1.00
H1058  H     0.89717   0.66294   0.79023   0.00000  Uiso   1.00
H1059  H     0.94777   0.62786   0.82533   0.00000  Uiso   1.00
H1060  H     0.89845   0.53113   0.60086   0.00000  Uiso   1.00
H1061  H     0.77478   0.46537   0.88838   0.00000  Uiso   1.00
H1062  H     0.68992   0.41694   0.60489   0.00000  Uiso   1.00
H1063  H     0.95932   0.54872   0.90834   0.00000  Uiso   1.00
H1064  H     0.98395   0.55595   0.99605   0.00000  Uiso   1.00
H1065  H     0.98530   0.37933   0.52484   0.00000  Uiso   1.00
H1066  H     0.82920   0.45462   0.71891   0.00000  Uiso   1.00
N1067  N     0.81362   0.48550   0.73740   0.00000  Uiso   1.00
N1068  N     0.85305   0.51450   0.76261   0.00000  Uiso   1.00
N1069  N     0.80179   0.49399   0.61148   0.00000  Uiso   1.00
N1070  N     0.80271   0.38452   0.92020   0.00000  Uiso   1.00
O1071  O     0.96386   0.57964   0.75310   0.00000  Uiso   1.00
O1072  O     0.70281   0.42036   0.74691   0.00000  Uiso   1.00
O1073  O     0.72488   0.57035   0.74502   0.00000  Uiso   1.00
O1074  O     0.94178   0.42965   0.75499   0.00000  Uiso   1.00
O1075  O     0.96995   0.50730   0.82247   0.00000  Uiso   1.00
O1076  O     0.69672   0.49270   0.67753   0.00000  Uiso   1.00
O1077  O     0.73098   0.49801   0.81439   0.00000  Uiso   1.00
O1078  O     0.93569   0.50199   0.68561   0.00000  Uiso   1.00
Zn1079 Zn    0.93700   0.50621   0.75540   0.00000  Uiso   1.00
Zn1080 Zn    0.72967   0.49379   0.74461   0.00000  Uiso   1.00
C1081  C     0.01659   0.93174   0.75494   0.00000  Uiso   1.00
C1082  C     0.31108   0.82723   0.65911   0.00000  Uiso   1.00
C1083  C     0.03247   0.83902   0.89305   0.00000  Uiso   1.00
C1084  C     0.29671   0.81073   0.60811   0.00000  Uiso   1.00
C1085  C     0.01060   0.86806   0.97308   0.00000  Uiso   1.00
C1086  C     0.29844   0.74515   0.54142   0.00000  Uiso   1.00
C1087  C     0.32994   0.86395   0.92329   0.00000  Uiso   1.00
C1088  C     0.32154   0.76794   0.58633   0.00000  Uiso   1.00
C1089  C     0.07976   0.81540   0.91260   0.00000  Uiso   1.00
C1090  C     0.24895   0.82992   0.58478   0.00000  Uiso   1.00
C1091  C     0.09255   0.81623   0.96243   0.00000  Uiso   1.00
C1092  C     0.32023   0.73575   0.75794   0.00000  Uiso   1.00
C1093  C     0.21978   0.80141   0.54461   0.00000  Uiso   1.00
C1094  C     0.05965   0.84610   0.99268   0.00000  Uiso   1.00
C1095  C     0.24671   0.76120   0.52061   0.00000  Uiso   1.00
C1096  C     0.14084   0.79258   0.98245   0.00000  Uiso   1.00
C1097  C     0.16340   0.81111   0.52911   0.00000  Uiso   1.00
C1098  C     0.13686   0.77270   0.62524   0.00000  Uiso   1.00
C1099  C     0.08928   0.68299   0.93413   0.00000  Uiso   1.00
C1100  C     0.09266   0.67342   0.78017   0.00000  Uiso   1.00
C1101  C     0.12389   0.67566   0.73398   0.00000  Uiso   1.00
C1102  C     0.27339   0.66678   0.81025   0.00000  Uiso   1.00
C1103  C     0.12657   0.83361   0.56086   0.00000  Uiso   1.00
C1104  C     0.27463   0.70618   0.85379   0.00000  Uiso   1.00
C1105  C     0.16638   0.75012   0.95903   0.00000  Uiso   1.00
C1106  C     0.07595   0.85290   0.54206   0.00000  Uiso   1.00
C1107  C     0.21920   0.73497   0.97867   0.00000  Uiso   1.00
C1108  C     0.02962   0.98681   0.76964   0.00000  Uiso   1.00
C1109  C     0.31881   0.68349   0.77695   0.00000  Uiso   1.00
C1110  C     0.02184   0.83757   0.84082   0.00000  Uiso   1.00
H1111  H     0.04897   0.87218   0.56607   0.00000  Uiso   1.00
H1112  H     0.17154   0.87760   0.78356   0.00000  Uiso   1.00
H1113  H     0.11389   0.85163   0.63338   0.00000  Uiso   1.00
H1114  H     0.18031   0.76635   0.64133   0.00000  Uiso   1.00
H1115  H     0.12626   0.74348   0.59393   0.00000  Uiso   1.00
H1116  H     0.10560   0.76391   0.65190   0.00000  Uiso   1.00
H1117  H     0.16157   0.69838   0.89809   0.00000  Uiso   1.00
H1118  H     0.06709   0.99430   0.90144   0.00000  Uiso   1.00
H1119  H     0.05767   0.70607   0.95170   0.00000  Uiso   1.00
H1120  H     0.10575   0.98719   0.95937   0.00000  Uiso   1.00
H1121  H     0.16412   0.70155   0.74103   0.00000  Uiso   1.00
H1122  H     0.23777   0.70145   0.96230   0.00000  Uiso   1.00
H1123  H     0.13522   0.96898   0.72205   0.00000  Uiso   1.00
H1124  H     0.09720   0.69150   0.70411   0.00000  Uiso   1.00
H1125  H     0.09812   0.71256   0.80064   0.00000  Uiso   1.00
H1126  H     0.11396   0.97952   0.80478   0.00000  Uiso   1.00
H1127  H     0.31931   0.71850   0.86843   0.00000  Uiso   1.00
H1128  H     0.25243   0.74175   0.84395   0.00000  Uiso   1.00
H1129  H     0.25266   0.68667   0.88258   0.00000  Uiso   1.00
H1130  H     0.23050   0.99628   0.79023   0.00000  Uiso   1.00
H1131  H     0.28110   0.96120   0.82533   0.00000  Uiso   1.00
H1132  H     0.23178   0.86446   0.60086   0.00000  Uiso   1.00
H1133  H     0.10811   0.79870   0.88838   0.00000  Uiso   1.00
H1134  H     0.02325   0.75027   0.60489   0.00000  Uiso   1.00
H1135  H     0.29265   0.88205   0.90834   0.00000  Uiso   1.00
H1136  H     0.31728   0.88928   0.99605   0.00000  Uiso   1.00
H1137  H     0.31864   0.71266   0.52484   0.00000  Uiso   1.00
H1138  H     0.16254   0.78796   0.71891   0.00000  Uiso   1.00
N1139  N     0.14695   0.81883   0.73740   0.00000  Uiso   1.00
N1140  N     0.18638   0.84784   0.76261   0.00000  Uiso   1.00
N1141  N     0.13513   0.82732   0.61148   0.00000  Uiso   1.00
N1142  N     0.13604   0.71785   0.92020   0.00000  Uiso   1.00
O1143  O     0.29719   0.91298   0.75310   0.00000  Uiso   1.00
O1144  O     0.03614   0.75369   0.74691   0.00000  Uiso   1.00
O1145  O     0.05822   0.90368   0.74502   0.00000  Uiso   1.00
O1146  O     0.27512   0.76298   0.75499   0.00000  Uiso   1.00
O1147  O     0.30328   0.84063   0.82247   0.00000  Uiso   1.00
O1148  O     0.03005   0.82603   0.67753   0.00000  Uiso   1.00
O1149  O     0.06431   0.83134   0.81439   0.00000  Uiso   1.00
O1150  O     0.26902   0.83533   0.68561   0.00000  Uiso   1.00
Zn1151 Zn    0.27033   0.83954   0.75540   0.00000  Uiso   1.00
Zn1152 Zn    0.06300   0.82713   0.74461   0.00000  Uiso   1.00
C1153  C     0.34992   0.93174   0.75494   0.00000  Uiso   1.00
C1154  C     0.64441   0.82723   0.65911   0.00000  Uiso   1.00
C1155  C     0.36580   0.83902   0.89305   0.00000  Uiso   1.00
C1156  C     0.63005   0.81073   0.60811   0.00000  Uiso   1.00
C1157  C     0.34394   0.86806   0.97308   0.00000  Uiso   1.00
C1158  C     0.63177   0.74515   0.54142   0.00000  Uiso   1.00
C1159  C     0.66328   0.86395   0.92329   0.00000  Uiso   1.00
C1160  C     0.65487   0.76794   0.58633   0.00000  Uiso   1.00
C1161  C     0.41310   0.81540   0.91260   0.00000  Uiso   1.00
C1162  C     0.58228   0.82992   0.58478   0.00000  Uiso   1.00
C1163  C     0.42589   0.81623   0.96243   0.00000  Uiso   1.00
C1164  C     0.65356   0.73575   0.75794   0.00000  Uiso   1.00
C1165  C     0.55311   0.80141   0.54461   0.00000  Uiso   1.00
C1166  C     0.39299   0.84610   0.99268   0.00000  Uiso   1.00
C1167  C     0.58004   0.76120   0.52061   0.00000  Uiso   1.00
C1168  C     0.47417   0.79258   0.98245   0.00000  Uiso   1.00
C1169  C     0.49673   0.81111   0.52911   0.00000  Uiso   1.00
C1170  C     0.47020   0.77270   0.62524   0.00000  Uiso   1.00
C1171  C     0.42261   0.68299   0.93413   0.00000  Uiso   1.00
C1172  C     0.42600   0.67342   0.78017   0.00000  Uiso   1.00
C1173  C     0.45722   0.67566   0.73398   0.00000  Uiso   1.00
C1174  C     0.60673   0.66678   0.81025   0.00000  Uiso   1.00
C1175  C     0.45990   0.83361   0.56086   0.00000  Uiso   1.00
C1176  C     0.60797   0.70618   0.85379   0.00000  Uiso   1.00
C1177  C     0.49971   0.75012   0.95903   0.00000  Uiso   1.00
C1178  C     0.40929   0.85290   0.54206   0.00000  Uiso   1.00
C1179  C     0.55253   0.73497   0.97867   0.00000  Uiso   1.00
C1180  C     0.36295   0.98681   0.76964   0.00000  Uiso   1.00
C1181  C     0.65214   0.68349   0.77695   0.00000  Uiso   1.00
C1182  C     0.35518   0.83757   0.84082   0.00000  Uiso   1.00
H1183  H     0.38230   0.87218   0.56607   0.00000  Uiso   1.00
H1184  H     0.50487   0.87760   0.78356   0.00000  Uiso   1.00
H1185  H     0.44722   0.85163   0.63338   0.00000  Uiso   1.00
H1186  H     0.51364   0.76635   0.64133   0.00000  Uiso   1.00
H1187  H     0.45959   0.74348   0.59393   0.00000  Uiso   1.00
H1188  H     0.43894   0.76391   0.65190   0.00000  Uiso   1.00
H1189  H     0.49490   0.69838   0.89809   0.00000  Uiso   1.00
H1190  H     0.40042   0.99430   0.90144   0.00000  Uiso   1.00
H1191  H     0.39100   0.70607   0.95170   0.00000  Uiso   1.00
H1192  H     0.43908   0.98719   0.95937   0.00000  Uiso   1.00
H1193  H     0.49745   0.70155   0.74103   0.00000  Uiso   1.00
H1194  H     0.57110   0.70145   0.96230   0.00000  Uiso   1.00
H1195  H     0.46855   0.96898   0.72205   0.00000  Uiso   1.00
H1196  H     0.43054   0.69150   0.70411   0.00000  Uiso   1.00
H1197  H     0.43146   0.71256   0.80064   0.00000  Uiso   1.00
H1198  H     0.44729   0.97952   0.80478   0.00000  Uiso   1.00
H1199  H     0.65265   0.71850   0.86843   0.00000  Uiso   1.00
H1200  H     0.58577   0.74175   0.84395   0.00000  Uiso   1.00
H1201  H     0.58599   0.68667   0.88258   0.00000  Uiso   1.00
H1202  H     0.56384   0.99628   0.79023   0.00000  Uiso   1.00
H1203  H     0.61444   0.96120   0.82533   0.00000  Uiso   1.00
H1204  H     0.56512   0.86446   0.60086   0.00000  Uiso   1.00
H1205  H     0.44144   0.79870   0.88838   0.00000  Uiso   1.00
H1206  H     0.35659   0.75027   0.60489   0.00000  Uiso   1.00
H1207  H     0.62598   0.88205   0.90834   0.00000  Uiso   1.00
H1208  H     0.65062   0.88928   0.99605   0.00000  Uiso   1.00
H1209  H     0.65197   0.71266   0.52484   0.00000  Uiso   1.00
H1210  H     0.49587   0.78796   0.71891   0.00000  Uiso   1.00
N1211  N     0.48029   0.81883   0.73740   0.00000  Uiso   1.00
N1212  N     0.51971   0.84784   0.76261   0.00000  Uiso   1.00
N1213  N     0.46846   0.82732   0.61148   0.00000  Uiso   1.00
N1214  N     0.46937   0.71785   0.92020   0.00000  Uiso   1.00
O1215  O     0.63052   0.91298   0.75310   0.00000  Uiso   1.00
O1216  O     0.36948   0.75369   0.74691   0.00000  Uiso   1.00
O1217  O     0.39155   0.90368   0.74502   0.00000  Uiso   1.00
O1218  O     0.60845   0.76298   0.75499   0.00000  Uiso   1.00
O1219  O     0.63662   0.84063   0.82247   0.00000  Uiso   1.00
O1220  O     0.36338   0.82603   0.67753   0.00000  Uiso   1.00
O1221  O     0.39764   0.83134   0.81439   0.00000  Uiso   1.00
O1222  O     0.60236   0.83533   0.68561   0.00000  Uiso   1.00
Zn1223 Zn    0.60366   0.83954   0.75540   0.00000  Uiso   1.00
Zn1224 Zn    0.39634   0.82713   0.74461   0.00000  Uiso   1.00
C1225  C     0.68325   0.93174   0.75494   0.00000  Uiso   1.00
C1226  C     0.97774   0.82723   0.65911   0.00000  Uiso   1.00
C1227  C     0.69913   0.83902   0.89305   0.00000  Uiso   1.00
C1228  C     0.96338   0.81073   0.60811   0.00000  Uiso   1.00
C1229  C     0.67727   0.86806   0.97308   0.00000  Uiso   1.00
C1230  C     0.96511   0.74515   0.54142   0.00000  Uiso   1.00
C1231  C     0.99661   0.86395   0.92329   0.00000  Uiso   1.00
C1232  C     0.98821   0.76794   0.58633   0.00000  Uiso   1.00
C1233  C     0.74643   0.81540   0.91260   0.00000  Uiso   1.00
C1234  C     0.91561   0.82992   0.58478   0.00000  Uiso   1.00
C1235  C     0.75922   0.81623   0.96243   0.00000  Uiso   1.00
C1236  C     0.98689   0.73575   0.75794   0.00000  Uiso   1.00
C1237  C     0.88644   0.80141   0.54461   0.00000  Uiso   1.00
C1238  C     0.72632   0.84610   0.99268   0.00000  Uiso   1.00
C1239  C     0.91338   0.76120   0.52061   0.00000  Uiso   1.00
C1240  C     0.80750   0.79258   0.98245   0.00000  Uiso   1.00
C1241  C     0.83006   0.81111   0.52911   0.00000  Uiso   1.00
C1242  C     0.80353   0.77270   0.62524   0.00000  Uiso   1.00
C1243  C     0.75594   0.68299   0.93413   0.00000  Uiso   1.00
C1244  C     0.75933   0.67342   0.78017   0.00000  Uiso   1.00
C1245  C     0.79055   0.67566   0.73398   0.00000  Uiso   1.00
C1246  C     0.94006   0.66678   0.81025   0.00000  Uiso   1.00
C1247  C     0.79324   0.83361   0.56086   0.00000  Uiso   1.00
C1248  C     0.94130   0.70618   0.85379   0.00000  Uiso   1.00
C1249  C     0.83305   0.75012   0.95903   0.00000  Uiso   1.00
C1250  C     0.74262   0.85290   0.54206   0.00000  Uiso   1.00
C1251  C     0.88586   0.73497   0.97867   0.00000  Uiso   1.00
C1252  C     0.69629   0.98681   0.76964   0.00000  Uiso   1.00
C1253  C     0.98547   0.68349   0.77695   0.00000  Uiso   1.00
C1254  C     0.68851   0.83757   0.84082   0.00000  Uiso   1.00
H1255  H     0.71564   0.87218   0.56607   0.00000  Uiso   1.00
H1256  H     0.83821   0.87760   0.78356   0.00000  Uiso   1.00
H1257  H     0.78055   0.85163   0.63338   0.00000  Uiso   1.00
H1258  H     0.84697   0.76635   0.64133   0.00000  Uiso   1.00
H1259  H     0.79292   0.74348   0.59393   0.00000  Uiso   1.00
H1260  H     0.77227   0.76391   0.65190   0.00000  Uiso   1.00
H1261  H     0.82823   0.69838   0.89809   0.00000  Uiso   1.00
H1262  H     0.73376   0.99430   0.90144   0.00000  Uiso   1.00
H1263  H     0.72433   0.70607   0.95170   0.00000  Uiso   1.00
H1264  H     0.77241   0.98719   0.95937   0.00000  Uiso   1.00
H1265  H     0.83079   0.70155   0.74103   0.00000  Uiso   1.00
H1266  H     0.90444   0.70145   0.96230   0.00000  Uiso   1.00
H1267  H     0.80189   0.96898   0.72205   0.00000  Uiso   1.00
H1268  H     0.76387   0.69150   0.70411   0.00000  Uiso   1.00
H1269  H     0.76479   0.71256   0.80064   0.00000  Uiso   1.00
H1270  H     0.78062   0.97952   0.80478   0.00000  Uiso   1.00
H1271  H     0.98598   0.71850   0.86843   0.00000  Uiso   1.00
H1272  H     0.91910   0.74175   0.84395   0.00000  Uiso   1.00
H1273  H     0.91932   0.68667   0.88258   0.00000  Uiso   1.00
H1274  H     0.89717   0.99628   0.79023   0.00000  Uiso   1.00
H1275  H     0.94777   0.96120   0.82533   0.00000  Uiso   1.00
H1276  H     0.89845   0.86446   0.60086   0.00000  Uiso   1.00
H1277  H     0.77478   0.79870   0.88838   0.00000  Uiso   1.00
H1278  H     0.68992   0.75027   0.60489   0.00000  Uiso   1.00
H1279  H     0.95932   0.88205   0.90834   0.00000  Uiso   1.00
H1280  H     0.98395   0.88928   0.99605   0.00000  Uiso   1.00
H1281  H     0.98530   0.71266   0.52484   0.00000  Uiso   1.00
H1282  H     0.82920   0.78796   0.71891   0.00000  Uiso   1.00
N1283  N     0.81362   0.81883   0.73740   0.00000  Uiso   1.00
N1284  N     0.85305   0.84784   0.76261   0.00000  Uiso   1.00
N1285  N     0.80179   0.82732   0.61148   0.00000  Uiso   1.00
N1286  N     0.80271   0.71785   0.92020   0.00000  Uiso   1.00
O1287  O     0.96386   0.91298   0.75310   0.00000  Uiso   1.00
O1288  O     0.70281   0.75369   0.74691   0.00000  Uiso   1.00
O1289  O     0.72488   0.90368   0.74502   0.00000  Uiso   1.00
O1290  O     0.94178   0.76298   0.75499   0.00000  Uiso   1.00
O1291  O     0.96995   0.84063   0.82247   0.00000  Uiso   1.00
O1292  O     0.69672   0.82603   0.67753   0.00000  Uiso   1.00
O1293  O     0.73098   0.83134   0.81439   0.00000  Uiso   1.00
O1294  O     0.93569   0.83533   0.68561   0.00000  Uiso   1.00
Zn1295 Zn    0.93700   0.83954   0.75540   0.00000  Uiso   1.00
Zn1296 Zn    0.72967   0.82713   0.74461   0.00000  Uiso   1.00
loop_
_geom_bond_atom_site_label_1
_geom_bond_atom_site_label_2
_geom_bond_distance
_geom_bond_site_symmetry_2
_ccdc_geom_bond_type
C1     C28     1.436   .     S
C1     O65     1.294   .     A
C1     O207    1.291   1_455 S
C2     C4      1.462   .     S
C2     O70     1.305   .     A
C2     O140    1.297   .     S
C3     C9      1.388   .     A
C3     C30     1.450   .     S
C3     C151    1.402   1_455 S
C4     C10     1.384   .     A
C4     C8      1.405   .     A
C5     C14     1.401   .     A
C5     C151    1.392   1_455 S
C5     H200    1.084   1_455 S
C6     H57     1.084   .     S
C6     C8      1.397   .     A
C6     C15     1.402   .     A
C7     H55     1.083   .     S
C7     C75     1.402   .     S
C7     C77     1.392   .     S
C8     H126    1.075   .     S
C9     C11     1.391   .     A
C9     H53     1.080   .     S
C10    H52     1.083   .     S
C10    C13     1.398   .     A
C11    C14     1.419   .     A
C11    C16     1.411   .     A
C12    C29     1.447   .     S
C12    O66     1.309   .     A
C12    O136    1.279   .     S
C13    C17     1.405   .     A
C13    C15     1.409   .     A
C14    C674    1.392   .     S
C15    C675    1.396   1_554 S
C16    C25     1.427   .     A
C16    C665    1.403   .     S
C17    C23     1.417   .     A
C17    C664    1.403   1_554 S
C18    N61     1.455   .     S
C18    H35     1.113   .     S
C18    H34     1.108   .     S
C18    H36     1.105   .     S
C19    H39     1.111   .     S
C19    N62     1.448   .     S
C19    H470    1.111   1_545 S
C19    H472    1.112   1_545 S
C20    H45     1.111   .     S
C20    C21     1.533   .     S
C20    C460    1.530   1_545 S
C20    H478    1.112   1_545 S
C21    H41     1.107   .     S
C21    H44     1.109   .     S
C21    H475    1.109   1_545 S
C22    C29     1.521   .     S
C22    C24     1.526   .     S
C22    H482    1.106   1_545 S
C22    H483    1.111   1_545 S
C23    N61     1.423   .     S
C23    C26     1.394   .     A
C24    H47     1.111   .     S
C24    H49     1.105   .     S
C24    H48     1.110   .     S
C25    N62     1.427   .     S
C25    C27     1.404   .     A
C26    H31     1.083   .     S
C26    C662    1.392   1_554 S
C27    H42     1.082   .     S
C27    C663    1.396   .     S
C28    C236    1.530   .     S
C28    C389    1.357   1_455 S
C29    C532    1.357   1_545 S
C30    O69     1.304   .     A
C30    O211    1.294   1_455 S
H32    N60     1.029   .     S
H33    N61     1.030   .     S
H37    N62     1.029   .     S
H38    C235    1.111   .     S
H40    C235    1.112   .     S
H43    C237    1.109   .     S
H46    C236    1.112   .     S
H50    C238    1.106   .     S
H51    C238    1.111   .     S
H54    C152    1.075   1_455 S
H56    C77     1.084   .     S
H58    N59     1.022   .     S
N59    Zn72    2.029   .     S
N59    N60     1.275   .     D
N60    Zn71    2.029   .     S
O63    Zn71    1.923   .     S
O63    C73     1.291   .     S
O64    Zn72    1.923   .     S
O64    C156    1.279   1_455 S
O65    Zn72    1.949   .     S
O66    Zn71    1.949   .     S
O67    Zn71    1.956   .     S
O67    C102    1.294   .     S
O68    Zn72    1.956   .     S
O68    C146    1.297   1_455 S
O69    Zn72    1.934   .     S
O70    Zn71    1.934   .     S
C73    C100    1.436   .     S
C73    O137    1.294   .     A
C74    C76     1.462   .     S
C74    O142    1.305   .     A
C74    O212    1.297   .     S
C75    C81     1.388   .     A
C75    C102    1.450   .     S
C76    C82     1.384   .     A
C76    C80     1.405   .     A
C77    C86     1.401   .     A
C78    H129    1.084   .     S
C78    C80     1.397   .     A
C78    C87     1.402   .     A
C79    H127    1.083   .     S
C79    C147    1.402   .     S
C79    C149    1.392   .     S
C80    H198    1.075   .     S
C81    C83     1.391   .     A
C81    H125    1.080   .     S
C82    H124    1.083   .     S
C82    C85     1.398   .     A
C83    C86     1.419   .     A
C83    C88     1.411   .     A
C84    C101    1.447   .     S
C84    O138    1.309   .     A
C84    O208    1.279   .     S
C85    C89     1.405   .     A
C85    C87     1.409   .     A
C86    C746    1.392   .     S
C87    C747    1.396   1_554 S
C88    C97     1.427   .     A
C88    C737    1.403   .     S
C89    C95     1.417   .     A
C89    C736    1.403   1_554 S
C90    N133    1.455   .     S
C90    H107    1.113   .     S
C90    H106    1.108   .     S
C90    H108    1.105   .     S
C91    H111    1.111   .     S
C91    N134    1.448   .     S
C91    H542    1.111   1_545 S
C91    H544    1.112   1_545 S
C92    H117    1.111   .     S
C92    C93     1.533   .     S
C92    C532    1.530   1_545 S
C92    H550    1.112   1_545 S
C93    H113    1.107   .     S
C93    H116    1.109   .     S
C93    H547    1.109   1_545 S
C94    C101    1.521   .     S
C94    C96     1.526   .     S
C94    H554    1.106   1_545 S
C94    H555    1.111   1_545 S
C95    N133    1.423   .     S
C95    C98     1.394   .     A
C96    H119    1.111   .     S
C96    H121    1.105   .     S
C96    H120    1.110   .     S
C97    N134    1.427   .     S
C97    C99     1.404   .     A
C98    H103    1.083   .     S
C98    C734    1.392   1_554 S
C99    H114    1.082   .     S
C99    C735    1.396   .     S
C100   C308    1.530   .     S
C100   C245    1.357   .     S
C101   C604    1.357   1_545 S
C102   O141    1.304   .     A
H104   N132    1.029   .     S
H105   N133    1.030   .     S
H109   N134    1.029   .     S
H110   C307    1.111   .     S
H112   C307    1.112   .     S
H115   C309    1.109   .     S
H118   C308    1.112   .     S
H122   C310    1.106   .     S
H123   C310    1.111   .     S
H128   C149    1.084   .     S
H130   N131    1.022   .     S
N131   Zn144   2.029   .     S
N131   N132    1.275   .     D
N132   Zn143   2.029   .     S
O135   Zn143   1.923   .     S
O135   C145    1.291   .     S
O136   Zn144   1.923   .     S
O137   Zn144   1.949   .     S
O138   Zn143   1.949   .     S
O139   Zn143   1.956   .     S
O139   C174    1.294   .     S
O140   Zn144   1.956   .     S
O141   Zn144   1.934   .     S
O142   Zn143   1.934   .     S
C145   C172    1.436   .     S
C145   O209    1.294   .     A
C146   C148    1.462   .     S
C146   O214    1.305   .     A
C146   O68     1.297   1_655 S
C147   C153    1.388   .     A
C147   C174    1.450   .     S
C148   C154    1.384   .     A
C148   C152    1.405   .     A
C149   C158    1.401   .     A
C150   H201    1.084   .     S
C150   C152    1.397   .     A
C150   C159    1.402   .     A
C151   H199    1.083   .     S
C151   C3      1.402   1_655 S
C151   C5      1.392   1_655 S
C152   H54     1.075   1_655 S
C153   C155    1.391   .     A
C153   H197    1.080   .     S
C154   H196    1.083   .     S
C154   C157    1.398   .     A
C155   C158    1.419   .     A
C155   C160    1.411   .     A
C156   C173    1.447   .     S
C156   O210    1.309   .     A
C156   O64     1.279   1_655 S
C157   C161    1.405   .     A
C157   C159    1.409   .     A
C158   C818    1.392   .     S
C159   C819    1.396   1_554 S
C160   C169    1.427   .     A
C160   C809    1.403   .     S
C161   C167    1.417   .     A
C161   C808    1.403   1_554 S
C162   N205    1.455   .     S
C162   H179    1.113   .     S
C162   H178    1.108   .     S
C162   H180    1.105   .     S
C163   H183    1.111   .     S
C163   N206    1.448   .     S
C163   H614    1.111   1_545 S
C163   H616    1.112   1_545 S
C164   H189    1.111   .     S
C164   C165    1.533   .     S
C164   C604    1.530   1_545 S
C164   H622    1.112   1_545 S
C165   H185    1.107   .     S
C165   H188    1.109   .     S
C165   H619    1.109   1_545 S
C166   C173    1.521   .     S
C166   C168    1.526   .     S
C166   H626    1.106   1_545 S
C166   H627    1.111   1_545 S
C167   N205    1.423   .     S
C167   C170    1.394   .     A
C168   H191    1.111   .     S
C168   H193    1.105   .     S
C168   H192    1.110   .     S
C169   N206    1.427   .     S
C169   C171    1.404   .     A
C170   H175    1.083   .     S
C170   C806    1.392   1_554 S
C171   H186    1.082   .     S
C171   C807    1.396   .     S
C172   C380    1.530   .     S
C172   C317    1.357   .     S
C173   C460    1.357   1_645 S
C174   O213    1.304   .     A
H176   N204    1.029   .     S
H177   N205    1.030   .     S
H181   N206    1.029   .     S
H182   C379    1.111   .     S
H184   C379    1.112   .     S
H187   C381    1.109   .     S
H190   C380    1.112   .     S
H194   C382    1.106   .     S
H195   C382    1.111   .     S
H200   C5      1.084   1_655 S
H202   N203    1.022   .     S
N203   Zn216   2.029   .     S
N203   N204    1.275   .     D
N204   Zn215   2.029   .     S
O207   Zn215   1.923   .     S
O207   C1      1.291   1_655 S
O208   Zn216   1.923   .     S
O209   Zn216   1.949   .     S
O210   Zn215   1.949   .     S
O211   Zn215   1.956   .     S
O211   C30     1.294   1_655 S
O212   Zn216   1.956   .     S
O213   Zn216   1.934   .     S
O214   Zn215   1.934   .     S
C217   C244    1.436   .     S
C217   O281    1.294   .     A
C217   O423    1.291   1_455 S
C218   C220    1.462   .     S
C218   O286    1.305   .     A
C218   O356    1.297   .     S
C219   C225    1.388   .     A
C219   C246    1.450   .     S
C219   C367    1.402   1_455 S
C220   C226    1.384   .     A
C220   C224    1.405   .     A
C221   C230    1.401   .     A
C221   C367    1.392   1_455 S
C221   H416    1.084   1_455 S
C222   H273    1.084   .     S
C222   C224    1.397   .     A
C222   C231    1.402   .     A
C223   H271    1.083   .     S
C223   C291    1.402   .     S
C223   C293    1.392   .     S
C224   H342    1.075   .     S
C225   C227    1.391   .     A
C225   H269    1.080   .     S
C226   H268    1.083   .     S
C226   C229    1.398   .     A
C227   C230    1.419   .     A
C227   C232    1.411   .     A
C228   C245    1.447   .     S
C228   O282    1.309   .     A
C228   O352    1.279   .     S
C229   C233    1.405   .     A
C229   C231    1.409   .     A
C230   C890    1.392   .     S
C231   C891    1.396   1_554 S
C232   C241    1.427   .     A
C232   C881    1.403   .     S
C233   C239    1.417   .     A
C233   C880    1.403   1_554 S
C234   N277    1.455   .     S
C234   H251    1.113   .     S
C234   H250    1.108   .     S
C234   H252    1.105   .     S
C235   H255    1.111   .     S
C235   N278    1.448   .     S
C236   H261    1.111   .     S
C236   C237    1.533   .     S
C237   H257    1.107   .     S
C237   H260    1.109   .     S
C238   C245    1.521   .     S
C238   C240    1.526   .     S
C239   N277    1.423   .     S
C239   C242    1.394   .     A
C240   H263    1.111   .     S
C240   H265    1.105   .     S
C240   H264    1.110   .     S
C241   N278    1.427   .     S
C241   C243    1.404   .     A
C242   H247    1.083   .     S
C242   C878    1.392   1_554 S
C243   H258    1.082   .     S
C243   C879    1.396   .     S
C244   C452    1.530   .     S
C244   C605    1.357   1_455 S
C246   O285    1.304   .     A
C246   O427    1.294   1_455 S
H248   N276    1.029   .     S
H249   N277    1.030   .     S
H253   N278    1.029   .     S
H254   C451    1.111   .     S
H256   C451    1.112   .     S
H259   C453    1.109   .     S
H262   C452    1.112   .     S
H266   C454    1.106   .     S
H267   C454    1.111   .     S
H270   C368    1.075   1_455 S
H272   C293    1.084   .     S
H274   N275    1.022   .     S
N275   Zn288   2.029   .     S
N275   N276    1.275   .     D
N276   Zn287   2.029   .     S
O279   Zn287   1.923   .     S
O279   C289    1.291   .     S
O280   Zn288   1.923   .     S
O280   C372    1.279   1_455 S
O281   Zn288   1.949   .     S
O282   Zn287   1.949   .     S
O283   Zn287   1.956   .     S
O283   C318    1.294   .     S
O284   Zn288   1.956   .     S
O284   C362    1.297   1_455 S
O285   Zn288   1.934   .     S
O286   Zn287   1.934   .     S
C289   C316    1.436   .     S
C289   O353    1.294   .     A
C290   C292    1.462   .     S
C290   O358    1.305   .     A
C290   O428    1.297   .     S
C291   C297    1.388   .     A
C291   C318    1.450   .     S
C292   C298    1.384   .     A
C292   C296    1.405   .     A
C293   C302    1.401   .     A
C294   H345    1.084   .     S
C294   C296    1.397   .     A
C294   C303    1.402   .     A
C295   H343    1.083   .     S
C295   C363    1.402   .     S
C295   C365    1.392   .     S
C296   H414    1.075   .     S
C297   C299    1.391   .     A
C297   H341    1.080   .     S
C298   H340    1.083   .     S
C298   C301    1.398   .     A
C299   C302    1.419   .     A
C299   C304    1.411   .     A
C300   C317    1.447   .     S
C300   O354    1.309   .     A
C300   O424    1.279   .     S
C301   C305    1.405   .     A
C301   C303    1.409   .     A
C302   C962    1.392   .     S
C303   C963    1.396   1_554 S
C304   C313    1.427   .     A
C304   C953    1.403   .     S
C305   C311    1.417   .     A
C305   C952    1.403   1_554 S
C306   N349    1.455   .     S
C306   H323    1.113   .     S
C306   H322    1.108   .     S
C306   H324    1.105   .     S
C307   H327    1.111   .     S
C307   N350    1.448   .     S
C308   H333    1.111   .     S
C308   C309    1.533   .     S
C309   H329    1.107   .     S
C309   H332    1.109   .     S
C310   C317    1.521   .     S
C310   C312    1.526   .     S
C311   N349    1.423   .     S
C311   C314    1.394   .     A
C312   H335    1.111   .     S
C312   H337    1.105   .     S
C312   H336    1.110   .     S
C313   N350    1.427   .     S
C313   C315    1.404   .     A
C314   H319    1.083   .     S
C314   C950    1.392   1_554 S
C315   H330    1.082   .     S
C315   C951    1.396   .     S
C316   C524    1.530   .     S
C316   C461    1.357   .     S
C318   O357    1.304   .     A
H320   N348    1.029   .     S
H321   N349    1.030   .     S
H325   N350    1.029   .     S
H326   C523    1.111   .     S
H328   C523    1.112   .     S
H331   C525    1.109   .     S
H334   C524    1.112   .     S
H338   C526    1.106   .     S
H339   C526    1.111   .     S
H344   C365    1.084   .     S
H346   N347    1.022   .     S
N347   Zn360   2.029   .     S
N347   N348    1.275   .     D
N348   Zn359   2.029   .     S
O351   Zn359   1.923   .     S
O351   C361    1.291   .     S
O352   Zn360   1.923   .     S
O353   Zn360   1.949   .     S
O354   Zn359   1.949   .     S
O355   Zn359   1.956   .     S
O355   C390    1.294   .     S
O356   Zn360   1.956   .     S
O357   Zn360   1.934   .     S
O358   Zn359   1.934   .     S
C361   C388    1.436   .     S
C361   O425    1.294   .     A
C362   C364    1.462   .     S
C362   O430    1.305   .     A
C362   O284    1.297   1_655 S
C363   C369    1.388   .     A
C363   C390    1.450   .     S
C364   C370    1.384   .     A
C364   C368    1.405   .     A
C365   C374    1.401   .     A
C366   H417    1.084   .     S
C366   C368    1.397   .     A
C366   C375    1.402   .     A
C367   H415    1.083   .     S
C367   C219    1.402   1_655 S
C367   C221    1.392   1_655 S
C368   H270    1.075   1_655 S
C369   C371    1.391   .     A
C369   H413    1.080   .     S
C370   H412    1.083   .     S
C370   C373    1.398   .     A
C371   C374    1.419   .     A
C371   C376    1.411   .     A
C372   C389    1.447   .     S
C372   O426    1.309   .     A
C372   O280    1.279   1_655 S
C373   C377    1.405   .     A
C373   C375    1.409   .     A
C374   C1034   1.392   .     S
C375   C1035   1.396   1_554 S
C376   C385    1.427   .     A
C376   C1025   1.403   .     S
C377   C383    1.417   .     A
C377   C1024   1.403   1_554 S
C378   N421    1.455   .     S
C378   H395    1.113   .     S
C378   H394    1.108   .     S
C378   H396    1.105   .     S
C379   H399    1.111   .     S
C379   N422    1.448   .     S
C380   H405    1.111   .     S
C380   C381    1.533   .     S
C381   H401    1.107   .     S
C381   H404    1.109   .     S
C382   C389    1.521   .     S
C382   C384    1.526   .     S
C383   N421    1.423   .     S
C383   C386    1.394   .     A
C384   H407    1.111   .     S
C384   H409    1.105   .     S
C384   H408    1.110   .     S
C385   N422    1.427   .     S
C385   C387    1.404   .     A
C386   H391    1.083   .     S
C386   C1022   1.392   1_554 S
C387   H402    1.082   .     S
C387   C1023   1.396   .     S
C388   C596    1.530   .     S
C388   C533    1.357   .     S
C389   C28     1.357   1_655 S
C390   O429    1.304   .     A
H392   N420    1.029   .     S
H393   N421    1.030   .     S
H397   N422    1.029   .     S
H398   C595    1.111   .     S
H400   C595    1.112   .     S
H403   C597    1.109   .     S
H406   C596    1.112   .     S
H410   C598    1.106   .     S
H411   C598    1.111   .     S
H416   C221    1.084   1_655 S
H418   N419    1.022   .     S
N419   Zn432   2.029   .     S
N419   N420    1.275   .     D
N420   Zn431   2.029   .     S
O423   Zn431   1.923   .     S
O423   C217    1.291   1_655 S
O424   Zn432   1.923   .     S
O425   Zn432   1.949   .     S
O426   Zn431   1.949   .     S
O427   Zn431   1.956   .     S
O427   C246    1.294   1_655 S
O428   Zn432   1.956   .     S
O429   Zn432   1.934   .     S
O430   Zn431   1.934   .     S
C433   C460    1.436   .     S
C433   O497    1.294   .     A
C433   O639    1.291   1_455 S
C434   C436    1.462   .     S
C434   O502    1.305   .     A
C434   O572    1.297   .     S
C435   C441    1.388   .     A
C435   C462    1.450   .     S
C435   C583    1.402   1_455 S
C436   C442    1.384   .     A
C436   C440    1.405   .     A
C437   C446    1.401   .     A
C437   C583    1.392   1_455 S
C437   H632    1.084   1_455 S
C438   H489    1.084   .     S
C438   C440    1.397   .     A
C438   C447    1.402   .     A
C439   H487    1.083   .     S
C439   C507    1.402   .     S
C439   C509    1.392   .     S
C440   H558    1.075   .     S
C441   C443    1.391   .     A
C441   H485    1.080   .     S
C442   H484    1.083   .     S
C442   C445    1.398   .     A
C443   C446    1.419   .     A
C443   C448    1.411   .     A
C444   C461    1.447   .     S
C444   O498    1.309   .     A
C444   O568    1.279   .     S
C445   C449    1.405   .     A
C445   C447    1.409   .     A
C446   C1106   1.392   .     S
C447   C1107   1.396   1_554 S
C448   C457    1.427   .     A
C448   C1097   1.403   .     S
C449   C455    1.417   .     A
C449   C1096   1.403   1_554 S
C450   N493    1.455   .     S
C450   H467    1.113   .     S
C450   H466    1.108   .     S
C450   H468    1.105   .     S
C451   H471    1.111   .     S
C451   N494    1.448   .     S
C452   H477    1.111   .     S
C452   C453    1.533   .     S
C453   H473    1.107   .     S
C453   H476    1.109   .     S
C454   C461    1.521   .     S
C454   C456    1.526   .     S
C455   N493    1.423   .     S
C455   C458    1.394   .     A
C456   H479    1.111   .     S
C456   H481    1.105   .     S
C456   H480    1.110   .     S
C457   N494    1.427   .     S
C457   C459    1.404   .     A
C458   H463    1.083   .     S
C458   C1094   1.392   1_554 S
C459   H474    1.082   .     S
C459   C1095   1.396   .     S
C460   C20     1.530   1_565 S
C460   C173    1.357   1_465 S
C462   O501    1.304   .     A
C462   O643    1.294   1_455 S
H464   N492    1.029   .     S
H465   N493    1.030   .     S
H469   N494    1.029   .     S
H470   C19     1.111   1_565 S
H472   C19     1.112   1_565 S
H475   C21     1.109   1_565 S
H478   C20     1.112   1_565 S
H482   C22     1.106   1_565 S
H483   C22     1.111   1_565 S
H486   C584    1.075   1_455 S
H488   C509    1.084   .     S
H490   N491    1.022   .     S
N491   Zn504   2.029   .     S
N491   N492    1.275   .     D
N492   Zn503   2.029   .     S
O495   Zn503   1.923   .     S
O495   C505    1.291   .     S
O496   Zn504   1.923   .     S
O496   C588    1.279   1_455 S
O497   Zn504   1.949   .     S
O498   Zn503   1.949   .     S
O499   Zn503   1.956   .     S
O499   C534    1.294   .     S
O500   Zn504   1.956   .     S
O500   C578    1.297   1_455 S
O501   Zn504   1.934   .     S
O502   Zn503   1.934   .     S
C505   C532    1.436   .     S
C505   O569    1.294   .     A
C506   C508    1.462   .     S
C506   O574    1.305   .     A
C506   O644    1.297   .     S
C507   C513    1.388   .     A
C507   C534    1.450   .     S
C508   C514    1.384   .     A
C508   C512    1.405   .     A
C509   C518    1.401   .     A
C510   H561    1.084   .     S
C510   C512    1.397   .     A
C510   C519    1.402   .     A
C511   H559    1.083   .     S
C511   C579    1.402   .     S
C511   C581    1.392   .     S
C512   H630    1.075   .     S
C513   C515    1.391   .     A
C513   H557    1.080   .     S
C514   H556    1.083   .     S
C514   C517    1.398   .     A
C515   C518    1.419   .     A
C515   C520    1.411   .     A
C516   C533    1.447   .     S
C516   O570    1.309   .     A
C516   O640    1.279   .     S
C517   C521    1.405   .     A
C517   C519    1.409   .     A
C518   C1178   1.392   .     S
C519   C1179   1.396   1_554 S
C520   C529    1.427   .     A
C520   C1169   1.403   .     S
C521   C527    1.417   .     A
C521   C1168   1.403   1_554 S
C522   N565    1.455   .     S
C522   H539    1.113   .     S
C522   H538    1.108   .     S
C522   H540    1.105   .     S
C523   H543    1.111   .     S
C523   N566    1.448   .     S
C524   H549    1.111   .     S
C524   C525    1.533   .     S
C525   H545    1.107   .     S
C525   H548    1.109   .     S
C526   C533    1.521   .     S
C526   C528    1.526   .     S
C527   N565    1.423   .     S
C527   C530    1.394   .     A
C528   H551    1.111   .     S
C528   H553    1.105   .     S
C528   H552    1.110   .     S
C529   N566    1.427   .     S
C529   C531    1.404   .     A
C530   H535    1.083   .     S
C530   C1166   1.392   1_554 S
C531   H546    1.082   .     S
C531   C1167   1.396   .     S
C532   C92     1.530   1_565 S
C532   C29     1.357   1_565 S
C534   O573    1.304   .     A
H536   N564    1.029   .     S
H537   N565    1.030   .     S
H541   N566    1.029   .     S
H542   C91     1.111   1_565 S
H544   C91     1.112   1_565 S
H547   C93     1.109   1_565 S
H550   C92     1.112   1_565 S
H554   C94     1.106   1_565 S
H555   C94     1.111   1_565 S
H560   C581    1.084   .     S
H562   N563    1.022   .     S
N563   Zn576   2.029   .     S
N563   N564    1.275   .     D
N564   Zn575   2.029   .     S
O567   Zn575   1.923   .     S
O567   C577    1.291   .     S
O568   Zn576   1.923   .     S
O569   Zn576   1.949   .     S
O570   Zn575   1.949   .     S
O571   Zn575   1.956   .     S
O571   C606    1.294   .     S
O572   Zn576   1.956   .     S
O573   Zn576   1.934   .     S
O574   Zn575   1.934   .     S
C577   C604    1.436   .     S
C577   O641    1.294   .     A
C578   C580    1.462   .     S
C578   O646    1.305   .     A
C578   O500    1.297   1_655 S
C579   C585    1.388   .     A
C579   C606    1.450   .     S
C580   C586    1.384   .     A
C580   C584    1.405   .     A
C581   C590    1.401   .     A
C582   H633    1.084   .     S
C582   C584    1.397   .     A
C582   C591    1.402   .     A
C583   H631    1.083   .     S
C583   C435    1.402   1_655 S
C583   C437    1.392   1_655 S
C584   H486    1.075   1_655 S
C585   C587    1.391   .     A
C585   H629    1.080   .     S
C586   H628    1.083   .     S
C586   C589    1.398   .     A
C587   C590    1.419   .     A
C587   C592    1.411   .     A
C588   C605    1.447   .     S
C588   O642    1.309   .     A
C588   O496    1.279   1_655 S
C589   C593    1.405   .     A
C589   C591    1.409   .     A
C590   C1250   1.392   .     S
C591   C1251   1.396   1_554 S
C592   C601    1.427   .     A
C592   C1241   1.403   .     S
C593   C599    1.417   .     A
C593   C1240   1.403   1_554 S
C594   N637    1.455   .     S
C594   H611    1.113   .     S
C594   H610    1.108   .     S
C594   H612    1.105   .     S
C595   H615    1.111   .     S
C595   N638    1.448   .     S
C596   H621    1.111   .     S
C596   C597    1.533   .     S
C597   H617    1.107   .     S
C597   H620    1.109   .     S
C598   C605    1.521   .     S
C598   C600    1.526   .     S
C599   N637    1.423   .     S
C599   C602    1.394   .     A
C600   H623    1.111   .     S
C600   H625    1.105   .     S
C600   H624    1.110   .     S
C601   N638    1.427   .     S
C601   C603    1.404   .     A
C602   H607    1.083   .     S
C602   C1238   1.392   1_554 S
C603   H618    1.082   .     S
C603   C1239   1.396   .     S
C604   C164    1.530   1_565 S
C604   C101    1.357   1_565 S
C605   C244    1.357   1_655 S
C606   O645    1.304   .     A
H608   N636    1.029   .     S
H609   N637    1.030   .     S
H613   N638    1.029   .     S
H614   C163    1.111   1_565 S
H616   C163    1.112   1_565 S
H619   C165    1.109   1_565 S
H622   C164    1.112   1_565 S
H626   C166    1.106   1_565 S
H627   C166    1.111   1_565 S
H632   C437    1.084   1_655 S
H634   N635    1.022   .     S
N635   Zn648   2.029   .     S
N635   N636    1.275   .     D
N636   Zn647   2.029   .     S
O639   Zn647   1.923   .     S
O639   C433    1.291   1_655 S
O640   Zn648   1.923   .     S
O641   Zn648   1.949   .     S
O642   Zn647   1.949   .     S
O643   Zn647   1.956   .     S
O643   C462    1.294   1_655 S
O644   Zn648   1.956   .     S
O645   Zn648   1.934   .     S
O646   Zn647   1.934   .     S
C649   C676    1.436   .     S
C649   O713    1.294   .     A
C649   O855    1.291   1_455 S
C650   C652    1.462   .     S
C650   O718    1.305   .     A
C650   O788    1.297   .     S
C651   C657    1.388   .     A
C651   C678    1.450   .     S
C651   C799    1.402   1_455 S
C652   C658    1.384   .     A
C652   C656    1.405   .     A
C653   C662    1.401   .     A
C653   C799    1.392   1_455 S
C653   H848    1.084   1_455 S
C654   H705    1.084   .     S
C654   C656    1.397   .     A
C654   C663    1.402   .     A
C655   H703    1.083   .     S
C655   C723    1.402   .     S
C655   C725    1.392   .     S
C656   H774    1.075   .     S
C657   C659    1.391   .     A
C657   H701    1.080   .     S
C658   H700    1.083   .     S
C658   C661    1.398   .     A
C659   C662    1.419   .     A
C659   C664    1.411   .     A
C660   C677    1.447   .     S
C660   O714    1.309   .     A
C660   O784    1.279   .     S
C661   C665    1.405   .     A
C661   C663    1.409   .     A
C662   C26     1.392   1_556 S
C664   C673    1.427   .     A
C664   C17     1.403   1_556 S
C665   C671    1.417   .     A
C666   N709    1.455   .     S
C666   H683    1.113   .     S
C666   H682    1.108   .     S
C666   H684    1.105   .     S
C667   H687    1.111   .     S
C667   N710    1.448   .     S
C667   H1118   1.111   1_545 S
C667   H1120   1.112   1_545 S
C668   H693    1.111   .     S
C668   C669    1.533   .     S
C668   C1108   1.530   1_545 S
C668   H1126   1.112   1_545 S
C669   H689    1.107   .     S
C669   H692    1.109   .     S
C669   H1123   1.109   1_545 S
C670   C677    1.521   .     S
C670   C672    1.526   .     S
C670   H1130   1.106   1_545 S
C670   H1131   1.111   1_545 S
C671   N709    1.423   .     S
C671   C674    1.394   .     A
C672   H695    1.111   .     S
C672   H697    1.105   .     S
C672   H696    1.110   .     S
C673   N710    1.427   .     S
C673   C675    1.404   .     A
C674   H679    1.083   .     S
C675   H690    1.082   .     S
C675   C15     1.396   1_556 S
C676   C884    1.530   .     S
C676   C1037   1.357   1_455 S
C677   C1180   1.357   1_545 S
C678   O717    1.304   .     A
C678   O859    1.294   1_455 S
H680   N708    1.029   .     S
H681   N709    1.030   .     S
H685   N710    1.029   .     S
H686   C883    1.111   .     S
H688   C883    1.112   .     S
H691   C885    1.109   .     S
H694   C884    1.112   .     S
H698   C886    1.106   .     S
H699   C886    1.111   .     S
H702   C800    1.075   1_455 S
H704   C725    1.084   .     S
H706   N707    1.022   .     S
N707   Zn720   2.029   .     S
N707   N708    1.275   .     D
N708   Zn719   2.029   .     S
O711   Zn719   1.923   .     S
O711   C721    1.291   .     S
O712   Zn720   1.923   .     S
O712   C804    1.279   1_455 S
O713   Zn720   1.949   .     S
O714   Zn719   1.949   .     S
O715   Zn719   1.956   .     S
O715   C750    1.294   .     S
O716   Zn720   1.956   .     S
O716   C794    1.297   1_455 S
O717   Zn720   1.934   .     S
O718   Zn719   1.934   .     S
C721   C748    1.436   .     S
C721   O785    1.294   .     A
C722   C724    1.462   .     S
C722   O790    1.305   .     A
C722   O860    1.297   .     S
C723   C729    1.388   .     A
C723   C750    1.450   .     S
C724   C730    1.384   .     A
C724   C728    1.405   .     A
C725   C734    1.401   .     A
C726   H777    1.084   .     S
C726   C728    1.397   .     A
C726   C735    1.402   .     A
C727   H775    1.083   .     S
C727   C795    1.402   .     S
C727   C797    1.392   .     S
C728   H846    1.075   .     S
C729   C731    1.391   .     A
C729   H773    1.080   .     S
C730   H772    1.083   .     S
C730   C733    1.398   .     A
C731   C734    1.419   .     A
C731   C736    1.411   .     A
C732   C749    1.447   .     S
C732   O786    1.309   .     A
C732   O856    1.279   .     S
C733   C737    1.405   .     A
C733   C735    1.409   .     A
C734   C98     1.392   1_556 S
C736   C745    1.427   .     A
C736   C89     1.403   1_556 S
C737   C743    1.417   .     A
C738   N781    1.455   .     S
C738   H755    1.113   .     S
C738   H754    1.108   .     S
C738   H756    1.105   .     S
C739   H759    1.111   .     S
C739   N782    1.448   .     S
C739   H1190   1.111   1_545 S
C739   H1192   1.112   1_545 S
C740   H765    1.111   .     S
C740   C741    1.533   .     S
C740   C1180   1.530   1_545 S
C740   H1198   1.112   1_545 S
C741   H761    1.107   .     S
C741   H764    1.109   .     S
C741   H1195   1.109   1_545 S
C742   C749    1.521   .     S
C742   C744    1.526   .     S
C742   H1202   1.106   1_545 S
C742   H1203   1.111   1_545 S
C743   N781    1.423   .     S
C743   C746    1.394   .     A
C744   H767    1.111   .     S
C744   H769    1.105   .     S
C744   H768    1.110   .     S
C745   N782    1.427   .     S
C745   C747    1.404   .     A
C746   H751    1.083   .     S
C747   H762    1.082   .     S
C747   C87     1.396   1_556 S
C748   C956    1.530   .     S
C748   C893    1.357   .     S
C749   C1252   1.357   1_545 S
C750   O789    1.304   .     A
H752   N780    1.029   .     S
H753   N781    1.030   .     S
H757   N782    1.029   .     S
H758   C955    1.111   .     S
H760   C955    1.112   .     S
H763   C957    1.109   .     S
H766   C956    1.112   .     S
H770   C958    1.106   .     S
H771   C958    1.111   .     S
H776   C797    1.084   .     S
H778   N779    1.022   .     S
N779   Zn792   2.029   .     S
N779   N780    1.275   .     D
N780   Zn791   2.029   .     S
O783   Zn791   1.923   .     S
O783   C793    1.291   .     S
O784   Zn792   1.923   .     S
O785   Zn792   1.949   .     S
O786   Zn791   1.949   .     S
O787   Zn791   1.956   .     S
O787   C822    1.294   .     S
O788   Zn792   1.956   .     S
O789   Zn792   1.934   .     S
O790   Zn791   1.934   .     S
C793   C820    1.436   .     S
C793   O857    1.294   .     A
C794   C796    1.462   .     S
C794   O862    1.305   .     A
C794   O716    1.297   1_655 S
C795   C801    1.388   .     A
C795   C822    1.450   .     S
C796   C802    1.384   .     A
C796   C800    1.405   .     A
C797   C806    1.401   .     A
C798   H849    1.084   .     S
C798   C800    1.397   .     A
C798   C807    1.402   .     A
C799   H847    1.083   .     S
C799   C651    1.402   1_655 S
C799   C653    1.392   1_655 S
C800   H702    1.075   1_655 S
C801   C803    1.391   .     A
C801   H845    1.080   .     S
C802   H844    1.083   .     S
C802   C805    1.398   .     A
C803   C806    1.419   .     A
C803   C808    1.411   .     A
C804   C821    1.447   .     S
C804   O858    1.309   .     A
C804   O712    1.279   1_655 S
C805   C809    1.405   .     A
C805   C807    1.409   .     A
C806   C170    1.392   1_556 S
C808   C817    1.427   .     A
C808   C161    1.403   1_556 S
C809   C815    1.417   .     A
C810   N853    1.455   .     S
C810   H827    1.113   .     S
C810   H826    1.108   .     S
C810   H828    1.105   .     S
C811   H831    1.111   .     S
C811   N854    1.448   .     S
C811   H1262   1.111   1_545 S
C811   H1264   1.112   1_545 S
C812   H837    1.111   .     S
C812   C813    1.533   .     S
C812   C1252   1.530   1_545 S
C812   H1270   1.112   1_545 S
C813   H833    1.107   .     S
C813   H836    1.109   .     S
C813   H1267   1.109   1_545 S
C814   C821    1.521   .     S
C814   C816    1.526   .     S
C814   H1274   1.106   1_545 S
C814   H1275   1.111   1_545 S
C815   N853    1.423   .     S
C815   C818    1.394   .     A
C816   H839    1.111   .     S
C816   H841    1.105   .     S
C816   H840    1.110   .     S
C817   N854    1.427   .     S
C817   C819    1.404   .     A
C818   H823    1.083   .     S
C819   H834    1.082   .     S
C819   C159    1.396   1_556 S
C820   C1028   1.530   .     S
C820   C965    1.357   .     S
C821   C1108   1.357   1_645 S
C822   O861    1.304   .     A
H824   N852    1.029   .     S
H825   N853    1.030   .     S
H829   N854    1.029   .     S
H830   C1027   1.111   .     S
H832   C1027   1.112   .     S
H835   C1029   1.109   .     S
H838   C1028   1.112   .     S
H842   C1030   1.106   .     S
H843   C1030   1.111   .     S
H848   C653    1.084   1_655 S
H850   N851    1.022   .     S
N851   Zn864   2.029   .     S
N851   N852    1.275   .     D
N852   Zn863   2.029   .     S
O855   Zn863   1.923   .     S
O855   C649    1.291   1_655 S
O856   Zn864   1.923   .     S
O857   Zn864   1.949   .     S
O858   Zn863   1.949   .     S
O859   Zn863   1.956   .     S
O859   C678    1.294   1_655 S
O860   Zn864   1.956   .     S
O861   Zn864   1.934   .     S
O862   Zn863   1.934   .     S
C865   C892    1.436   .     S
C865   O929    1.294   .     A
C865   O1071   1.291   1_455 S
C866   C868    1.462   .     S
C866   O934    1.305   .     A
C866   O1004   1.297   .     S
C867   C873    1.388   .     A
C867   C894    1.450   .     S
C867   C1015   1.402   1_455 S
C868   C874    1.384   .     A
C868   C872    1.405   .     A
C869   C878    1.401   .     A
C869   C1015   1.392   1_455 S
C869   H1064   1.084   1_455 S
C870   H921    1.084   .     S
C870   C872    1.397   .     A
C870   C879    1.402   .     A
C871   H919    1.083   .     S
C871   C939    1.402   .     S
C871   C941    1.392   .     S
C872   H990    1.075   .     S
C873   C875    1.391   .     A
C873   H917    1.080   .     S
C874   H916    1.083   .     S
C874   C877    1.398   .     A
C875   C878    1.419   .     A
C875   C880    1.411   .     A
C876   C893    1.447   .     S
C876   O930    1.309   .     A
C876   O1000   1.279   .     S
C877   C881    1.405   .     A
C877   C879    1.409   .     A
C878   C242    1.392   1_556 S
C880   C889    1.427   .     A
C880   C233    1.403   1_556 S
C881   C887    1.417   .     A
C882   N925    1.455   .     S
C882   H899    1.113   .     S
C882   H898    1.108   .     S
C882   H900    1.105   .     S
C883   H903    1.111   .     S
C883   N926    1.448   .     S
C884   H909    1.111   .     S
C884   C885    1.533   .     S
C885   H905    1.107   .     S
C885   H908    1.109   .     S
C886   C893    1.521   .     S
C886   C888    1.526   .     S
C887   N925    1.423   .     S
C887   C890    1.394   .     A
C888   H911    1.111   .     S
C888   H913    1.105   .     S
C888   H912    1.110   .     S
C889   N926    1.427   .     S
C889   C891    1.404   .     A
C890   H895    1.083   .     S
C891   H906    1.082   .     S
C891   C231    1.396   1_556 S
C892   C1100   1.530   .     S
C892   C1253   1.357   1_455 S
C894   O933    1.304   .     A
C894   O1075   1.294   1_455 S
H896   N924    1.029   .     S
H897   N925    1.030   .     S
H901   N926    1.029   .     S
H902   C1099   1.111   .     S
H904   C1099   1.112   .     S
H907   C1101   1.109   .     S
H910   C1100   1.112   .     S
H914   C1102   1.106   .     S
H915   C1102   1.111   .     S
H918   C1016   1.075   1_455 S
H920   C941    1.084   .     S
H922   N923    1.022   .     S
N923   Zn936   2.029   .     S
N923   N924    1.275   .     D
N924   Zn935   2.029   .     S
O927   Zn935   1.923   .     S
O927   C937    1.291   .     S
O928   Zn936   1.923   .     S
O928   C1020   1.279   1_455 S
O929   Zn936   1.949   .     S
O930   Zn935   1.949   .     S
O931   Zn935   1.956   .     S
O931   C966    1.294   .     S
O932   Zn936   1.956   .     S
O932   C1010   1.297   1_455 S
O933   Zn936   1.934   .     S
O934   Zn935   1.934   .     S
C937   C964    1.436   .     S
C937   O1001   1.294   .     A
C938   C940    1.462   .     S
C938   O1006   1.305   .     A
C938   O1076   1.297   .     S
C939   C945    1.388   .     A
C939   C966    1.450   .     S
C940   C946    1.384   .     A
C940   C944    1.405   .     A
C941   C950    1.401   .     A
C942   H993    1.084   .     S
C942   C944    1.397   .     A
C942   C951    1.402   .     A
C943   H991    1.083   .     S
C943   C1011   1.402   .     S
C943   C1013   1.392   .     S
C944   H1062   1.075   .     S
C945   C947    1.391   .     A
C945   H989    1.080   .     S
C946   H988    1.083   .     S
C946   C949    1.398   .     A
C947   C950    1.419   .     A
C947   C952    1.411   .     A
C948   C965    1.447   .     S
C948   O1002   1.309   .     A
C948   O1072   1.279   .     S
C949   C953    1.405   .     A
C949   C951    1.409   .     A
C950   C314    1.392   1_556 S
C952   C961    1.427   .     A
C952   C305    1.403   1_556 S
C953   C959    1.417   .     A
C954   N997    1.455   .     S
C954   H971    1.113   .     S
C954   H970    1.108   .     S
C954   H972    1.105   .     S
C955   H975    1.111   .     S
C955   N998    1.448   .     S
C956   H981    1.111   .     S
C956   C957    1.533   .     S
C957   H977    1.107   .     S
C957   H980    1.109   .     S
C958   C965    1.521   .     S
C958   C960    1.526   .     S
C959   N997    1.423   .     S
C959   C962    1.394   .     A
C960   H983    1.111   .     S
C960   H985    1.105   .     S
C960   H984    1.110   .     S
C961   N998    1.427   .     S
C961   C963    1.404   .     A
C962   H967    1.083   .     S
C963   H978    1.082   .     S
C963   C303    1.396   1_556 S
C964   C1172   1.530   .     S
C964   C1109   1.357   .     S
C966   O1005   1.304   .     A
H968   N996    1.029   .     S
H969   N997    1.030   .     S
H973   N998    1.029   .     S
H974   C1171   1.111   .     S
H976   C1171   1.112   .     S
H979   C1173   1.109   .     S
H982   C1172   1.112   .     S
H986   C1174   1.106   .     S
H987   C1174   1.111   .     S
H992   C1013   1.084   .     S
H994   N995    1.022   .     S
N995   Zn1008  2.029   .     S
N995   N996    1.275   .     D
N996   Zn1007  2.029   .     S
O999   Zn1007  1.923   .     S
O999   C1009   1.291   .     S
O1000  Zn1008  1.923   .     S
O1001  Zn1008  1.949   .     S
O1002  Zn1007  1.949   .     S
O1003  Zn1007  1.956   .     S
O1003  C1038   1.294   .     S
O1004  Zn1008  1.956   .     S
O1005  Zn1008  1.934   .     S
O1006  Zn1007  1.934   .     S
C1009  C1036   1.436   .     S
C1009  O1073   1.294   .     A
C1010  C1012   1.462   .     S
C1010  O1078   1.305   .     A
C1010  O932    1.297   1_655 S
C1011  C1017   1.388   .     A
C1011  C1038   1.450   .     S
C1012  C1018   1.384   .     A
C1012  C1016   1.405   .     A
C1013  C1022   1.401   .     A
C1014  H1065   1.084   .     S
C1014  C1016   1.397   .     A
C1014  C1023   1.402   .     A
C1015  H1063   1.083   .     S
C1015  C867    1.402   1_655 S
C1015  C869    1.392   1_655 S
C1016  H918    1.075   1_655 S
C1017  C1019   1.391   .     A
C1017  H1061   1.080   .     S
C1018  H1060   1.083   .     S
C1018  C1021   1.398   .     A
C1019  C1022   1.419   .     A
C1019  C1024   1.411   .     A
C1020  C1037   1.447   .     S
C1020  O1074   1.309   .     A
C1020  O928    1.279   1_655 S
C1021  C1025   1.405   .     A
C1021  C1023   1.409   .     A
C1022  C386    1.392   1_556 S
C1024  C1033   1.427   .     A
C1024  C377    1.403   1_556 S
C1025  C1031   1.417   .     A
C1026  N1069   1.455   .     S
C1026  H1043   1.113   .     S
C1026  H1042   1.108   .     S
C1026  H1044   1.105   .     S
C1027  H1047   1.111   .     S
C1027  N1070   1.448   .     S
C1028  H1053   1.111   .     S
C1028  C1029   1.533   .     S
C1029  H1049   1.107   .     S
C1029  H1052   1.109   .     S
C1030  C1037   1.521   .     S
C1030  C1032   1.526   .     S
C1031  N1069   1.423   .     S
C1031  C1034   1.394   .     A
C1032  H1055   1.111   .     S
C1032  H1057   1.105   .     S
C1032  H1056   1.110   .     S
C1033  N1070   1.427   .     S
C1033  C1035   1.404   .     A
C1034  H1039   1.083   .     S
C1035  H1050   1.082   .     S
C1035  C375    1.396   1_556 S
C1036  C1244   1.530   .     S
C1036  C1181   1.357   .     S
C1037  C676    1.357   1_655 S
C1038  O1077   1.304   .     A
H1040  N1068   1.029   .     S
H1041  N1069   1.030   .     S
H1045  N1070   1.029   .     S
H1046  C1243   1.111   .     S
H1048  C1243   1.112   .     S
H1051  C1245   1.109   .     S
H1054  C1244   1.112   .     S
H1058  C1246   1.106   .     S
H1059  C1246   1.111   .     S
H1064  C869    1.084   1_655 S
H1066  N1067   1.022   .     S
N1067  Zn1080  2.029   .     S
N1067  N1068   1.275   .     D
N1068  Zn1079  2.029   .     S
O1071  Zn1079  1.923   .     S
O1071  C865    1.291   1_655 S
O1072  Zn1080  1.923   .     S
O1073  Zn1080  1.949   .     S
O1074  Zn1079  1.949   .     S
O1075  Zn1079  1.956   .     S
O1075  C894    1.294   1_655 S
O1076  Zn1080  1.956   .     S
O1077  Zn1080  1.934   .     S
O1078  Zn1079  1.934   .     S
C1081  C1108   1.436   .     S
C1081  O1145   1.294   .     A
C1081  O1287   1.291   1_455 S
C1082  C1084   1.462   .     S
C1082  O1150   1.305   .     A
C1082  O1220   1.297   .     S
C1083  C1089   1.388   .     A
C1083  C1110   1.450   .     S
C1083  C1231   1.402   1_455 S
C1084  C1090   1.384   .     A
C1084  C1088   1.405   .     A
C1085  C1094   1.401   .     A
C1085  C1231   1.392   1_455 S
C1085  H1280   1.084   1_455 S
C1086  H1137   1.084   .     S
C1086  C1088   1.397   .     A
C1086  C1095   1.402   .     A
C1087  H1135   1.083   .     S
C1087  C1155   1.402   .     S
C1087  C1157   1.392   .     S
C1088  H1206   1.075   .     S
C1089  C1091   1.391   .     A
C1089  H1133   1.080   .     S
C1090  H1132   1.083   .     S
C1090  C1093   1.398   .     A
C1091  C1094   1.419   .     A
C1091  C1096   1.411   .     A
C1092  C1109   1.447   .     S
C1092  O1146   1.309   .     A
C1092  O1216   1.279   .     S
C1093  C1097   1.405   .     A
C1093  C1095   1.409   .     A
C1094  C458    1.392   1_556 S
C1096  C1105   1.427   .     A
C1096  C449    1.403   1_556 S
C1097  C1103   1.417   .     A
C1098  N1141   1.455   .     S
C1098  H1115   1.113   .     S
C1098  H1114   1.108   .     S
C1098  H1116   1.105   .     S
C1099  H1119   1.111   .     S
C1099  N1142   1.448   .     S
C1100  H1125   1.111   .     S
C1100  C1101   1.533   .     S
C1101  H1121   1.107   .     S
C1101  H1124   1.109   .     S
C1102  C1109   1.521   .     S
C1102  C1104   1.526   .     S
C1103  N1141   1.423   .     S
C1103  C1106   1.394   .     A
C1104  H1127   1.111   .     S
C1104  H1129   1.105   .     S
C1104  H1128   1.110   .     S
C1105  N1142   1.427   .     S
C1105  C1107   1.404   .     A
C1106  H1111   1.083   .     S
C1107  H1122   1.082   .     S
C1107  C447    1.396   1_556 S
C1108  C668    1.530   1_565 S
C1108  C821    1.357   1_465 S
C1110  O1149   1.304   .     A
C1110  O1291   1.294   1_455 S
H1112  N1140   1.029   .     S
H1113  N1141   1.030   .     S
H1117  N1142   1.029   .     S
H1118  C667    1.111   1_565 S
H1120  C667    1.112   1_565 S
H1123  C669    1.109   1_565 S
H1126  C668    1.112   1_565 S
H1130  C670    1.106   1_565 S
H1131  C670    1.111   1_565 S
H1134  C1232   1.075   1_455 S
H1136  C1157   1.084   .     S
H1138  N1139   1.022   .     S
N1139  Zn1152  2.029   .     S
N1139  N1140   1.275   .     D
N1140  Zn1151  2.029   .     S
O1143  Zn1151  1.923   .     S
O1143  C1153   1.291   .     S
O1144  Zn1152  1.923   .     S
O1144  C1236   1.279   1_455 S
O1145  Zn1152  1.949   .     S
O1146  Zn1151  1.949   .     S
O1147  Zn1151  1.956   .     S
O1147  C1182   1.294   .     S
O1148  Zn1152  1.956   .     S
O1148  C1226   1.297   1_455 S
O1149  Zn1152  1.934   .     S
O1150  Zn1151  1.934   .     S
C1153  C1180   1.436   .     S
C1153  O1217   1.294   .     A
C1154  C1156   1.462   .     S
C1154  O1222   1.305   .     A
C1154  O1292   1.297   .     S
C1155  C1161   1.388   .     A
C1155  C1182   1.450   .     S
C1156  C1162   1.384   .     A
C1156  C1160   1.405   .     A
C1157  C1166   1.401   .     A
C1158  H1209   1.084   .     S
C1158  C1160   1.397   .     A
C1158  C1167   1.402   .     A
C1159  H1207   1.083   .     S
C1159  C1227   1.402   .     S
C1159  C1229   1.392   .     S
C1160  H1278   1.075   .     S
C1161  C1163   1.391   .     A
C1161  H1205   1.080   .     S
C1162  H1204   1.083   .     S
C1162  C1165   1.398   .     A
C1163  C1166   1.419   .     A
C1163  C1168   1.411   .     A
C1164  C1181   1.447   .     S
C1164  O1218   1.309   .     A
C1164  O1288   1.279   .     S
C1165  C1169   1.405   .     A
C1165  C1167   1.409   .     A
C1166  C530    1.392   1_556 S
C1168  C1177   1.427   .     A
C1168  C521    1.403   1_556 S
C1169  C1175   1.417   .     A
C1170  N1213   1.455   .     S
C1170  H1187   1.113   .     S
C1170  H1186   1.108   .     S
C1170  H1188   1.105   .     S
C1171  H1191   1.111   .     S
C1171  N1214   1.448   .     S
C1172  H1197   1.111   .     S
C1172  C1173   1.533   .     S
C1173  H1193   1.107   .     S
C1173  H1196   1.109   .     S
C1174  C1181   1.521   .     S
C1174  C1176   1.526   .     S
C1175  N1213   1.423   .     S
C1175  C1178   1.394   .     A
C1176  H1199   1.111   .     S
C1176  H1201   1.105   .     S
C1176  H1200   1.110   .     S
C1177  N1214   1.427   .     S
C1177  C1179   1.404   .     A
C1178  H1183   1.083   .     S
C1179  H1194   1.082   .     S
C1179  C519    1.396   1_556 S
C1180  C740    1.530   1_565 S
C1180  C677    1.357   1_565 S
C1182  O1221   1.304   .     A
H1184  N1212   1.029   .     S
H1185  N1213   1.030   .     S
H1189  N1214   1.029   .     S
H1190  C739    1.111   1_565 S
H1192  C739    1.112   1_565 S
H1195  C741    1.109   1_565 S
H1198  C740    1.112   1_565 S
H1202  C742    1.106   1_565 S
H1203  C742    1.111   1_565 S
H1208  C1229   1.084   .     S
H1210  N1211   1.022   .     S
N1211  Zn1224  2.029   .     S
N1211  N1212   1.275   .     D
N1212  Zn1223  2.029   .     S
O1215  Zn1223  1.923   .     S
O1215  C1225   1.291   .     S
O1216  Zn1224  1.923   .     S
O1217  Zn1224  1.949   .     S
O1218  Zn1223  1.949   .     S
O1219  Zn1223  1.956   .     S
O1219  C1254   1.294   .     S
O1220  Zn1224  1.956   .     S
O1221  Zn1224  1.934   .     S
O1222  Zn1223  1.934   .     S
C1225  C1252   1.436   .     S
C1225  O1289   1.294   .     A
C1226  C1228   1.462   .     S
C1226  O1294   1.305   .     A
C1226  O1148   1.297   1_655 S
C1227  C1233   1.388   .     A
C1227  C1254   1.450   .     S
C1228  C1234   1.384   .     A
C1228  C1232   1.405   .     A
C1229  C1238   1.401   .     A
C1230  H1281   1.084   .     S
C1230  C1232   1.397   .     A
C1230  C1239   1.402   .     A
C1231  H1279   1.083   .     S
C1231  C1083   1.402   1_655 S
C1231  C1085   1.392   1_655 S
C1232  H1134   1.075   1_655 S
C1233  C1235   1.391   .     A
C1233  H1277   1.080   .     S
C1234  H1276   1.083   .     S
C1234  C1237   1.398   .     A
C1235  C1238   1.419   .     A
C1235  C1240   1.411   .     A
C1236  C1253   1.447   .     S
C1236  O1290   1.309   .     A
C1236  O1144   1.279   1_655 S
C1237  C1241   1.405   .     A
C1237  C1239   1.409   .     A
C1238  C602    1.392   1_556 S
C1240  C1249   1.427   .     A
C1240  C593    1.403   1_556 S
C1241  C1247   1.417   .     A
C1242  N1285   1.455   .     S
C1242  H1259   1.113   .     S
C1242  H1258   1.108   .     S
C1242  H1260   1.105   .     S
C1243  H1263   1.111   .     S
C1243  N1286   1.448   .     S
C1244  H1269   1.111   .     S
C1244  C1245   1.533   .     S
C1245  H1265   1.107   .     S
C1245  H1268   1.109   .     S
C1246  C1253   1.521   .     S
C1246  C1248   1.526   .     S
C1247  N1285   1.423   .     S
C1247  C1250   1.394   .     A
C1248  H1271   1.111   .     S
C1248  H1273   1.105   .     S
C1248  H1272   1.110   .     S
C1249  N1286   1.427   .     S
C1249  C1251   1.404   .     A
C1250  H1255   1.083   .     S
C1251  H1266   1.082   .     S
C1251  C591    1.396   1_556 S
C1252  C812    1.530   1_565 S
C1252  C749    1.357   1_565 S
C1253  C892    1.357   1_655 S
C1254  O1293   1.304   .     A
H1256  N1284   1.029   .     S
H1257  N1285   1.030   .     S
H1261  N1286   1.029   .     S
H1262  C811    1.111   1_565 S
H1264  C811    1.112   1_565 S
H1267  C813    1.109   1_565 S
H1270  C812    1.112   1_565 S
H1274  C814    1.106   1_565 S
H1275  C814    1.111   1_565 S
H1280  C1085   1.084   1_655 S
H1282  N1283   1.022   .     S
N1283  Zn1296  2.029   .     S
N1283  N1284   1.275   .     D
N1284  Zn1295  2.029   .     S
O1287  Zn1295  1.923   .     S
O1287  C1081   1.291   1_655 S
O1288  Zn1296  1.923   .     S
O1289  Zn1296  1.949   .     S
O1290  Zn1295  1.949   .     S
O1291  Zn1295  1.956   .     S
O1291  C1110   1.294   1_655 S
O1292  Zn1296  1.956   .     S
O1293  Zn1296  1.934   .     S
O1294  Zn1295  1.934   .     S
