data_str_m3_o2_o10_pcu_sym.218
_audit_creation_date              2020-01-03
_audit_creation_method            'Materials Studio'
_symmetry_space_group_name_H-M    'P1'
_symmetry_Int_Tables_number       1
_symmetry_cell_setting            triclinic
loop_
_symmetry_equiv_pos_as_xyz
  x,y,z
_cell_length_a                    25.7742
_cell_length_b                    30.0210
_cell_length_c                    28.3404
_cell_angle_alpha                 89.9556
_cell_angle_beta                  98.5378
_cell_angle_gamma                 89.9738
loop_
_atom_site_label
_atom_site_type_symbol
_atom_site_fract_x
_atom_site_fract_y
_atom_site_fract_z
_atom_site_U_iso_or_equiv
_atom_site_adp_type
_atom_site_occupancy
C1     C     0.16664   0.16388   0.25002   0.00000  Uiso   1.00
C2     C     0.16665   0.33612   0.24999   0.00000  Uiso   1.00
C3     C     0.12195   0.24188   0.04583   0.00000  Uiso   1.00
C4     C     0.18106   0.28653   0.45017   0.00000  Uiso   1.00
C5     C     0.12173   0.24240   0.09541   0.00000  Uiso   1.00
C6     C     0.18069   0.28694   0.40053   0.00000  Uiso   1.00
C7     C     0.21263   0.25730   0.10901   0.00000  Uiso   1.00
C8     C     0.15259   0.21203   0.39506   0.00000  Uiso   1.00
C9     C     0.21553   0.25598   0.05955   0.00000  Uiso   1.00
C10    C     0.15348   0.20931   0.44505   0.00000  Uiso   1.00
C11    C     0.16892   0.24829   0.02691   0.00000  Uiso   1.00
C12    C     0.16789   0.24763   0.47349   0.00000  Uiso   1.00
C13    C     0.06702   0.24994   0.23756   0.00000  Uiso   1.00
C14    C     0.26632   0.24997   0.26244   0.00000  Uiso   1.00
C15    C     0.01205   0.24978   0.23083   0.00000  Uiso   1.00
C16    C     0.32132   0.24997   0.26919   0.00000  Uiso   1.00
C17    C     0.14773   0.04709   0.28713   0.00000  Uiso   1.00
C18    C     0.14782   0.45298   0.20791   0.00000  Uiso   1.00
C19    C     0.14821   0.09307   0.28730   0.00000  Uiso   1.00
C20    C     0.14833   0.40699   0.20780   0.00000  Uiso   1.00
C21    C     0.16650   0.11600   0.25005   0.00000  Uiso   1.00
C22    C     0.16651   0.38400   0.24998   0.00000  Uiso   1.00
C23    C     0.18459   0.09299   0.21279   0.00000  Uiso   1.00
C24    C     0.18445   0.40696   0.29219   0.00000  Uiso   1.00
C25    C     0.18469   0.04701   0.21292   0.00000  Uiso   1.00
C26    C     0.18452   0.45295   0.29215   0.00000  Uiso   1.00
C27    C     0.16612   0.02406   0.25001   0.00000  Uiso   1.00
C28    C     0.16608   0.47596   0.25004   0.00000  Uiso   1.00
H29    H     0.32489   0.24949   0.19442   0.00000  Uiso   1.00
H30    H     0.00855   0.25018   0.30561   0.00000  Uiso   1.00
H31    H     0.13264   0.02952   0.31561   0.00000  Uiso   1.00
H32    H     0.13282   0.47059   0.17534   0.00000  Uiso   1.00
H33    H     0.13367   0.11062   0.31607   0.00000  Uiso   1.00
H34    H     0.13390   0.38948   0.17507   0.00000  Uiso   1.00
H35    H     0.19926   0.11048   0.18403   0.00000  Uiso   1.00
H36    H     0.19903   0.38943   0.32492   0.00000  Uiso   1.00
H37    H     0.19969   0.02939   0.18445   0.00000  Uiso   1.00
H38    H     0.19941   0.47053   0.32472   0.00000  Uiso   1.00
H39    H     0.08551   0.23615   0.02221   0.00000  Uiso   1.00
H40    H     0.19202   0.31650   0.47047   0.00000  Uiso   1.00
H41    H     0.08536   0.23667   0.10915   0.00000  Uiso   1.00
H42    H     0.19174   0.31697   0.38346   0.00000  Uiso   1.00
H43    H     0.24777   0.26329   0.13399   0.00000  Uiso   1.00
H44    H     0.14165   0.18319   0.37303   0.00000  Uiso   1.00
N45    N     0.16667   0.24999   0.12624   0.00000  Uiso   1.00
N46    N     0.16667   0.25001   0.37377   0.00000  Uiso   1.00
O47    O     0.16667   0.18453   0.28974   0.00000  Uiso   1.00
O48    O     0.16666   0.31546   0.21026   0.00000  Uiso   1.00
O49    O     0.16667   0.18453   0.21026   0.00000  Uiso   1.00
O50    O     0.16666   0.31547   0.28974   0.00000  Uiso   1.00
O51    O     0.09058   0.25000   0.28045   0.00000  Uiso   1.00
O52    O     0.24275   0.25000   0.21956   0.00000  Uiso   1.00
O53    O     0.09058   0.24999   0.20097   0.00000  Uiso   1.00
O54    O     0.24275   0.25000   0.29904   0.00000  Uiso   1.00
Zn55   Zn    0.16667   0.25000   0.30307   0.00000  Uiso   1.00
Zn56   Zn    0.16667   0.24999   0.19693   0.00000  Uiso   1.00
C57    C     0.26792   0.26118   0.04411   0.00000  Uiso   1.00
O58    O     0.27670   0.24543   0.00631   0.00000  Uiso   1.00
O59    O     0.30805   0.28324   0.07375   0.00000  Uiso   1.00
H60    H     0.00855   0.28463   0.05957   0.00000  Uiso   1.00
C61    C     0.14109   0.16570   0.46573   0.00000  Uiso   1.00
O62    O     0.15788   0.15649   0.00722   0.00000  Uiso   1.00
O63    O     0.11118   0.13435   0.43703   0.00000  Uiso   1.00
H64    H     0.10572   0.10582   0.45481   0.00000  Uiso   1.00
C65    C     0.49997   0.16388   0.25002   0.00000  Uiso   1.00
C66    C     0.49999   0.33612   0.24999   0.00000  Uiso   1.00
C67    C     0.45528   0.24188   0.04583   0.00000  Uiso   1.00
C68    C     0.51439   0.28653   0.45017   0.00000  Uiso   1.00
C69    C     0.45506   0.24240   0.09541   0.00000  Uiso   1.00
C70    C     0.51402   0.28694   0.40053   0.00000  Uiso   1.00
C71    C     0.54596   0.25730   0.10901   0.00000  Uiso   1.00
C72    C     0.48592   0.21203   0.39506   0.00000  Uiso   1.00
C73    C     0.54886   0.25598   0.05955   0.00000  Uiso   1.00
C74    C     0.48681   0.20931   0.44505   0.00000  Uiso   1.00
C75    C     0.50225   0.24829   0.02691   0.00000  Uiso   1.00
C76    C     0.50122   0.24763   0.47349   0.00000  Uiso   1.00
C77    C     0.40035   0.24994   0.23756   0.00000  Uiso   1.00
C78    C     0.59966   0.24997   0.26244   0.00000  Uiso   1.00
C79    C     0.34538   0.24978   0.23083   0.00000  Uiso   1.00
C80    C     0.65466   0.24997   0.26919   0.00000  Uiso   1.00
C81    C     0.48107   0.04709   0.28713   0.00000  Uiso   1.00
C82    C     0.48116   0.45298   0.20791   0.00000  Uiso   1.00
C83    C     0.48154   0.09307   0.28730   0.00000  Uiso   1.00
C84    C     0.48166   0.40699   0.20780   0.00000  Uiso   1.00
C85    C     0.49983   0.11600   0.25005   0.00000  Uiso   1.00
C86    C     0.49985   0.38400   0.24998   0.00000  Uiso   1.00
C87    C     0.51792   0.09299   0.21279   0.00000  Uiso   1.00
C88    C     0.51778   0.40696   0.29219   0.00000  Uiso   1.00
C89    C     0.51802   0.04701   0.21292   0.00000  Uiso   1.00
C90    C     0.51785   0.45295   0.29215   0.00000  Uiso   1.00
C91    C     0.49945   0.02406   0.25001   0.00000  Uiso   1.00
C92    C     0.49942   0.47596   0.25004   0.00000  Uiso   1.00
H93    H     0.65822   0.24949   0.19442   0.00000  Uiso   1.00
H94    H     0.34188   0.25018   0.30561   0.00000  Uiso   1.00
H95    H     0.46597   0.02952   0.31561   0.00000  Uiso   1.00
H96    H     0.46615   0.47059   0.17534   0.00000  Uiso   1.00
H97    H     0.46700   0.11062   0.31607   0.00000  Uiso   1.00
H98    H     0.46723   0.38948   0.17507   0.00000  Uiso   1.00
H99    H     0.53260   0.11048   0.18403   0.00000  Uiso   1.00
H100   H     0.53237   0.38943   0.32492   0.00000  Uiso   1.00
H101   H     0.53303   0.02939   0.18445   0.00000  Uiso   1.00
H102   H     0.53274   0.47053   0.32472   0.00000  Uiso   1.00
H103   H     0.41885   0.23615   0.02221   0.00000  Uiso   1.00
H104   H     0.52535   0.31650   0.47047   0.00000  Uiso   1.00
H105   H     0.41869   0.23667   0.10915   0.00000  Uiso   1.00
H106   H     0.52508   0.31697   0.38346   0.00000  Uiso   1.00
H107   H     0.58111   0.26329   0.13399   0.00000  Uiso   1.00
H108   H     0.47499   0.18319   0.37303   0.00000  Uiso   1.00
N109   N     0.50000   0.24999   0.12624   0.00000  Uiso   1.00
N110   N     0.50000   0.25001   0.37377   0.00000  Uiso   1.00
O111   O     0.50000   0.18453   0.28974   0.00000  Uiso   1.00
O112   O     0.50000   0.31546   0.21026   0.00000  Uiso   1.00
O113   O     0.50000   0.18453   0.21026   0.00000  Uiso   1.00
O114   O     0.50000   0.31547   0.28974   0.00000  Uiso   1.00
O115   O     0.42392   0.25000   0.28045   0.00000  Uiso   1.00
O116   O     0.57608   0.25000   0.21956   0.00000  Uiso   1.00
O117   O     0.42392   0.24999   0.20097   0.00000  Uiso   1.00
O118   O     0.57608   0.25000   0.29904   0.00000  Uiso   1.00
Zn119  Zn    0.50000   0.25000   0.30307   0.00000  Uiso   1.00
Zn120  Zn    0.50000   0.24999   0.19693   0.00000  Uiso   1.00
C121   C     0.60126   0.26118   0.04411   0.00000  Uiso   1.00
O122   O     0.61003   0.24543   0.00631   0.00000  Uiso   1.00
O123   O     0.64138   0.28324   0.07375   0.00000  Uiso   1.00
H124   H     0.34189   0.28463   0.05957   0.00000  Uiso   1.00
C125   C     0.47442   0.16570   0.46573   0.00000  Uiso   1.00
O126   O     0.49121   0.15649   0.00722   0.00000  Uiso   1.00
O127   O     0.44451   0.13435   0.43703   0.00000  Uiso   1.00
H128   H     0.43905   0.10582   0.45481   0.00000  Uiso   1.00
C129   C     0.83331   0.16388   0.25002   0.00000  Uiso   1.00
C130   C     0.83332   0.33612   0.24999   0.00000  Uiso   1.00
C131   C     0.78862   0.24188   0.04583   0.00000  Uiso   1.00
C132   C     0.84772   0.28653   0.45017   0.00000  Uiso   1.00
C133   C     0.78839   0.24240   0.09541   0.00000  Uiso   1.00
C134   C     0.84736   0.28694   0.40053   0.00000  Uiso   1.00
C135   C     0.87929   0.25730   0.10901   0.00000  Uiso   1.00
C136   C     0.81925   0.21203   0.39506   0.00000  Uiso   1.00
C137   C     0.88219   0.25598   0.05955   0.00000  Uiso   1.00
C138   C     0.82015   0.20931   0.44505   0.00000  Uiso   1.00
C139   C     0.83558   0.24829   0.02691   0.00000  Uiso   1.00
C140   C     0.83456   0.24763   0.47349   0.00000  Uiso   1.00
C141   C     0.73369   0.24994   0.23756   0.00000  Uiso   1.00
C142   C     0.93299   0.24997   0.26244   0.00000  Uiso   1.00
C143   C     0.67871   0.24978   0.23083   0.00000  Uiso   1.00
C144   C     0.98799   0.24997   0.26919   0.00000  Uiso   1.00
C145   C     0.81440   0.04709   0.28713   0.00000  Uiso   1.00
C146   C     0.81449   0.45298   0.20791   0.00000  Uiso   1.00
C147   C     0.81487   0.09307   0.28730   0.00000  Uiso   1.00
C148   C     0.81499   0.40699   0.20780   0.00000  Uiso   1.00
C149   C     0.83316   0.11600   0.25005   0.00000  Uiso   1.00
C150   C     0.83318   0.38400   0.24998   0.00000  Uiso   1.00
C151   C     0.85126   0.09299   0.21279   0.00000  Uiso   1.00
C152   C     0.85112   0.40696   0.29219   0.00000  Uiso   1.00
C153   C     0.85135   0.04701   0.21292   0.00000  Uiso   1.00
C154   C     0.85118   0.45295   0.29215   0.00000  Uiso   1.00
C155   C     0.83278   0.02406   0.25001   0.00000  Uiso   1.00
C156   C     0.83275   0.47596   0.25004   0.00000  Uiso   1.00
H157   H     0.99155   0.24949   0.19442   0.00000  Uiso   1.00
H158   H     0.67521   0.25018   0.30561   0.00000  Uiso   1.00
H159   H     0.79931   0.02952   0.31561   0.00000  Uiso   1.00
H160   H     0.79949   0.47059   0.17534   0.00000  Uiso   1.00
H161   H     0.80033   0.11062   0.31607   0.00000  Uiso   1.00
H162   H     0.80057   0.38948   0.17507   0.00000  Uiso   1.00
H163   H     0.86593   0.11048   0.18403   0.00000  Uiso   1.00
H164   H     0.86570   0.38943   0.32492   0.00000  Uiso   1.00
H165   H     0.86636   0.02939   0.18445   0.00000  Uiso   1.00
H166   H     0.86608   0.47053   0.32472   0.00000  Uiso   1.00
H167   H     0.75218   0.23615   0.02221   0.00000  Uiso   1.00
H168   H     0.85869   0.31650   0.47047   0.00000  Uiso   1.00
H169   H     0.75203   0.23667   0.10915   0.00000  Uiso   1.00
H170   H     0.85841   0.31697   0.38346   0.00000  Uiso   1.00
H171   H     0.91444   0.26329   0.13399   0.00000  Uiso   1.00
H172   H     0.80832   0.18319   0.37303   0.00000  Uiso   1.00
N173   N     0.83333   0.24999   0.12624   0.00000  Uiso   1.00
N174   N     0.83333   0.25001   0.37377   0.00000  Uiso   1.00
O175   O     0.83334   0.18453   0.28974   0.00000  Uiso   1.00
O176   O     0.83333   0.31546   0.21026   0.00000  Uiso   1.00
O177   O     0.83334   0.18453   0.21026   0.00000  Uiso   1.00
O178   O     0.83333   0.31547   0.28974   0.00000  Uiso   1.00
O179   O     0.75725   0.25000   0.28045   0.00000  Uiso   1.00
O180   O     0.90942   0.25000   0.21956   0.00000  Uiso   1.00
O181   O     0.75725   0.24999   0.20097   0.00000  Uiso   1.00
O182   O     0.90942   0.25000   0.29904   0.00000  Uiso   1.00
Zn183  Zn    0.83333   0.25000   0.30307   0.00000  Uiso   1.00
Zn184  Zn    0.83333   0.24999   0.19693   0.00000  Uiso   1.00
C185   C     0.93459   0.26118   0.04411   0.00000  Uiso   1.00
O186   O     0.94337   0.24543   0.00631   0.00000  Uiso   1.00
O187   O     0.97472   0.28324   0.07375   0.00000  Uiso   1.00
H188   H     0.67522   0.28463   0.05957   0.00000  Uiso   1.00
C189   C     0.80776   0.16570   0.46573   0.00000  Uiso   1.00
O190   O     0.82454   0.15649   0.00722   0.00000  Uiso   1.00
O191   O     0.77785   0.13435   0.43703   0.00000  Uiso   1.00
H192   H     0.77239   0.10582   0.45481   0.00000  Uiso   1.00
C193   C     0.16664   0.66388   0.25002   0.00000  Uiso   1.00
C194   C     0.16665   0.83612   0.24999   0.00000  Uiso   1.00
C195   C     0.12195   0.74188   0.04583   0.00000  Uiso   1.00
C196   C     0.18106   0.78653   0.45017   0.00000  Uiso   1.00
C197   C     0.12173   0.74240   0.09541   0.00000  Uiso   1.00
C198   C     0.18069   0.78694   0.40053   0.00000  Uiso   1.00
C199   C     0.21263   0.75730   0.10901   0.00000  Uiso   1.00
C200   C     0.15259   0.71203   0.39506   0.00000  Uiso   1.00
C201   C     0.21553   0.75598   0.05955   0.00000  Uiso   1.00
C202   C     0.15348   0.70931   0.44505   0.00000  Uiso   1.00
C203   C     0.16892   0.74829   0.02691   0.00000  Uiso   1.00
C204   C     0.16789   0.74763   0.47349   0.00000  Uiso   1.00
C205   C     0.06702   0.74994   0.23756   0.00000  Uiso   1.00
C206   C     0.26632   0.74997   0.26244   0.00000  Uiso   1.00
C207   C     0.01205   0.74978   0.23083   0.00000  Uiso   1.00
C208   C     0.32132   0.74997   0.26919   0.00000  Uiso   1.00
C209   C     0.14773   0.54709   0.28713   0.00000  Uiso   1.00
C210   C     0.14782   0.95298   0.20791   0.00000  Uiso   1.00
C211   C     0.14821   0.59307   0.28730   0.00000  Uiso   1.00
C212   C     0.14833   0.90699   0.20780   0.00000  Uiso   1.00
C213   C     0.16650   0.61600   0.25005   0.00000  Uiso   1.00
C214   C     0.16651   0.88400   0.24998   0.00000  Uiso   1.00
C215   C     0.18459   0.59299   0.21279   0.00000  Uiso   1.00
C216   C     0.18445   0.90696   0.29219   0.00000  Uiso   1.00
C217   C     0.18469   0.54701   0.21292   0.00000  Uiso   1.00
C218   C     0.18452   0.95295   0.29215   0.00000  Uiso   1.00
C219   C     0.16612   0.52406   0.25001   0.00000  Uiso   1.00
C220   C     0.16608   0.97596   0.25004   0.00000  Uiso   1.00
H221   H     0.32489   0.74949   0.19442   0.00000  Uiso   1.00
H222   H     0.00855   0.75018   0.30561   0.00000  Uiso   1.00
H223   H     0.13264   0.52952   0.31561   0.00000  Uiso   1.00
H224   H     0.13282   0.97059   0.17534   0.00000  Uiso   1.00
H225   H     0.13367   0.61062   0.31607   0.00000  Uiso   1.00
H226   H     0.13390   0.88948   0.17507   0.00000  Uiso   1.00
H227   H     0.19926   0.61048   0.18403   0.00000  Uiso   1.00
H228   H     0.19903   0.88943   0.32492   0.00000  Uiso   1.00
H229   H     0.19969   0.52939   0.18445   0.00000  Uiso   1.00
H230   H     0.19941   0.97053   0.32472   0.00000  Uiso   1.00
H231   H     0.08551   0.73615   0.02221   0.00000  Uiso   1.00
H232   H     0.19202   0.81650   0.47047   0.00000  Uiso   1.00
H233   H     0.08536   0.73667   0.10915   0.00000  Uiso   1.00
H234   H     0.19174   0.81697   0.38346   0.00000  Uiso   1.00
H235   H     0.24777   0.76329   0.13399   0.00000  Uiso   1.00
H236   H     0.14165   0.68319   0.37303   0.00000  Uiso   1.00
N237   N     0.16667   0.74999   0.12624   0.00000  Uiso   1.00
N238   N     0.16667   0.75001   0.37377   0.00000  Uiso   1.00
O239   O     0.16667   0.68453   0.28974   0.00000  Uiso   1.00
O240   O     0.16666   0.81546   0.21026   0.00000  Uiso   1.00
O241   O     0.16667   0.68453   0.21026   0.00000  Uiso   1.00
O242   O     0.16666   0.81547   0.28974   0.00000  Uiso   1.00
O243   O     0.09058   0.75000   0.28045   0.00000  Uiso   1.00
O244   O     0.24275   0.75000   0.21956   0.00000  Uiso   1.00
O245   O     0.09058   0.74999   0.20097   0.00000  Uiso   1.00
O246   O     0.24275   0.75000   0.29904   0.00000  Uiso   1.00
Zn247  Zn    0.16667   0.75000   0.30307   0.00000  Uiso   1.00
Zn248  Zn    0.16667   0.74999   0.19693   0.00000  Uiso   1.00
C249   C     0.26792   0.76118   0.04411   0.00000  Uiso   1.00
O250   O     0.27670   0.74543   0.00631   0.00000  Uiso   1.00
O251   O     0.30805   0.78324   0.07375   0.00000  Uiso   1.00
H252   H     0.00855   0.78463   0.05957   0.00000  Uiso   1.00
C253   C     0.14109   0.66570   0.46573   0.00000  Uiso   1.00
O254   O     0.15788   0.65649   0.00722   0.00000  Uiso   1.00
O255   O     0.11118   0.63435   0.43703   0.00000  Uiso   1.00
H256   H     0.10572   0.60582   0.45481   0.00000  Uiso   1.00
C257   C     0.49997   0.66388   0.25002   0.00000  Uiso   1.00
C258   C     0.49999   0.83612   0.24999   0.00000  Uiso   1.00
C259   C     0.45528   0.74188   0.04583   0.00000  Uiso   1.00
C260   C     0.51439   0.78653   0.45017   0.00000  Uiso   1.00
C261   C     0.45506   0.74240   0.09541   0.00000  Uiso   1.00
C262   C     0.51402   0.78694   0.40053   0.00000  Uiso   1.00
C263   C     0.54596   0.75730   0.10901   0.00000  Uiso   1.00
C264   C     0.48592   0.71203   0.39506   0.00000  Uiso   1.00
C265   C     0.54886   0.75598   0.05955   0.00000  Uiso   1.00
C266   C     0.48681   0.70931   0.44505   0.00000  Uiso   1.00
C267   C     0.50225   0.74829   0.02691   0.00000  Uiso   1.00
C268   C     0.50122   0.74763   0.47349   0.00000  Uiso   1.00
C269   C     0.40035   0.74994   0.23756   0.00000  Uiso   1.00
C270   C     0.59966   0.74997   0.26244   0.00000  Uiso   1.00
C271   C     0.34538   0.74978   0.23083   0.00000  Uiso   1.00
C272   C     0.65466   0.74997   0.26919   0.00000  Uiso   1.00
C273   C     0.48107   0.54709   0.28713   0.00000  Uiso   1.00
C274   C     0.48116   0.95298   0.20791   0.00000  Uiso   1.00
C275   C     0.48154   0.59307   0.28730   0.00000  Uiso   1.00
C276   C     0.48166   0.90699   0.20780   0.00000  Uiso   1.00
C277   C     0.49983   0.61600   0.25005   0.00000  Uiso   1.00
C278   C     0.49985   0.88400   0.24998   0.00000  Uiso   1.00
C279   C     0.51792   0.59299   0.21279   0.00000  Uiso   1.00
C280   C     0.51778   0.90696   0.29219   0.00000  Uiso   1.00
C281   C     0.51802   0.54701   0.21292   0.00000  Uiso   1.00
C282   C     0.51785   0.95295   0.29215   0.00000  Uiso   1.00
C283   C     0.49945   0.52406   0.25001   0.00000  Uiso   1.00
C284   C     0.49942   0.97596   0.25004   0.00000  Uiso   1.00
H285   H     0.65822   0.74949   0.19442   0.00000  Uiso   1.00
H286   H     0.34188   0.75018   0.30561   0.00000  Uiso   1.00
H287   H     0.46597   0.52952   0.31561   0.00000  Uiso   1.00
H288   H     0.46615   0.97059   0.17534   0.00000  Uiso   1.00
H289   H     0.46700   0.61062   0.31607   0.00000  Uiso   1.00
H290   H     0.46723   0.88948   0.17507   0.00000  Uiso   1.00
H291   H     0.53260   0.61048   0.18403   0.00000  Uiso   1.00
H292   H     0.53237   0.88943   0.32492   0.00000  Uiso   1.00
H293   H     0.53303   0.52939   0.18445   0.00000  Uiso   1.00
H294   H     0.53274   0.97053   0.32472   0.00000  Uiso   1.00
H295   H     0.41885   0.73615   0.02221   0.00000  Uiso   1.00
H296   H     0.52535   0.81650   0.47047   0.00000  Uiso   1.00
H297   H     0.41869   0.73667   0.10915   0.00000  Uiso   1.00
H298   H     0.52508   0.81697   0.38346   0.00000  Uiso   1.00
H299   H     0.58111   0.76329   0.13399   0.00000  Uiso   1.00
H300   H     0.47499   0.68319   0.37303   0.00000  Uiso   1.00
N301   N     0.50000   0.74999   0.12624   0.00000  Uiso   1.00
N302   N     0.50000   0.75001   0.37377   0.00000  Uiso   1.00
O303   O     0.50000   0.68453   0.28974   0.00000  Uiso   1.00
O304   O     0.50000   0.81546   0.21026   0.00000  Uiso   1.00
O305   O     0.50000   0.68453   0.21026   0.00000  Uiso   1.00
O306   O     0.50000   0.81547   0.28974   0.00000  Uiso   1.00
O307   O     0.42392   0.75000   0.28045   0.00000  Uiso   1.00
O308   O     0.57608   0.75000   0.21956   0.00000  Uiso   1.00
O309   O     0.42392   0.74999   0.20097   0.00000  Uiso   1.00
O310   O     0.57608   0.75000   0.29904   0.00000  Uiso   1.00
Zn311  Zn    0.50000   0.75000   0.30307   0.00000  Uiso   1.00
Zn312  Zn    0.50000   0.74999   0.19693   0.00000  Uiso   1.00
C313   C     0.60126   0.76118   0.04411   0.00000  Uiso   1.00
O314   O     0.61003   0.74543   0.00631   0.00000  Uiso   1.00
O315   O     0.64138   0.78324   0.07375   0.00000  Uiso   1.00
H316   H     0.34189   0.78463   0.05957   0.00000  Uiso   1.00
C317   C     0.47442   0.66570   0.46573   0.00000  Uiso   1.00
O318   O     0.49121   0.65649   0.00722   0.00000  Uiso   1.00
O319   O     0.44451   0.63435   0.43703   0.00000  Uiso   1.00
H320   H     0.43905   0.60582   0.45481   0.00000  Uiso   1.00
C321   C     0.83331   0.66388   0.25002   0.00000  Uiso   1.00
C322   C     0.83332   0.83612   0.24999   0.00000  Uiso   1.00
C323   C     0.78862   0.74188   0.04583   0.00000  Uiso   1.00
C324   C     0.84772   0.78653   0.45017   0.00000  Uiso   1.00
C325   C     0.78839   0.74240   0.09541   0.00000  Uiso   1.00
C326   C     0.84736   0.78694   0.40053   0.00000  Uiso   1.00
C327   C     0.87929   0.75730   0.10901   0.00000  Uiso   1.00
C328   C     0.81925   0.71203   0.39506   0.00000  Uiso   1.00
C329   C     0.88219   0.75598   0.05955   0.00000  Uiso   1.00
C330   C     0.82015   0.70931   0.44505   0.00000  Uiso   1.00
C331   C     0.83558   0.74829   0.02691   0.00000  Uiso   1.00
C332   C     0.83456   0.74763   0.47349   0.00000  Uiso   1.00
C333   C     0.73369   0.74994   0.23756   0.00000  Uiso   1.00
C334   C     0.93299   0.74997   0.26244   0.00000  Uiso   1.00
C335   C     0.67871   0.74978   0.23083   0.00000  Uiso   1.00
C336   C     0.98799   0.74997   0.26919   0.00000  Uiso   1.00
C337   C     0.81440   0.54709   0.28713   0.00000  Uiso   1.00
C338   C     0.81449   0.95298   0.20791   0.00000  Uiso   1.00
C339   C     0.81487   0.59307   0.28730   0.00000  Uiso   1.00
C340   C     0.81499   0.90699   0.20780   0.00000  Uiso   1.00
C341   C     0.83316   0.61600   0.25005   0.00000  Uiso   1.00
C342   C     0.83318   0.88400   0.24998   0.00000  Uiso   1.00
C343   C     0.85126   0.59299   0.21279   0.00000  Uiso   1.00
C344   C     0.85112   0.90696   0.29219   0.00000  Uiso   1.00
C345   C     0.85135   0.54701   0.21292   0.00000  Uiso   1.00
C346   C     0.85118   0.95295   0.29215   0.00000  Uiso   1.00
C347   C     0.83278   0.52406   0.25001   0.00000  Uiso   1.00
C348   C     0.83275   0.97596   0.25004   0.00000  Uiso   1.00
H349   H     0.99155   0.74949   0.19442   0.00000  Uiso   1.00
H350   H     0.67521   0.75018   0.30561   0.00000  Uiso   1.00
H351   H     0.79931   0.52952   0.31561   0.00000  Uiso   1.00
H352   H     0.79949   0.97059   0.17534   0.00000  Uiso   1.00
H353   H     0.80033   0.61062   0.31607   0.00000  Uiso   1.00
H354   H     0.80057   0.88948   0.17507   0.00000  Uiso   1.00
H355   H     0.86593   0.61048   0.18403   0.00000  Uiso   1.00
H356   H     0.86570   0.88943   0.32492   0.00000  Uiso   1.00
H357   H     0.86636   0.52939   0.18445   0.00000  Uiso   1.00
H358   H     0.86608   0.97053   0.32472   0.00000  Uiso   1.00
H359   H     0.75218   0.73615   0.02221   0.00000  Uiso   1.00
H360   H     0.85869   0.81650   0.47047   0.00000  Uiso   1.00
H361   H     0.75203   0.73667   0.10915   0.00000  Uiso   1.00
H362   H     0.85841   0.81697   0.38346   0.00000  Uiso   1.00
H363   H     0.91444   0.76329   0.13399   0.00000  Uiso   1.00
H364   H     0.80832   0.68319   0.37303   0.00000  Uiso   1.00
N365   N     0.83333   0.74999   0.12624   0.00000  Uiso   1.00
N366   N     0.83333   0.75001   0.37377   0.00000  Uiso   1.00
O367   O     0.83334   0.68453   0.28974   0.00000  Uiso   1.00
O368   O     0.83333   0.81546   0.21026   0.00000  Uiso   1.00
O369   O     0.83334   0.68453   0.21026   0.00000  Uiso   1.00
O370   O     0.83333   0.81547   0.28974   0.00000  Uiso   1.00
O371   O     0.75725   0.75000   0.28045   0.00000  Uiso   1.00
O372   O     0.90942   0.75000   0.21956   0.00000  Uiso   1.00
O373   O     0.75725   0.74999   0.20097   0.00000  Uiso   1.00
O374   O     0.90942   0.75000   0.29904   0.00000  Uiso   1.00
Zn375  Zn    0.83333   0.75000   0.30307   0.00000  Uiso   1.00
Zn376  Zn    0.83333   0.74999   0.19693   0.00000  Uiso   1.00
C377   C     0.93459   0.76118   0.04411   0.00000  Uiso   1.00
O378   O     0.94337   0.74543   0.00631   0.00000  Uiso   1.00
O379   O     0.97472   0.78324   0.07375   0.00000  Uiso   1.00
H380   H     0.67522   0.78463   0.05957   0.00000  Uiso   1.00
C381   C     0.80776   0.66570   0.46573   0.00000  Uiso   1.00
O382   O     0.82454   0.65649   0.00722   0.00000  Uiso   1.00
O383   O     0.77785   0.63435   0.43703   0.00000  Uiso   1.00
H384   H     0.77239   0.60582   0.45481   0.00000  Uiso   1.00
C385   C     0.16664   0.16388   0.75002   0.00000  Uiso   1.00
C386   C     0.16665   0.33612   0.74999   0.00000  Uiso   1.00
C387   C     0.12195   0.24188   0.54583   0.00000  Uiso   1.00
C388   C     0.18106   0.28653   0.95017   0.00000  Uiso   1.00
C389   C     0.12173   0.24240   0.59541   0.00000  Uiso   1.00
C390   C     0.18069   0.28694   0.90053   0.00000  Uiso   1.00
C391   C     0.21263   0.25730   0.60901   0.00000  Uiso   1.00
C392   C     0.15259   0.21203   0.89506   0.00000  Uiso   1.00
C393   C     0.21553   0.25598   0.55955   0.00000  Uiso   1.00
C394   C     0.15348   0.20931   0.94505   0.00000  Uiso   1.00
C395   C     0.16892   0.24829   0.52691   0.00000  Uiso   1.00
C396   C     0.16789   0.24763   0.97349   0.00000  Uiso   1.00
C397   C     0.06702   0.24994   0.73756   0.00000  Uiso   1.00
C398   C     0.26632   0.24997   0.76244   0.00000  Uiso   1.00
C399   C     0.01205   0.24978   0.73083   0.00000  Uiso   1.00
C400   C     0.32132   0.24997   0.76919   0.00000  Uiso   1.00
C401   C     0.14773   0.04709   0.78713   0.00000  Uiso   1.00
C402   C     0.14782   0.45298   0.70791   0.00000  Uiso   1.00
C403   C     0.14821   0.09307   0.78730   0.00000  Uiso   1.00
C404   C     0.14833   0.40699   0.70780   0.00000  Uiso   1.00
C405   C     0.16650   0.11600   0.75005   0.00000  Uiso   1.00
C406   C     0.16651   0.38400   0.74998   0.00000  Uiso   1.00
C407   C     0.18459   0.09299   0.71279   0.00000  Uiso   1.00
C408   C     0.18445   0.40696   0.79219   0.00000  Uiso   1.00
C409   C     0.18469   0.04701   0.71292   0.00000  Uiso   1.00
C410   C     0.18452   0.45295   0.79215   0.00000  Uiso   1.00
C411   C     0.16612   0.02406   0.75001   0.00000  Uiso   1.00
C412   C     0.16608   0.47596   0.75004   0.00000  Uiso   1.00
H413   H     0.32489   0.24949   0.69442   0.00000  Uiso   1.00
H414   H     0.00855   0.25018   0.80561   0.00000  Uiso   1.00
H415   H     0.13264   0.02952   0.81561   0.00000  Uiso   1.00
H416   H     0.13282   0.47059   0.67534   0.00000  Uiso   1.00
H417   H     0.13367   0.11062   0.81607   0.00000  Uiso   1.00
H418   H     0.13390   0.38948   0.67507   0.00000  Uiso   1.00
H419   H     0.19926   0.11048   0.68403   0.00000  Uiso   1.00
H420   H     0.19903   0.38943   0.82492   0.00000  Uiso   1.00
H421   H     0.19969   0.02939   0.68445   0.00000  Uiso   1.00
H422   H     0.19941   0.47053   0.82472   0.00000  Uiso   1.00
H423   H     0.08551   0.23615   0.52221   0.00000  Uiso   1.00
H424   H     0.19202   0.31650   0.97047   0.00000  Uiso   1.00
H425   H     0.08536   0.23667   0.60915   0.00000  Uiso   1.00
H426   H     0.19174   0.31697   0.88346   0.00000  Uiso   1.00
H427   H     0.24777   0.26329   0.63399   0.00000  Uiso   1.00
H428   H     0.14165   0.18319   0.87303   0.00000  Uiso   1.00
N429   N     0.16667   0.24999   0.62624   0.00000  Uiso   1.00
N430   N     0.16667   0.25001   0.87377   0.00000  Uiso   1.00
O431   O     0.16667   0.18453   0.78974   0.00000  Uiso   1.00
O432   O     0.16666   0.31546   0.71026   0.00000  Uiso   1.00
O433   O     0.16667   0.18453   0.71026   0.00000  Uiso   1.00
O434   O     0.16666   0.31547   0.78974   0.00000  Uiso   1.00
O435   O     0.09058   0.25000   0.78045   0.00000  Uiso   1.00
O436   O     0.24275   0.25000   0.71956   0.00000  Uiso   1.00
O437   O     0.09058   0.24999   0.70097   0.00000  Uiso   1.00
O438   O     0.24275   0.25000   0.79904   0.00000  Uiso   1.00
Zn439  Zn    0.16667   0.25000   0.80307   0.00000  Uiso   1.00
Zn440  Zn    0.16667   0.24999   0.69693   0.00000  Uiso   1.00
C441   C     0.26792   0.26118   0.54411   0.00000  Uiso   1.00
O442   O     0.27670   0.24543   0.50631   0.00000  Uiso   1.00
O443   O     0.30805   0.28324   0.57375   0.00000  Uiso   1.00
H444   H     0.00855   0.28463   0.55957   0.00000  Uiso   1.00
C445   C     0.14109   0.16570   0.96573   0.00000  Uiso   1.00
O446   O     0.15788   0.15649   0.50722   0.00000  Uiso   1.00
O447   O     0.11118   0.13435   0.93703   0.00000  Uiso   1.00
H448   H     0.10572   0.10582   0.95481   0.00000  Uiso   1.00
C449   C     0.49997   0.16388   0.75002   0.00000  Uiso   1.00
C450   C     0.49999   0.33612   0.74999   0.00000  Uiso   1.00
C451   C     0.45528   0.24188   0.54583   0.00000  Uiso   1.00
C452   C     0.51439   0.28653   0.95017   0.00000  Uiso   1.00
C453   C     0.45506   0.24240   0.59541   0.00000  Uiso   1.00
C454   C     0.51402   0.28694   0.90053   0.00000  Uiso   1.00
C455   C     0.54596   0.25730   0.60901   0.00000  Uiso   1.00
C456   C     0.48592   0.21203   0.89506   0.00000  Uiso   1.00
C457   C     0.54886   0.25598   0.55955   0.00000  Uiso   1.00
C458   C     0.48681   0.20931   0.94505   0.00000  Uiso   1.00
C459   C     0.50225   0.24829   0.52691   0.00000  Uiso   1.00
C460   C     0.50122   0.24763   0.97349   0.00000  Uiso   1.00
C461   C     0.40035   0.24994   0.73756   0.00000  Uiso   1.00
C462   C     0.59966   0.24997   0.76244   0.00000  Uiso   1.00
C463   C     0.34538   0.24978   0.73083   0.00000  Uiso   1.00
C464   C     0.65466   0.24997   0.76919   0.00000  Uiso   1.00
C465   C     0.48107   0.04709   0.78713   0.00000  Uiso   1.00
C466   C     0.48116   0.45298   0.70791   0.00000  Uiso   1.00
C467   C     0.48154   0.09307   0.78730   0.00000  Uiso   1.00
C468   C     0.48166   0.40699   0.70780   0.00000  Uiso   1.00
C469   C     0.49983   0.11600   0.75005   0.00000  Uiso   1.00
C470   C     0.49985   0.38400   0.74998   0.00000  Uiso   1.00
C471   C     0.51792   0.09299   0.71279   0.00000  Uiso   1.00
C472   C     0.51778   0.40696   0.79219   0.00000  Uiso   1.00
C473   C     0.51802   0.04701   0.71292   0.00000  Uiso   1.00
C474   C     0.51785   0.45295   0.79215   0.00000  Uiso   1.00
C475   C     0.49945   0.02406   0.75001   0.00000  Uiso   1.00
C476   C     0.49942   0.47596   0.75004   0.00000  Uiso   1.00
H477   H     0.65822   0.24949   0.69442   0.00000  Uiso   1.00
H478   H     0.34188   0.25018   0.80561   0.00000  Uiso   1.00
H479   H     0.46597   0.02952   0.81561   0.00000  Uiso   1.00
H480   H     0.46615   0.47059   0.67534   0.00000  Uiso   1.00
H481   H     0.46700   0.11062   0.81607   0.00000  Uiso   1.00
H482   H     0.46723   0.38948   0.67507   0.00000  Uiso   1.00
H483   H     0.53260   0.11048   0.68403   0.00000  Uiso   1.00
H484   H     0.53237   0.38943   0.82492   0.00000  Uiso   1.00
H485   H     0.53303   0.02939   0.68445   0.00000  Uiso   1.00
H486   H     0.53274   0.47053   0.82472   0.00000  Uiso   1.00
H487   H     0.41885   0.23615   0.52221   0.00000  Uiso   1.00
H488   H     0.52535   0.31650   0.97047   0.00000  Uiso   1.00
H489   H     0.41869   0.23667   0.60915   0.00000  Uiso   1.00
H490   H     0.52508   0.31697   0.88346   0.00000  Uiso   1.00
H491   H     0.58111   0.26329   0.63399   0.00000  Uiso   1.00
H492   H     0.47499   0.18319   0.87303   0.00000  Uiso   1.00
N493   N     0.50000   0.24999   0.62624   0.00000  Uiso   1.00
N494   N     0.50000   0.25001   0.87377   0.00000  Uiso   1.00
O495   O     0.50000   0.18453   0.78974   0.00000  Uiso   1.00
O496   O     0.50000   0.31546   0.71026   0.00000  Uiso   1.00
O497   O     0.50000   0.18453   0.71026   0.00000  Uiso   1.00
O498   O     0.50000   0.31547   0.78974   0.00000  Uiso   1.00
O499   O     0.42392   0.25000   0.78045   0.00000  Uiso   1.00
O500   O     0.57608   0.25000   0.71956   0.00000  Uiso   1.00
O501   O     0.42392   0.24999   0.70097   0.00000  Uiso   1.00
O502   O     0.57608   0.25000   0.79904   0.00000  Uiso   1.00
Zn503  Zn    0.50000   0.25000   0.80307   0.00000  Uiso   1.00
Zn504  Zn    0.50000   0.24999   0.69693   0.00000  Uiso   1.00
C505   C     0.60126   0.26118   0.54411   0.00000  Uiso   1.00
O506   O     0.61003   0.24543   0.50631   0.00000  Uiso   1.00
O507   O     0.64138   0.28324   0.57375   0.00000  Uiso   1.00
H508   H     0.34189   0.28463   0.55957   0.00000  Uiso   1.00
C509   C     0.47442   0.16570   0.96573   0.00000  Uiso   1.00
O510   O     0.49121   0.15649   0.50722   0.00000  Uiso   1.00
O511   O     0.44451   0.13435   0.93703   0.00000  Uiso   1.00
H512   H     0.43905   0.10582   0.95481   0.00000  Uiso   1.00
C513   C     0.83331   0.16388   0.75002   0.00000  Uiso   1.00
C514   C     0.83332   0.33612   0.74999   0.00000  Uiso   1.00
C515   C     0.78862   0.24188   0.54583   0.00000  Uiso   1.00
C516   C     0.84772   0.28653   0.95017   0.00000  Uiso   1.00
C517   C     0.78839   0.24240   0.59541   0.00000  Uiso   1.00
C518   C     0.84736   0.28694   0.90053   0.00000  Uiso   1.00
C519   C     0.87929   0.25730   0.60901   0.00000  Uiso   1.00
C520   C     0.81925   0.21203   0.89506   0.00000  Uiso   1.00
C521   C     0.88219   0.25598   0.55955   0.00000  Uiso   1.00
C522   C     0.82015   0.20931   0.94505   0.00000  Uiso   1.00
C523   C     0.83558   0.24829   0.52691   0.00000  Uiso   1.00
C524   C     0.83456   0.24763   0.97349   0.00000  Uiso   1.00
C525   C     0.73369   0.24994   0.73756   0.00000  Uiso   1.00
C526   C     0.93299   0.24997   0.76244   0.00000  Uiso   1.00
C527   C     0.67871   0.24978   0.73083   0.00000  Uiso   1.00
C528   C     0.98799   0.24997   0.76919   0.00000  Uiso   1.00
C529   C     0.81440   0.04709   0.78713   0.00000  Uiso   1.00
C530   C     0.81449   0.45298   0.70791   0.00000  Uiso   1.00
C531   C     0.81487   0.09307   0.78730   0.00000  Uiso   1.00
C532   C     0.81499   0.40699   0.70780   0.00000  Uiso   1.00
C533   C     0.83316   0.11600   0.75005   0.00000  Uiso   1.00
C534   C     0.83318   0.38400   0.74998   0.00000  Uiso   1.00
C535   C     0.85126   0.09299   0.71279   0.00000  Uiso   1.00
C536   C     0.85112   0.40696   0.79219   0.00000  Uiso   1.00
C537   C     0.85135   0.04701   0.71292   0.00000  Uiso   1.00
C538   C     0.85118   0.45295   0.79215   0.00000  Uiso   1.00
C539   C     0.83278   0.02406   0.75001   0.00000  Uiso   1.00
C540   C     0.83275   0.47596   0.75004   0.00000  Uiso   1.00
H541   H     0.99155   0.24949   0.69442   0.00000  Uiso   1.00
H542   H     0.67521   0.25018   0.80561   0.00000  Uiso   1.00
H543   H     0.79931   0.02952   0.81561   0.00000  Uiso   1.00
H544   H     0.79949   0.47059   0.67534   0.00000  Uiso   1.00
H545   H     0.80033   0.11062   0.81607   0.00000  Uiso   1.00
H546   H     0.80057   0.38948   0.67507   0.00000  Uiso   1.00
H547   H     0.86593   0.11048   0.68403   0.00000  Uiso   1.00
H548   H     0.86570   0.38943   0.82492   0.00000  Uiso   1.00
H549   H     0.86636   0.02939   0.68445   0.00000  Uiso   1.00
H550   H     0.86608   0.47053   0.82472   0.00000  Uiso   1.00
H551   H     0.75218   0.23615   0.52221   0.00000  Uiso   1.00
H552   H     0.85869   0.31650   0.97047   0.00000  Uiso   1.00
H553   H     0.75203   0.23667   0.60915   0.00000  Uiso   1.00
H554   H     0.85841   0.31697   0.88346   0.00000  Uiso   1.00
H555   H     0.91444   0.26329   0.63399   0.00000  Uiso   1.00
H556   H     0.80832   0.18319   0.87303   0.00000  Uiso   1.00
N557   N     0.83333   0.24999   0.62624   0.00000  Uiso   1.00
N558   N     0.83333   0.25001   0.87377   0.00000  Uiso   1.00
O559   O     0.83334   0.18453   0.78974   0.00000  Uiso   1.00
O560   O     0.83333   0.31546   0.71026   0.00000  Uiso   1.00
O561   O     0.83334   0.18453   0.71026   0.00000  Uiso   1.00
O562   O     0.83333   0.31547   0.78974   0.00000  Uiso   1.00
O563   O     0.75725   0.25000   0.78045   0.00000  Uiso   1.00
O564   O     0.90942   0.25000   0.71956   0.00000  Uiso   1.00
O565   O     0.75725   0.24999   0.70097   0.00000  Uiso   1.00
O566   O     0.90942   0.25000   0.79904   0.00000  Uiso   1.00
Zn567  Zn    0.83333   0.25000   0.80307   0.00000  Uiso   1.00
Zn568  Zn    0.83333   0.24999   0.69693   0.00000  Uiso   1.00
C569   C     0.93459   0.26118   0.54411   0.00000  Uiso   1.00
O570   O     0.94337   0.24543   0.50631   0.00000  Uiso   1.00
O571   O     0.97472   0.28324   0.57375   0.00000  Uiso   1.00
H572   H     0.67522   0.28463   0.55957   0.00000  Uiso   1.00
C573   C     0.80776   0.16570   0.96573   0.00000  Uiso   1.00
O574   O     0.82454   0.15649   0.50722   0.00000  Uiso   1.00
O575   O     0.77785   0.13435   0.93703   0.00000  Uiso   1.00
H576   H     0.77239   0.10582   0.95481   0.00000  Uiso   1.00
C577   C     0.16664   0.66388   0.75002   0.00000  Uiso   1.00
C578   C     0.16665   0.83612   0.74999   0.00000  Uiso   1.00
C579   C     0.12195   0.74188   0.54583   0.00000  Uiso   1.00
C580   C     0.18106   0.78653   0.95017   0.00000  Uiso   1.00
C581   C     0.12173   0.74240   0.59541   0.00000  Uiso   1.00
C582   C     0.18069   0.78694   0.90053   0.00000  Uiso   1.00
C583   C     0.21263   0.75730   0.60901   0.00000  Uiso   1.00
C584   C     0.15259   0.71203   0.89506   0.00000  Uiso   1.00
C585   C     0.21553   0.75598   0.55955   0.00000  Uiso   1.00
C586   C     0.15348   0.70931   0.94505   0.00000  Uiso   1.00
C587   C     0.16892   0.74829   0.52691   0.00000  Uiso   1.00
C588   C     0.16789   0.74763   0.97349   0.00000  Uiso   1.00
C589   C     0.06702   0.74994   0.73756   0.00000  Uiso   1.00
C590   C     0.26632   0.74997   0.76244   0.00000  Uiso   1.00
C591   C     0.01205   0.74978   0.73083   0.00000  Uiso   1.00
C592   C     0.32132   0.74997   0.76919   0.00000  Uiso   1.00
C593   C     0.14773   0.54709   0.78713   0.00000  Uiso   1.00
C594   C     0.14782   0.95298   0.70791   0.00000  Uiso   1.00
C595   C     0.14821   0.59307   0.78730   0.00000  Uiso   1.00
C596   C     0.14833   0.90699   0.70780   0.00000  Uiso   1.00
C597   C     0.16650   0.61600   0.75005   0.00000  Uiso   1.00
C598   C     0.16651   0.88400   0.74998   0.00000  Uiso   1.00
C599   C     0.18459   0.59299   0.71279   0.00000  Uiso   1.00
C600   C     0.18445   0.90696   0.79219   0.00000  Uiso   1.00
C601   C     0.18469   0.54701   0.71292   0.00000  Uiso   1.00
C602   C     0.18452   0.95295   0.79215   0.00000  Uiso   1.00
C603   C     0.16612   0.52406   0.75001   0.00000  Uiso   1.00
C604   C     0.16608   0.97596   0.75004   0.00000  Uiso   1.00
H605   H     0.32489   0.74949   0.69442   0.00000  Uiso   1.00
H606   H     0.00855   0.75018   0.80561   0.00000  Uiso   1.00
H607   H     0.13264   0.52952   0.81561   0.00000  Uiso   1.00
H608   H     0.13282   0.97059   0.67534   0.00000  Uiso   1.00
H609   H     0.13367   0.61062   0.81607   0.00000  Uiso   1.00
H610   H     0.13390   0.88948   0.67507   0.00000  Uiso   1.00
H611   H     0.19926   0.61048   0.68403   0.00000  Uiso   1.00
H612   H     0.19903   0.88943   0.82492   0.00000  Uiso   1.00
H613   H     0.19969   0.52939   0.68445   0.00000  Uiso   1.00
H614   H     0.19941   0.97053   0.82472   0.00000  Uiso   1.00
H615   H     0.08551   0.73615   0.52221   0.00000  Uiso   1.00
H616   H     0.19202   0.81650   0.97047   0.00000  Uiso   1.00
H617   H     0.08536   0.73667   0.60915   0.00000  Uiso   1.00
H618   H     0.19174   0.81697   0.88346   0.00000  Uiso   1.00
H619   H     0.24777   0.76329   0.63399   0.00000  Uiso   1.00
H620   H     0.14165   0.68319   0.87303   0.00000  Uiso   1.00
N621   N     0.16667   0.74999   0.62624   0.00000  Uiso   1.00
N622   N     0.16667   0.75001   0.87377   0.00000  Uiso   1.00
O623   O     0.16667   0.68453   0.78974   0.00000  Uiso   1.00
O624   O     0.16666   0.81546   0.71026   0.00000  Uiso   1.00
O625   O     0.16667   0.68453   0.71026   0.00000  Uiso   1.00
O626   O     0.16666   0.81547   0.78974   0.00000  Uiso   1.00
O627   O     0.09058   0.75000   0.78045   0.00000  Uiso   1.00
O628   O     0.24275   0.75000   0.71956   0.00000  Uiso   1.00
O629   O     0.09058   0.74999   0.70097   0.00000  Uiso   1.00
O630   O     0.24275   0.75000   0.79904   0.00000  Uiso   1.00
Zn631  Zn    0.16667   0.75000   0.80307   0.00000  Uiso   1.00
Zn632  Zn    0.16667   0.74999   0.69693   0.00000  Uiso   1.00
C633   C     0.26792   0.76118   0.54411   0.00000  Uiso   1.00
O634   O     0.27670   0.74543   0.50631   0.00000  Uiso   1.00
O635   O     0.30805   0.78324   0.57375   0.00000  Uiso   1.00
H636   H     0.00855   0.78463   0.55957   0.00000  Uiso   1.00
C637   C     0.14109   0.66570   0.96573   0.00000  Uiso   1.00
O638   O     0.15788   0.65649   0.50722   0.00000  Uiso   1.00
O639   O     0.11118   0.63435   0.93703   0.00000  Uiso   1.00
H640   H     0.10572   0.60582   0.95481   0.00000  Uiso   1.00
C641   C     0.49997   0.66388   0.75002   0.00000  Uiso   1.00
C642   C     0.49999   0.83612   0.74999   0.00000  Uiso   1.00
C643   C     0.45528   0.74188   0.54583   0.00000  Uiso   1.00
C644   C     0.51439   0.78653   0.95017   0.00000  Uiso   1.00
C645   C     0.45506   0.74240   0.59541   0.00000  Uiso   1.00
C646   C     0.51402   0.78694   0.90053   0.00000  Uiso   1.00
C647   C     0.54596   0.75730   0.60901   0.00000  Uiso   1.00
C648   C     0.48592   0.71203   0.89506   0.00000  Uiso   1.00
C649   C     0.54886   0.75598   0.55955   0.00000  Uiso   1.00
C650   C     0.48681   0.70931   0.94505   0.00000  Uiso   1.00
C651   C     0.50225   0.74829   0.52691   0.00000  Uiso   1.00
C652   C     0.50122   0.74763   0.97349   0.00000  Uiso   1.00
C653   C     0.40035   0.74994   0.73756   0.00000  Uiso   1.00
C654   C     0.59966   0.74997   0.76244   0.00000  Uiso   1.00
C655   C     0.34538   0.74978   0.73083   0.00000  Uiso   1.00
C656   C     0.65466   0.74997   0.76919   0.00000  Uiso   1.00
C657   C     0.48107   0.54709   0.78713   0.00000  Uiso   1.00
C658   C     0.48116   0.95298   0.70791   0.00000  Uiso   1.00
C659   C     0.48154   0.59307   0.78730   0.00000  Uiso   1.00
C660   C     0.48166   0.90699   0.70780   0.00000  Uiso   1.00
C661   C     0.49983   0.61600   0.75005   0.00000  Uiso   1.00
C662   C     0.49985   0.88400   0.74998   0.00000  Uiso   1.00
C663   C     0.51792   0.59299   0.71279   0.00000  Uiso   1.00
C664   C     0.51778   0.90696   0.79219   0.00000  Uiso   1.00
C665   C     0.51802   0.54701   0.71292   0.00000  Uiso   1.00
C666   C     0.51785   0.95295   0.79215   0.00000  Uiso   1.00
C667   C     0.49945   0.52406   0.75001   0.00000  Uiso   1.00
C668   C     0.49942   0.97596   0.75004   0.00000  Uiso   1.00
H669   H     0.65822   0.74949   0.69442   0.00000  Uiso   1.00
H670   H     0.34188   0.75018   0.80561   0.00000  Uiso   1.00
H671   H     0.46597   0.52952   0.81561   0.00000  Uiso   1.00
H672   H     0.46615   0.97059   0.67534   0.00000  Uiso   1.00
H673   H     0.46700   0.61062   0.81607   0.00000  Uiso   1.00
H674   H     0.46723   0.88948   0.67507   0.00000  Uiso   1.00
H675   H     0.53260   0.61048   0.68403   0.00000  Uiso   1.00
H676   H     0.53237   0.88943   0.82492   0.00000  Uiso   1.00
H677   H     0.53303   0.52939   0.68445   0.00000  Uiso   1.00
H678   H     0.53274   0.97053   0.82472   0.00000  Uiso   1.00
H679   H     0.41885   0.73615   0.52221   0.00000  Uiso   1.00
H680   H     0.52535   0.81650   0.97047   0.00000  Uiso   1.00
H681   H     0.41869   0.73667   0.60915   0.00000  Uiso   1.00
H682   H     0.52508   0.81697   0.88346   0.00000  Uiso   1.00
H683   H     0.58111   0.76329   0.63399   0.00000  Uiso   1.00
H684   H     0.47499   0.68319   0.87303   0.00000  Uiso   1.00
N685   N     0.50000   0.74999   0.62624   0.00000  Uiso   1.00
N686   N     0.50000   0.75001   0.87377   0.00000  Uiso   1.00
O687   O     0.50000   0.68453   0.78974   0.00000  Uiso   1.00
O688   O     0.50000   0.81546   0.71026   0.00000  Uiso   1.00
O689   O     0.50000   0.68453   0.71026   0.00000  Uiso   1.00
O690   O     0.50000   0.81547   0.78974   0.00000  Uiso   1.00
O691   O     0.42392   0.75000   0.78045   0.00000  Uiso   1.00
O692   O     0.57608   0.75000   0.71956   0.00000  Uiso   1.00
O693   O     0.42392   0.74999   0.70097   0.00000  Uiso   1.00
O694   O     0.57608   0.75000   0.79904   0.00000  Uiso   1.00
Zn695  Zn    0.50000   0.75000   0.80307   0.00000  Uiso   1.00
Zn696  Zn    0.50000   0.74999   0.69693   0.00000  Uiso   1.00
C697   C     0.60126   0.76118   0.54411   0.00000  Uiso   1.00
O698   O     0.61003   0.74543   0.50631   0.00000  Uiso   1.00
O699   O     0.64138   0.78324   0.57375   0.00000  Uiso   1.00
H700   H     0.34189   0.78463   0.55957   0.00000  Uiso   1.00
C701   C     0.47442   0.66570   0.96573   0.00000  Uiso   1.00
O702   O     0.49121   0.65649   0.50722   0.00000  Uiso   1.00
O703   O     0.44451   0.63435   0.93703   0.00000  Uiso   1.00
H704   H     0.43905   0.60582   0.95481   0.00000  Uiso   1.00
C705   C     0.83331   0.66388   0.75002   0.00000  Uiso   1.00
C706   C     0.83332   0.83612   0.74999   0.00000  Uiso   1.00
C707   C     0.78862   0.74188   0.54583   0.00000  Uiso   1.00
C708   C     0.84772   0.78653   0.95017   0.00000  Uiso   1.00
C709   C     0.78839   0.74240   0.59541   0.00000  Uiso   1.00
C710   C     0.84736   0.78694   0.90053   0.00000  Uiso   1.00
C711   C     0.87929   0.75730   0.60901   0.00000  Uiso   1.00
C712   C     0.81925   0.71203   0.89506   0.00000  Uiso   1.00
C713   C     0.88219   0.75598   0.55955   0.00000  Uiso   1.00
C714   C     0.82015   0.70931   0.94505   0.00000  Uiso   1.00
C715   C     0.83558   0.74829   0.52691   0.00000  Uiso   1.00
C716   C     0.83456   0.74763   0.97349   0.00000  Uiso   1.00
C717   C     0.73369   0.74994   0.73756   0.00000  Uiso   1.00
C718   C     0.93299   0.74997   0.76244   0.00000  Uiso   1.00
C719   C     0.67871   0.74978   0.73083   0.00000  Uiso   1.00
C720   C     0.98799   0.74997   0.76919   0.00000  Uiso   1.00
C721   C     0.81440   0.54709   0.78713   0.00000  Uiso   1.00
C722   C     0.81449   0.95298   0.70791   0.00000  Uiso   1.00
C723   C     0.81487   0.59307   0.78730   0.00000  Uiso   1.00
C724   C     0.81499   0.90699   0.70780   0.00000  Uiso   1.00
C725   C     0.83316   0.61600   0.75005   0.00000  Uiso   1.00
C726   C     0.83318   0.88400   0.74998   0.00000  Uiso   1.00
C727   C     0.85126   0.59299   0.71279   0.00000  Uiso   1.00
C728   C     0.85112   0.90696   0.79219   0.00000  Uiso   1.00
C729   C     0.85135   0.54701   0.71292   0.00000  Uiso   1.00
C730   C     0.85118   0.95295   0.79215   0.00000  Uiso   1.00
C731   C     0.83278   0.52406   0.75001   0.00000  Uiso   1.00
C732   C     0.83275   0.97596   0.75004   0.00000  Uiso   1.00
H733   H     0.99155   0.74949   0.69442   0.00000  Uiso   1.00
H734   H     0.67521   0.75018   0.80561   0.00000  Uiso   1.00
H735   H     0.79931   0.52952   0.81561   0.00000  Uiso   1.00
H736   H     0.79949   0.97059   0.67534   0.00000  Uiso   1.00
H737   H     0.80033   0.61062   0.81607   0.00000  Uiso   1.00
H738   H     0.80057   0.88948   0.67507   0.00000  Uiso   1.00
H739   H     0.86593   0.61048   0.68403   0.00000  Uiso   1.00
H740   H     0.86570   0.88943   0.82492   0.00000  Uiso   1.00
H741   H     0.86636   0.52939   0.68445   0.00000  Uiso   1.00
H742   H     0.86608   0.97053   0.82472   0.00000  Uiso   1.00
H743   H     0.75218   0.73615   0.52221   0.00000  Uiso   1.00
H744   H     0.85869   0.81650   0.97047   0.00000  Uiso   1.00
H745   H     0.75203   0.73667   0.60915   0.00000  Uiso   1.00
H746   H     0.85841   0.81697   0.88346   0.00000  Uiso   1.00
H747   H     0.91444   0.76329   0.63399   0.00000  Uiso   1.00
H748   H     0.80832   0.68319   0.87303   0.00000  Uiso   1.00
N749   N     0.83333   0.74999   0.62624   0.00000  Uiso   1.00
N750   N     0.83333   0.75001   0.87377   0.00000  Uiso   1.00
O751   O     0.83334   0.68453   0.78974   0.00000  Uiso   1.00
O752   O     0.83333   0.81546   0.71026   0.00000  Uiso   1.00
O753   O     0.83334   0.68453   0.71026   0.00000  Uiso   1.00
O754   O     0.83333   0.81547   0.78974   0.00000  Uiso   1.00
O755   O     0.75725   0.75000   0.78045   0.00000  Uiso   1.00
O756   O     0.90942   0.75000   0.71956   0.00000  Uiso   1.00
O757   O     0.75725   0.74999   0.70097   0.00000  Uiso   1.00
O758   O     0.90942   0.75000   0.79904   0.00000  Uiso   1.00
Zn759  Zn    0.83333   0.75000   0.80307   0.00000  Uiso   1.00
Zn760  Zn    0.83333   0.74999   0.69693   0.00000  Uiso   1.00
C761   C     0.93459   0.76118   0.54411   0.00000  Uiso   1.00
O762   O     0.94337   0.74543   0.50631   0.00000  Uiso   1.00
O763   O     0.97472   0.78324   0.57375   0.00000  Uiso   1.00
H764   H     0.67522   0.78463   0.55957   0.00000  Uiso   1.00
C765   C     0.80776   0.66570   0.96573   0.00000  Uiso   1.00
O766   O     0.82454   0.65649   0.50722   0.00000  Uiso   1.00
O767   O     0.77785   0.63435   0.93703   0.00000  Uiso   1.00
H768   H     0.77239   0.60582   0.95481   0.00000  Uiso   1.00
loop_
_geom_bond_atom_site_label_1
_geom_bond_atom_site_label_2
_geom_bond_distance
_geom_bond_site_symmetry_2
_ccdc_geom_bond_type
C1     C21     1.437   .     S
C1     O47     1.285   .     A
C1     O49     1.286   .     A
C2     C22     1.438   .     S
C2     O50     1.285   .     A
C2     O48     1.286   .     A
C3     C11     1.408   .     A
C3     C5      1.406   .     A
C3     H39     1.083   .     S
C4     H40     1.083   .     S
C4     C12     1.408   .     A
C4     C6      1.406   .     A
C5     H41     1.081   .     S
C5     N45     1.363   .     A
C6     N46     1.362   .     A
C6     H42     1.081   .     S
C7     H43     1.079   .     S
C7     N45     1.364   .     A
C7     C9      1.415   .     A
C8     C10     1.416   .     A
C8     N46     1.364   .     A
C8     H44     1.081   .     S
C9     C57     1.488   .     S
C9     C11     1.422   .     A
C10    C12     1.423   .     A
C10    C61     1.488   .     S
C11    C396    1.510   1_554 S
C12    C395    1.510   .     S
C13    C15     1.401   .     S
C13    O53     1.277   .     A
C13    O51     1.275   .     A
C14    O52     1.276   .     A
C14    C16     1.402   .     S
C14    O54     1.277   .     A
C15    C144    1.329   1_455 S
C15    H157    1.087   1_455 S
C16    C79     1.329   .     S
C16    H94     1.088   .     S
C17    H31     1.083   .     S
C17    C27     1.399   .     A
C17    C19     1.381   .     A
C18    H32     1.083   .     S
C18    C28     1.399   .     A
C18    C20     1.381   .     A
C19    H33     1.084   .     S
C19    C21     1.399   .     A
C20    H34     1.084   .     S
C20    C22     1.399   .     A
C21    C23     1.399   .     A
C22    C24     1.399   .     A
C23    H35     1.084   .     S
C23    C25     1.380   .     A
C24    H36     1.083   .     S
C24    C26     1.380   .     A
C25    C27     1.399   .     A
C25    H37     1.083   .     S
C26    C28     1.399   .     A
C26    H38     1.083   .     S
C27    C220    1.444   1_545 S
C28    C219    1.444   .     S
H29    C79     1.087   .     S
H30    C144    1.088   1_455 S
N45    Zn56    2.004   .     S
N46    Zn55    2.004   .     S
O47    Zn55    2.002   .     S
O48    Zn56    2.002   .     S
O49    Zn56    2.001   .     S
O50    Zn55    2.001   .     S
O51    Zn55    1.971   .     S
O52    Zn56    1.971   .     S
O53    Zn56    1.981   .     S
O54    Zn55    1.981   .     S
C57    O58     1.223   .     D
C57    O59     1.399   .     S
O59    H124    1.014   .     S
H60    O187    1.014   1_455 S
C61    O63     1.399   .     S
C61    O446    1.223   .     S
O62    C445    1.223   1_554 S
O63    H64     1.014   .     S
C65    C85     1.437   .     S
C65    O111    1.285   .     A
C65    O113    1.286   .     A
C66    C86     1.438   .     S
C66    O114    1.285   .     A
C66    O112    1.286   .     A
C67    C75     1.408   .     A
C67    C69     1.406   .     A
C67    H103    1.083   .     S
C68    H104    1.083   .     S
C68    C76     1.408   .     A
C68    C70     1.406   .     A
C69    H105    1.081   .     S
C69    N109    1.363   .     A
C70    N110    1.362   .     A
C70    H106    1.081   .     S
C71    H107    1.079   .     S
C71    N109    1.364   .     A
C71    C73     1.415   .     A
C72    C74     1.416   .     A
C72    N110    1.364   .     A
C72    H108    1.081   .     S
C73    C121    1.488   .     S
C73    C75     1.422   .     A
C74    C76     1.423   .     A
C74    C125    1.488   .     S
C75    C460    1.510   1_554 S
C76    C459    1.510   .     S
C77    C79     1.401   .     S
C77    O117    1.277   .     A
C77    O115    1.275   .     A
C78    O116    1.276   .     A
C78    C80     1.402   .     S
C78    O118    1.277   .     A
C80    C143    1.329   .     S
C80    H158    1.088   .     S
C81    H95     1.083   .     S
C81    C91     1.399   .     A
C81    C83     1.381   .     A
C82    H96     1.083   .     S
C82    C92     1.399   .     A
C82    C84     1.381   .     A
C83    H97     1.084   .     S
C83    C85     1.399   .     A
C84    H98     1.084   .     S
C84    C86     1.399   .     A
C85    C87     1.399   .     A
C86    C88     1.399   .     A
C87    H99     1.084   .     S
C87    C89     1.380   .     A
C88    H100    1.083   .     S
C88    C90     1.380   .     A
C89    C91     1.399   .     A
C89    H101    1.083   .     S
C90    C92     1.399   .     A
C90    H102    1.083   .     S
C91    C284    1.444   1_545 S
C92    C283    1.444   .     S
H93    C143    1.087   .     S
N109   Zn120   2.004   .     S
N110   Zn119   2.004   .     S
O111   Zn119   2.002   .     S
O112   Zn120   2.002   .     S
O113   Zn120   2.001   .     S
O114   Zn119   2.001   .     S
O115   Zn119   1.971   .     S
O116   Zn120   1.971   .     S
O117   Zn120   1.981   .     S
O118   Zn119   1.981   .     S
C121   O122    1.223   .     D
C121   O123    1.399   .     S
O123   H188    1.014   .     S
C125   O127    1.399   .     S
C125   O510    1.223   .     S
O126   C509    1.223   1_554 S
O127   H128    1.014   .     S
C129   C149    1.437   .     S
C129   O175    1.285   .     A
C129   O177    1.286   .     A
C130   C150    1.438   .     S
C130   O178    1.285   .     A
C130   O176    1.286   .     A
C131   C139    1.408   .     A
C131   C133    1.406   .     A
C131   H167    1.083   .     S
C132   H168    1.083   .     S
C132   C140    1.408   .     A
C132   C134    1.406   .     A
C133   H169    1.081   .     S
C133   N173    1.363   .     A
C134   N174    1.362   .     A
C134   H170    1.081   .     S
C135   H171    1.079   .     S
C135   N173    1.364   .     A
C135   C137    1.415   .     A
C136   C138    1.416   .     A
C136   N174    1.364   .     A
C136   H172    1.081   .     S
C137   C185    1.488   .     S
C137   C139    1.422   .     A
C138   C140    1.423   .     A
C138   C189    1.488   .     S
C139   C524    1.510   1_554 S
C140   C523    1.510   .     S
C141   C143    1.401   .     S
C141   O181    1.277   .     A
C141   O179    1.275   .     A
C142   O180    1.276   .     A
C142   C144    1.402   .     S
C142   O182    1.277   .     A
C144   C15     1.329   1_655 S
C144   H30     1.088   1_655 S
C145   H159    1.083   .     S
C145   C155    1.399   .     A
C145   C147    1.381   .     A
C146   H160    1.083   .     S
C146   C156    1.399   .     A
C146   C148    1.381   .     A
C147   H161    1.084   .     S
C147   C149    1.399   .     A
C148   H162    1.084   .     S
C148   C150    1.399   .     A
C149   C151    1.399   .     A
C150   C152    1.399   .     A
C151   H163    1.084   .     S
C151   C153    1.380   .     A
C152   H164    1.083   .     S
C152   C154    1.380   .     A
C153   C155    1.399   .     A
C153   H165    1.083   .     S
C154   C156    1.399   .     A
C154   H166    1.083   .     S
C155   C348    1.444   1_545 S
C156   C347    1.444   .     S
H157   C15     1.087   1_655 S
N173   Zn184   2.004   .     S
N174   Zn183   2.004   .     S
O175   Zn183   2.002   .     S
O176   Zn184   2.002   .     S
O177   Zn184   2.001   .     S
O178   Zn183   2.001   .     S
O179   Zn183   1.971   .     S
O180   Zn184   1.971   .     S
O181   Zn184   1.981   .     S
O182   Zn183   1.981   .     S
C185   O186    1.223   .     D
C185   O187    1.399   .     S
O187   H60     1.014   1_655 S
C189   O191    1.399   .     S
C189   O574    1.223   .     S
O190   C573    1.223   1_554 S
O191   H192    1.014   .     S
C193   C213    1.437   .     S
C193   O239    1.285   .     A
C193   O241    1.286   .     A
C194   C214    1.438   .     S
C194   O242    1.285   .     A
C194   O240    1.286   .     A
C195   C203    1.408   .     A
C195   C197    1.406   .     A
C195   H231    1.083   .     S
C196   H232    1.083   .     S
C196   C204    1.408   .     A
C196   C198    1.406   .     A
C197   H233    1.081   .     S
C197   N237    1.363   .     A
C198   N238    1.362   .     A
C198   H234    1.081   .     S
C199   H235    1.079   .     S
C199   N237    1.364   .     A
C199   C201    1.415   .     A
C200   C202    1.416   .     A
C200   N238    1.364   .     A
C200   H236    1.081   .     S
C201   C249    1.488   .     S
C201   C203    1.422   .     A
C202   C204    1.423   .     A
C202   C253    1.488   .     S
C203   C588    1.510   1_554 S
C204   C587    1.510   .     S
C205   C207    1.401   .     S
C205   O245    1.277   .     A
C205   O243    1.275   .     A
C206   O244    1.276   .     A
C206   C208    1.402   .     S
C206   O246    1.277   .     A
C207   C336    1.329   1_455 S
C207   H349    1.087   1_455 S
C208   C271    1.329   .     S
C208   H286    1.088   .     S
C209   H223    1.083   .     S
C209   C219    1.399   .     A
C209   C211    1.381   .     A
C210   H224    1.083   .     S
C210   C220    1.399   .     A
C210   C212    1.381   .     A
C211   H225    1.084   .     S
C211   C213    1.399   .     A
C212   H226    1.084   .     S
C212   C214    1.399   .     A
C213   C215    1.399   .     A
C214   C216    1.399   .     A
C215   H227    1.084   .     S
C215   C217    1.380   .     A
C216   H228    1.083   .     S
C216   C218    1.380   .     A
C217   C219    1.399   .     A
C217   H229    1.083   .     S
C218   C220    1.399   .     A
C218   H230    1.083   .     S
C220   C27     1.444   1_565 S
H221   C271    1.087   .     S
H222   C336    1.088   1_455 S
N237   Zn248   2.004   .     S
N238   Zn247   2.004   .     S
O239   Zn247   2.002   .     S
O240   Zn248   2.002   .     S
O241   Zn248   2.001   .     S
O242   Zn247   2.001   .     S
O243   Zn247   1.971   .     S
O244   Zn248   1.971   .     S
O245   Zn248   1.981   .     S
O246   Zn247   1.981   .     S
C249   O250    1.223   .     D
C249   O251    1.399   .     S
O251   H316    1.014   .     S
H252   O379    1.014   1_455 S
C253   O255    1.399   .     S
C253   O638    1.223   .     S
O254   C637    1.223   1_554 S
O255   H256    1.014   .     S
C257   C277    1.437   .     S
C257   O303    1.285   .     A
C257   O305    1.286   .     A
C258   C278    1.438   .     S
C258   O306    1.285   .     A
C258   O304    1.286   .     A
C259   C267    1.408   .     A
C259   C261    1.406   .     A
C259   H295    1.083   .     S
C260   H296    1.083   .     S
C260   C268    1.408   .     A
C260   C262    1.406   .     A
C261   H297    1.081   .     S
C261   N301    1.363   .     A
C262   N302    1.362   .     A
C262   H298    1.081   .     S
C263   H299    1.079   .     S
C263   N301    1.364   .     A
C263   C265    1.415   .     A
C264   C266    1.416   .     A
C264   N302    1.364   .     A
C264   H300    1.081   .     S
C265   C313    1.488   .     S
C265   C267    1.422   .     A
C266   C268    1.423   .     A
C266   C317    1.488   .     S
C267   C652    1.510   1_554 S
C268   C651    1.510   .     S
C269   C271    1.401   .     S
C269   O309    1.277   .     A
C269   O307    1.275   .     A
C270   O308    1.276   .     A
C270   C272    1.402   .     S
C270   O310    1.277   .     A
C272   C335    1.329   .     S
C272   H350    1.088   .     S
C273   H287    1.083   .     S
C273   C283    1.399   .     A
C273   C275    1.381   .     A
C274   H288    1.083   .     S
C274   C284    1.399   .     A
C274   C276    1.381   .     A
C275   H289    1.084   .     S
C275   C277    1.399   .     A
C276   H290    1.084   .     S
C276   C278    1.399   .     A
C277   C279    1.399   .     A
C278   C280    1.399   .     A
C279   H291    1.084   .     S
C279   C281    1.380   .     A
C280   H292    1.083   .     S
C280   C282    1.380   .     A
C281   C283    1.399   .     A
C281   H293    1.083   .     S
C282   C284    1.399   .     A
C282   H294    1.083   .     S
C284   C91     1.444   1_565 S
H285   C335    1.087   .     S
N301   Zn312   2.004   .     S
N302   Zn311   2.004   .     S
O303   Zn311   2.002   .     S
O304   Zn312   2.002   .     S
O305   Zn312   2.001   .     S
O306   Zn311   2.001   .     S
O307   Zn311   1.971   .     S
O308   Zn312   1.971   .     S
O309   Zn312   1.981   .     S
O310   Zn311   1.981   .     S
C313   O314    1.223   .     D
C313   O315    1.399   .     S
O315   H380    1.014   .     S
C317   O319    1.399   .     S
C317   O702    1.223   .     S
O318   C701    1.223   1_554 S
O319   H320    1.014   .     S
C321   C341    1.437   .     S
C321   O367    1.285   .     A
C321   O369    1.286   .     A
C322   C342    1.438   .     S
C322   O370    1.285   .     A
C322   O368    1.286   .     A
C323   C331    1.408   .     A
C323   C325    1.406   .     A
C323   H359    1.083   .     S
C324   H360    1.083   .     S
C324   C332    1.408   .     A
C324   C326    1.406   .     A
C325   H361    1.081   .     S
C325   N365    1.363   .     A
C326   N366    1.362   .     A
C326   H362    1.081   .     S
C327   H363    1.079   .     S
C327   N365    1.364   .     A
C327   C329    1.415   .     A
C328   C330    1.416   .     A
C328   N366    1.364   .     A
C328   H364    1.081   .     S
C329   C377    1.488   .     S
C329   C331    1.422   .     A
C330   C332    1.423   .     A
C330   C381    1.488   .     S
C331   C716    1.510   1_554 S
C332   C715    1.510   .     S
C333   C335    1.401   .     S
C333   O373    1.277   .     A
C333   O371    1.275   .     A
C334   O372    1.276   .     A
C334   C336    1.402   .     S
C334   O374    1.277   .     A
C336   C207    1.329   1_655 S
C336   H222    1.088   1_655 S
C337   H351    1.083   .     S
C337   C347    1.399   .     A
C337   C339    1.381   .     A
C338   H352    1.083   .     S
C338   C348    1.399   .     A
C338   C340    1.381   .     A
C339   H353    1.084   .     S
C339   C341    1.399   .     A
C340   H354    1.084   .     S
C340   C342    1.399   .     A
C341   C343    1.399   .     A
C342   C344    1.399   .     A
C343   H355    1.084   .     S
C343   C345    1.380   .     A
C344   H356    1.083   .     S
C344   C346    1.380   .     A
C345   C347    1.399   .     A
C345   H357    1.083   .     S
C346   C348    1.399   .     A
C346   H358    1.083   .     S
C348   C155    1.444   1_565 S
H349   C207    1.087   1_655 S
N365   Zn376   2.004   .     S
N366   Zn375   2.004   .     S
O367   Zn375   2.002   .     S
O368   Zn376   2.002   .     S
O369   Zn376   2.001   .     S
O370   Zn375   2.001   .     S
O371   Zn375   1.971   .     S
O372   Zn376   1.971   .     S
O373   Zn376   1.981   .     S
O374   Zn375   1.981   .     S
C377   O378    1.223   .     D
C377   O379    1.399   .     S
O379   H252    1.014   1_655 S
C381   O383    1.399   .     S
C381   O766    1.223   .     S
O382   C765    1.223   1_554 S
O383   H384    1.014   .     S
C385   C405    1.437   .     S
C385   O431    1.285   .     A
C385   O433    1.286   .     A
C386   C406    1.438   .     S
C386   O434    1.285   .     A
C386   O432    1.286   .     A
C387   C395    1.408   .     A
C387   C389    1.406   .     A
C387   H423    1.083   .     S
C388   H424    1.083   .     S
C388   C396    1.408   .     A
C388   C390    1.406   .     A
C389   H425    1.081   .     S
C389   N429    1.363   .     A
C390   N430    1.362   .     A
C390   H426    1.081   .     S
C391   H427    1.079   .     S
C391   N429    1.364   .     A
C391   C393    1.415   .     A
C392   C394    1.416   .     A
C392   N430    1.364   .     A
C392   H428    1.081   .     S
C393   C441    1.488   .     S
C393   C395    1.422   .     A
C394   C396    1.423   .     A
C394   C445    1.488   .     S
C396   C11     1.510   1_556 S
C397   C399    1.401   .     S
C397   O437    1.277   .     A
C397   O435    1.275   .     A
C398   O436    1.276   .     A
C398   C400    1.402   .     S
C398   O438    1.277   .     A
C399   C528    1.329   1_455 S
C399   H541    1.087   1_455 S
C400   C463    1.329   .     S
C400   H478    1.088   .     S
C401   H415    1.083   .     S
C401   C411    1.399   .     A
C401   C403    1.381   .     A
C402   H416    1.083   .     S
C402   C412    1.399   .     A
C402   C404    1.381   .     A
C403   H417    1.084   .     S
C403   C405    1.399   .     A
C404   H418    1.084   .     S
C404   C406    1.399   .     A
C405   C407    1.399   .     A
C406   C408    1.399   .     A
C407   H419    1.084   .     S
C407   C409    1.380   .     A
C408   H420    1.083   .     S
C408   C410    1.380   .     A
C409   C411    1.399   .     A
C409   H421    1.083   .     S
C410   C412    1.399   .     A
C410   H422    1.083   .     S
C411   C604    1.444   1_545 S
C412   C603    1.444   .     S
H413   C463    1.087   .     S
H414   C528    1.088   1_455 S
N429   Zn440   2.004   .     S
N430   Zn439   2.004   .     S
O431   Zn439   2.002   .     S
O432   Zn440   2.002   .     S
O433   Zn440   2.001   .     S
O434   Zn439   2.001   .     S
O435   Zn439   1.971   .     S
O436   Zn440   1.971   .     S
O437   Zn440   1.981   .     S
O438   Zn439   1.981   .     S
C441   O442    1.223   .     D
C441   O443    1.399   .     S
O443   H508    1.014   .     S
H444   O571    1.014   1_455 S
C445   O447    1.399   .     S
C445   O62     1.223   1_556 S
O447   H448    1.014   .     S
C449   C469    1.437   .     S
C449   O495    1.285   .     A
C449   O497    1.286   .     A
C450   C470    1.438   .     S
C450   O498    1.285   .     A
C450   O496    1.286   .     A
C451   C459    1.408   .     A
C451   C453    1.406   .     A
C451   H487    1.083   .     S
C452   H488    1.083   .     S
C452   C460    1.408   .     A
C452   C454    1.406   .     A
C453   H489    1.081   .     S
C453   N493    1.363   .     A
C454   N494    1.362   .     A
C454   H490    1.081   .     S
C455   H491    1.079   .     S
C455   N493    1.364   .     A
C455   C457    1.415   .     A
C456   C458    1.416   .     A
C456   N494    1.364   .     A
C456   H492    1.081   .     S
C457   C505    1.488   .     S
C457   C459    1.422   .     A
C458   C460    1.423   .     A
C458   C509    1.488   .     S
C460   C75     1.510   1_556 S
C461   C463    1.401   .     S
C461   O501    1.277   .     A
C461   O499    1.275   .     A
C462   O500    1.276   .     A
C462   C464    1.402   .     S
C462   O502    1.277   .     A
C464   C527    1.329   .     S
C464   H542    1.088   .     S
C465   H479    1.083   .     S
C465   C475    1.399   .     A
C465   C467    1.381   .     A
C466   H480    1.083   .     S
C466   C476    1.399   .     A
C466   C468    1.381   .     A
C467   H481    1.084   .     S
C467   C469    1.399   .     A
C468   H482    1.084   .     S
C468   C470    1.399   .     A
C469   C471    1.399   .     A
C470   C472    1.399   .     A
C471   H483    1.084   .     S
C471   C473    1.380   .     A
C472   H484    1.083   .     S
C472   C474    1.380   .     A
C473   C475    1.399   .     A
C473   H485    1.083   .     S
C474   C476    1.399   .     A
C474   H486    1.083   .     S
C475   C668    1.444   1_545 S
C476   C667    1.444   .     S
H477   C527    1.087   .     S
N493   Zn504   2.004   .     S
N494   Zn503   2.004   .     S
O495   Zn503   2.002   .     S
O496   Zn504   2.002   .     S
O497   Zn504   2.001   .     S
O498   Zn503   2.001   .     S
O499   Zn503   1.971   .     S
O500   Zn504   1.971   .     S
O501   Zn504   1.981   .     S
O502   Zn503   1.981   .     S
C505   O506    1.223   .     D
C505   O507    1.399   .     S
O507   H572    1.014   .     S
C509   O511    1.399   .     S
C509   O126    1.223   1_556 S
O511   H512    1.014   .     S
C513   C533    1.437   .     S
C513   O559    1.285   .     A
C513   O561    1.286   .     A
C514   C534    1.438   .     S
C514   O562    1.285   .     A
C514   O560    1.286   .     A
C515   C523    1.408   .     A
C515   C517    1.406   .     A
C515   H551    1.083   .     S
C516   H552    1.083   .     S
C516   C524    1.408   .     A
C516   C518    1.406   .     A
C517   H553    1.081   .     S
C517   N557    1.363   .     A
C518   N558    1.362   .     A
C518   H554    1.081   .     S
C519   H555    1.079   .     S
C519   N557    1.364   .     A
C519   C521    1.415   .     A
C520   C522    1.416   .     A
C520   N558    1.364   .     A
C520   H556    1.081   .     S
C521   C569    1.488   .     S
C521   C523    1.422   .     A
C522   C524    1.423   .     A
C522   C573    1.488   .     S
C524   C139    1.510   1_556 S
C525   C527    1.401   .     S
C525   O565    1.277   .     A
C525   O563    1.275   .     A
C526   O564    1.276   .     A
C526   C528    1.402   .     S
C526   O566    1.277   .     A
C528   C399    1.329   1_655 S
C528   H414    1.088   1_655 S
C529   H543    1.083   .     S
C529   C539    1.399   .     A
C529   C531    1.381   .     A
C530   H544    1.083   .     S
C530   C540    1.399   .     A
C530   C532    1.381   .     A
C531   H545    1.084   .     S
C531   C533    1.399   .     A
C532   H546    1.084   .     S
C532   C534    1.399   .     A
C533   C535    1.399   .     A
C534   C536    1.399   .     A
C535   H547    1.084   .     S
C535   C537    1.380   .     A
C536   H548    1.083   .     S
C536   C538    1.380   .     A
C537   C539    1.399   .     A
C537   H549    1.083   .     S
C538   C540    1.399   .     A
C538   H550    1.083   .     S
C539   C732    1.444   1_545 S
C540   C731    1.444   .     S
H541   C399    1.087   1_655 S
N557   Zn568   2.004   .     S
N558   Zn567   2.004   .     S
O559   Zn567   2.002   .     S
O560   Zn568   2.002   .     S
O561   Zn568   2.001   .     S
O562   Zn567   2.001   .     S
O563   Zn567   1.971   .     S
O564   Zn568   1.971   .     S
O565   Zn568   1.981   .     S
O566   Zn567   1.981   .     S
C569   O570    1.223   .     D
C569   O571    1.399   .     S
O571   H444    1.014   1_655 S
C573   O575    1.399   .     S
C573   O190    1.223   1_556 S
O575   H576    1.014   .     S
C577   C597    1.437   .     S
C577   O623    1.285   .     A
C577   O625    1.286   .     A
C578   C598    1.438   .     S
C578   O626    1.285   .     A
C578   O624    1.286   .     A
C579   C587    1.408   .     A
C579   C581    1.406   .     A
C579   H615    1.083   .     S
C580   H616    1.083   .     S
C580   C588    1.408   .     A
C580   C582    1.406   .     A
C581   H617    1.081   .     S
C581   N621    1.363   .     A
C582   N622    1.362   .     A
C582   H618    1.081   .     S
C583   H619    1.079   .     S
C583   N621    1.364   .     A
C583   C585    1.415   .     A
C584   C586    1.416   .     A
C584   N622    1.364   .     A
C584   H620    1.081   .     S
C585   C633    1.488   .     S
C585   C587    1.422   .     A
C586   C588    1.423   .     A
C586   C637    1.488   .     S
C588   C203    1.510   1_556 S
C589   C591    1.401   .     S
C589   O629    1.277   .     A
C589   O627    1.275   .     A
C590   O628    1.276   .     A
C590   C592    1.402   .     S
C590   O630    1.277   .     A
C591   C720    1.329   1_455 S
C591   H733    1.087   1_455 S
C592   C655    1.329   .     S
C592   H670    1.088   .     S
C593   H607    1.083   .     S
C593   C603    1.399   .     A
C593   C595    1.381   .     A
C594   H608    1.083   .     S
C594   C604    1.399   .     A
C594   C596    1.381   .     A
C595   H609    1.084   .     S
C595   C597    1.399   .     A
C596   H610    1.084   .     S
C596   C598    1.399   .     A
C597   C599    1.399   .     A
C598   C600    1.399   .     A
C599   H611    1.084   .     S
C599   C601    1.380   .     A
C600   H612    1.083   .     S
C600   C602    1.380   .     A
C601   C603    1.399   .     A
C601   H613    1.083   .     S
C602   C604    1.399   .     A
C602   H614    1.083   .     S
C604   C411    1.444   1_565 S
H605   C655    1.087   .     S
H606   C720    1.088   1_455 S
N621   Zn632   2.004   .     S
N622   Zn631   2.004   .     S
O623   Zn631   2.002   .     S
O624   Zn632   2.002   .     S
O625   Zn632   2.001   .     S
O626   Zn631   2.001   .     S
O627   Zn631   1.971   .     S
O628   Zn632   1.971   .     S
O629   Zn632   1.981   .     S
O630   Zn631   1.981   .     S
C633   O634    1.223   .     D
C633   O635    1.399   .     S
O635   H700    1.014   .     S
H636   O763    1.014   1_455 S
C637   O639    1.399   .     S
C637   O254    1.223   1_556 S
O639   H640    1.014   .     S
C641   C661    1.437   .     S
C641   O687    1.285   .     A
C641   O689    1.286   .     A
C642   C662    1.438   .     S
C642   O690    1.285   .     A
C642   O688    1.286   .     A
C643   C651    1.408   .     A
C643   C645    1.406   .     A
C643   H679    1.083   .     S
C644   H680    1.083   .     S
C644   C652    1.408   .     A
C644   C646    1.406   .     A
C645   H681    1.081   .     S
C645   N685    1.363   .     A
C646   N686    1.362   .     A
C646   H682    1.081   .     S
C647   H683    1.079   .     S
C647   N685    1.364   .     A
C647   C649    1.415   .     A
C648   C650    1.416   .     A
C648   N686    1.364   .     A
C648   H684    1.081   .     S
C649   C697    1.488   .     S
C649   C651    1.422   .     A
C650   C652    1.423   .     A
C650   C701    1.488   .     S
C652   C267    1.510   1_556 S
C653   C655    1.401   .     S
C653   O693    1.277   .     A
C653   O691    1.275   .     A
C654   O692    1.276   .     A
C654   C656    1.402   .     S
C654   O694    1.277   .     A
C656   C719    1.329   .     S
C656   H734    1.088   .     S
C657   H671    1.083   .     S
C657   C667    1.399   .     A
C657   C659    1.381   .     A
C658   H672    1.083   .     S
C658   C668    1.399   .     A
C658   C660    1.381   .     A
C659   H673    1.084   .     S
C659   C661    1.399   .     A
C660   H674    1.084   .     S
C660   C662    1.399   .     A
C661   C663    1.399   .     A
C662   C664    1.399   .     A
C663   H675    1.084   .     S
C663   C665    1.380   .     A
C664   H676    1.083   .     S
C664   C666    1.380   .     A
C665   C667    1.399   .     A
C665   H677    1.083   .     S
C666   C668    1.399   .     A
C666   H678    1.083   .     S
C668   C475    1.444   1_565 S
H669   C719    1.087   .     S
N685   Zn696   2.004   .     S
N686   Zn695   2.004   .     S
O687   Zn695   2.002   .     S
O688   Zn696   2.002   .     S
O689   Zn696   2.001   .     S
O690   Zn695   2.001   .     S
O691   Zn695   1.971   .     S
O692   Zn696   1.971   .     S
O693   Zn696   1.981   .     S
O694   Zn695   1.981   .     S
C697   O698    1.223   .     D
C697   O699    1.399   .     S
O699   H764    1.014   .     S
C701   O703    1.399   .     S
C701   O318    1.223   1_556 S
O703   H704    1.014   .     S
C705   C725    1.437   .     S
C705   O751    1.285   .     A
C705   O753    1.286   .     A
C706   C726    1.438   .     S
C706   O754    1.285   .     A
C706   O752    1.286   .     A
C707   C715    1.408   .     A
C707   C709    1.406   .     A
C707   H743    1.083   .     S
C708   H744    1.083   .     S
C708   C716    1.408   .     A
C708   C710    1.406   .     A
C709   H745    1.081   .     S
C709   N749    1.363   .     A
C710   N750    1.362   .     A
C710   H746    1.081   .     S
C711   H747    1.079   .     S
C711   N749    1.364   .     A
C711   C713    1.415   .     A
C712   C714    1.416   .     A
C712   N750    1.364   .     A
C712   H748    1.081   .     S
C713   C761    1.488   .     S
C713   C715    1.422   .     A
C714   C716    1.423   .     A
C714   C765    1.488   .     S
C716   C331    1.510   1_556 S
C717   C719    1.401   .     S
C717   O757    1.277   .     A
C717   O755    1.275   .     A
C718   O756    1.276   .     A
C718   C720    1.402   .     S
C718   O758    1.277   .     A
C720   C591    1.329   1_655 S
C720   H606    1.088   1_655 S
C721   H735    1.083   .     S
C721   C731    1.399   .     A
C721   C723    1.381   .     A
C722   H736    1.083   .     S
C722   C732    1.399   .     A
C722   C724    1.381   .     A
C723   H737    1.084   .     S
C723   C725    1.399   .     A
C724   H738    1.084   .     S
C724   C726    1.399   .     A
C725   C727    1.399   .     A
C726   C728    1.399   .     A
C727   H739    1.084   .     S
C727   C729    1.380   .     A
C728   H740    1.083   .     S
C728   C730    1.380   .     A
C729   C731    1.399   .     A
C729   H741    1.083   .     S
C730   C732    1.399   .     A
C730   H742    1.083   .     S
C732   C539    1.444   1_565 S
H733   C591    1.087   1_655 S
N749   Zn760   2.004   .     S
N750   Zn759   2.004   .     S
O751   Zn759   2.002   .     S
O752   Zn760   2.002   .     S
O753   Zn760   2.001   .     S
O754   Zn759   2.001   .     S
O755   Zn759   1.971   .     S
O756   Zn760   1.971   .     S
O757   Zn760   1.981   .     S
O758   Zn759   1.981   .     S
C761   O762    1.223   .     D
C761   O763    1.399   .     S
O763   H636    1.014   1_655 S
C765   O767    1.399   .     S
C765   O382    1.223   1_556 S
O767   H768    1.014   .     S
