data_str_m3_o1_o1_pcu_sym.55
_audit_creation_date              2020-01-03
_audit_creation_method            'Materials Studio'
_symmetry_space_group_name_H-M    'P1'
_symmetry_Int_Tables_number       1
_symmetry_cell_setting            triclinic
loop_
_symmetry_equiv_pos_as_xyz
  x,y,z
_cell_length_a                    33.0845
_cell_length_b                    27.3748
_cell_length_c                    29.8824
_cell_angle_alpha                 89.9995
_cell_angle_beta                  89.9998
_cell_angle_gamma                 90.0000
loop_
_atom_site_label
_atom_site_type_symbol
_atom_site_fract_x
_atom_site_fract_y
_atom_site_fract_z
_atom_site_U_iso_or_equiv
_atom_site_adp_type
_atom_site_occupancy
C1     C     0.06234   0.19345   0.16686   0.00000  Uiso   1.00
C2     C     0.49966   0.20582   0.30895   0.00000  Uiso   1.00
C3     C     0.00034   0.20582   0.02438   0.00000  Uiso   1.00
C4     C     0.00034   0.29418   0.30895   0.00000  Uiso   1.00
C5     C     0.24966   0.04418   0.02438   0.00000  Uiso   1.00
C6     C     0.24966   0.45582   0.30895   0.00000  Uiso   1.00
C7     C     0.25034   0.45582   0.02438   0.00000  Uiso   1.00
C8     C     0.25034   0.04418   0.30895   0.00000  Uiso   1.00
C9     C     0.38725   0.14542   0.12430   0.00000  Uiso   1.00
C10    C     0.11412   0.35358   0.20611   0.00000  Uiso   1.00
C11    C     0.11274   0.35459   0.12430   0.00000  Uiso   1.00
C12    C     0.43766   0.30655   0.16686   0.00000  Uiso   1.00
C13    C     0.38588   0.14642   0.20611   0.00000  Uiso   1.00
C14    C     0.11274   0.14541   0.20903   0.00000  Uiso   1.00
C15    C     0.38587   0.35358   0.12722   0.00000  Uiso   1.00
C16    C     0.38726   0.35459   0.20903   0.00000  Uiso   1.00
C17    C     0.11412   0.14641   0.12722   0.00000  Uiso   1.00
C18    C     0.13725   0.39541   0.12430   0.00000  Uiso   1.00
C19    C     0.36412   0.10358   0.20611   0.00000  Uiso   1.00
C20    C     0.36274   0.10459   0.12430   0.00000  Uiso   1.00
C21    C     0.13588   0.39641   0.20611   0.00000  Uiso   1.00
C22    C     0.36275   0.39541   0.20903   0.00000  Uiso   1.00
C23    C     0.43766   0.19345   0.16647   0.00000  Uiso   1.00
C24    C     0.13587   0.10358   0.12722   0.00000  Uiso   1.00
C25    C     0.13725   0.10459   0.20903   0.00000  Uiso   1.00
C26    C     0.36412   0.39642   0.12722   0.00000  Uiso   1.00
C27    C     0.09842   0.33621   0.16553   0.00000  Uiso   1.00
C28    C     0.40158   0.16379   0.16553   0.00000  Uiso   1.00
C29    C     0.40158   0.33621   0.16780   0.00000  Uiso   1.00
C30    C     0.09842   0.16379   0.16780   0.00000  Uiso   1.00
C31    C     0.34842   0.08621   0.16553   0.00000  Uiso   1.00
C32    C     0.15158   0.41379   0.16553   0.00000  Uiso   1.00
C33    C     0.15158   0.08621   0.16780   0.00000  Uiso   1.00
C34    C     0.06234   0.30655   0.16647   0.00000  Uiso   1.00
C35    C     0.34842   0.41379   0.16780   0.00000  Uiso   1.00
C36    C     0.31234   0.44345   0.16686   0.00000  Uiso   1.00
C37    C     0.18766   0.05655   0.16686   0.00000  Uiso   1.00
C38    C     0.18766   0.44345   0.16647   0.00000  Uiso   1.00
C39    C     0.31234   0.05655   0.16647   0.00000  Uiso   1.00
C40    C     0.49966   0.29418   0.02438   0.00000  Uiso   1.00
Cl41   Cl    0.39524   0.17550   0.07226   0.00000  Uiso   1.00
Cl42   Cl    0.36351   0.06823   0.25575   0.00000  Uiso   1.00
Cl43   Cl    0.35475   0.07452   0.07226   0.00000  Uiso   1.00
Cl44   Cl    0.13649   0.43176   0.25576   0.00000  Uiso   1.00
Cl45   Cl    0.35476   0.42550   0.26107   0.00000  Uiso   1.00
Cl46   Cl    0.13648   0.06823   0.07758   0.00000  Uiso   1.00
Cl47   Cl    0.14524   0.07451   0.26107   0.00000  Uiso   1.00
Cl48   Cl    0.36351   0.43177   0.07758   0.00000  Uiso   1.00
Cl49   Cl    0.11351   0.31823   0.25575   0.00000  Uiso   1.00
Cl50   Cl    0.10475   0.32451   0.07226   0.00000  Uiso   1.00
Cl51   Cl    0.38649   0.18176   0.25576   0.00000  Uiso   1.00
Cl52   Cl    0.10476   0.17549   0.26107   0.00000  Uiso   1.00
Cl53   Cl    0.38649   0.31823   0.07758   0.00000  Uiso   1.00
Cl54   Cl    0.39524   0.32451   0.26107   0.00000  Uiso   1.00
Cl55   Cl    0.11351   0.18176   0.07758   0.00000  Uiso   1.00
Cl56   Cl    0.14525   0.42549   0.07226   0.00000  Uiso   1.00
H57    H     0.49329   0.39391   0.11550   0.00000  Uiso   1.00
H58    H     0.49339   0.10606   0.21785   0.00000  Uiso   1.00
H59    H     0.00666   0.10607   0.11549   0.00000  Uiso   1.00
H60    H     0.00664   0.39394   0.21784   0.00000  Uiso   1.00
H61    H     0.24320   0.14387   0.11551   0.00000  Uiso   1.00
H62    H     0.24341   0.35605   0.21785   0.00000  Uiso   1.00
H63    H     0.25666   0.35608   0.11549   0.00000  Uiso   1.00
H64    H     0.25665   0.14393   0.21784   0.00000  Uiso   1.00
N65    N     0.00000   0.25000   0.28573   0.00000  Uiso   1.00
N66    N     0.00000   0.25000   0.04760   0.00000  Uiso   1.00
N67    N     0.25000   0.00000   0.28573   0.00000  Uiso   1.00
N68    N     0.25000   0.00000   0.04760   0.00000  Uiso   1.00
O69    O     0.04580   0.20419   0.20487   0.00000  Uiso   1.00
O70    O     0.20419   0.04581   0.12846   0.00000  Uiso   1.00
O71    O     0.20419   0.04581   0.20487   0.00000  Uiso   1.00
O72    O     0.29580   0.45419   0.12846   0.00000  Uiso   1.00
O73    O     0.20419   0.45419   0.12846   0.00000  Uiso   1.00
O74    O     0.29580   0.04581   0.20487   0.00000  Uiso   1.00
O75    O     0.29580   0.04581   0.12846   0.00000  Uiso   1.00
O76    O     0.20419   0.45419   0.20487   0.00000  Uiso   1.00
O77    O     0.02678   0.38814   0.03592   0.00000  Uiso   1.00
O78    O     0.45452   0.37369   0.04326   0.00000  Uiso   1.00
O79    O     0.00051   0.35953   0.10886   0.00000  Uiso   1.00
O80    O     0.45419   0.29581   0.12846   0.00000  Uiso   1.00
O81    O     0.02679   0.11186   0.29741   0.00000  Uiso   1.00
O82    O     0.45453   0.12630   0.29007   0.00000  Uiso   1.00
O83    O     0.00051   0.14047   0.22447   0.00000  Uiso   1.00
O84    O     0.47321   0.11186   0.03592   0.00000  Uiso   1.00
O85    O     0.04547   0.12630   0.04326   0.00000  Uiso   1.00
O86    O     0.49949   0.14047   0.10887   0.00000  Uiso   1.00
O87    O     0.47321   0.38814   0.29741   0.00000  Uiso   1.00
O88    O     0.04547   0.37370   0.29007   0.00000  Uiso   1.00
O89    O     0.49949   0.35953   0.22447   0.00000  Uiso   1.00
O90    O     0.27677   0.13815   0.03592   0.00000  Uiso   1.00
O91    O     0.45419   0.29581   0.20487   0.00000  Uiso   1.00
O92    O     0.20451   0.12369   0.04326   0.00000  Uiso   1.00
O93    O     0.25051   0.10953   0.10886   0.00000  Uiso   1.00
O94    O     0.27679   0.36187   0.29741   0.00000  Uiso   1.00
O95    O     0.20453   0.37630   0.29007   0.00000  Uiso   1.00
O96    O     0.25051   0.39047   0.22447   0.00000  Uiso   1.00
O97    O     0.22321   0.36186   0.03592   0.00000  Uiso   1.00
O98    O     0.29548   0.37630   0.04327   0.00000  Uiso   1.00
O99    O     0.24949   0.39047   0.10887   0.00000  Uiso   1.00
O100   O     0.22321   0.13814   0.29741   0.00000  Uiso   1.00
O101   O     0.29547   0.12370   0.29007   0.00000  Uiso   1.00
O102   O     0.04580   0.20419   0.12846   0.00000  Uiso   1.00
O103   O     0.24949   0.10953   0.22447   0.00000  Uiso   1.00
O104   O     0.45419   0.20419   0.12846   0.00000  Uiso   1.00
O105   O     0.04580   0.29581   0.20487   0.00000  Uiso   1.00
O106   O     0.04580   0.29581   0.12846   0.00000  Uiso   1.00
O107   O     0.45419   0.20419   0.20487   0.00000  Uiso   1.00
O108   O     0.29580   0.45419   0.20487   0.00000  Uiso   1.00
S109   S     0.49561   0.35338   0.05351   0.00000  Uiso   1.00
S110   S     0.49561   0.14662   0.27982   0.00000  Uiso   1.00
S111   S     0.00439   0.14662   0.05352   0.00000  Uiso   1.00
S112   S     0.00439   0.35338   0.27982   0.00000  Uiso   1.00
S113   S     0.24561   0.10338   0.05351   0.00000  Uiso   1.00
S114   S     0.24562   0.39662   0.27982   0.00000  Uiso   1.00
S115   S     0.25439   0.39662   0.05352   0.00000  Uiso   1.00
S116   S     0.25439   0.10338   0.27982   0.00000  Uiso   1.00
Zn117  Zn    0.00000   0.25000   0.21771   0.00000  Uiso   1.00
Zn118  Zn    0.00000   0.25000   0.11563   0.00000  Uiso   1.00
Zn119  Zn    0.25000   0.00000   0.21771   0.00000  Uiso   1.00
Zn120  Zn    0.25000   0.00000   0.11563   0.00000  Uiso   1.00
C121   C     0.56234   0.19345   0.16686   0.00000  Uiso   1.00
C122   C     0.99966   0.20582   0.30895   0.00000  Uiso   1.00
C123   C     0.50034   0.20582   0.02438   0.00000  Uiso   1.00
C124   C     0.50034   0.29418   0.30895   0.00000  Uiso   1.00
C125   C     0.74966   0.04418   0.02438   0.00000  Uiso   1.00
C126   C     0.74966   0.45582   0.30895   0.00000  Uiso   1.00
C127   C     0.75034   0.45582   0.02438   0.00000  Uiso   1.00
C128   C     0.75034   0.04418   0.30895   0.00000  Uiso   1.00
C129   C     0.88725   0.14542   0.12430   0.00000  Uiso   1.00
C130   C     0.61412   0.35358   0.20611   0.00000  Uiso   1.00
C131   C     0.61274   0.35459   0.12430   0.00000  Uiso   1.00
C132   C     0.93766   0.30655   0.16686   0.00000  Uiso   1.00
C133   C     0.88588   0.14642   0.20611   0.00000  Uiso   1.00
C134   C     0.61274   0.14541   0.20903   0.00000  Uiso   1.00
C135   C     0.88587   0.35358   0.12722   0.00000  Uiso   1.00
C136   C     0.88726   0.35459   0.20903   0.00000  Uiso   1.00
C137   C     0.61412   0.14641   0.12722   0.00000  Uiso   1.00
C138   C     0.63725   0.39541   0.12430   0.00000  Uiso   1.00
C139   C     0.86412   0.10358   0.20611   0.00000  Uiso   1.00
C140   C     0.86274   0.10459   0.12430   0.00000  Uiso   1.00
C141   C     0.63588   0.39641   0.20611   0.00000  Uiso   1.00
C142   C     0.86275   0.39541   0.20903   0.00000  Uiso   1.00
C143   C     0.93766   0.19345   0.16647   0.00000  Uiso   1.00
C144   C     0.63587   0.10358   0.12722   0.00000  Uiso   1.00
C145   C     0.63725   0.10459   0.20903   0.00000  Uiso   1.00
C146   C     0.86412   0.39642   0.12722   0.00000  Uiso   1.00
C147   C     0.59842   0.33621   0.16553   0.00000  Uiso   1.00
C148   C     0.90158   0.16379   0.16553   0.00000  Uiso   1.00
C149   C     0.90158   0.33621   0.16780   0.00000  Uiso   1.00
C150   C     0.59842   0.16379   0.16780   0.00000  Uiso   1.00
C151   C     0.84842   0.08621   0.16553   0.00000  Uiso   1.00
C152   C     0.65158   0.41379   0.16553   0.00000  Uiso   1.00
C153   C     0.65158   0.08621   0.16780   0.00000  Uiso   1.00
C154   C     0.56234   0.30655   0.16647   0.00000  Uiso   1.00
C155   C     0.84842   0.41379   0.16780   0.00000  Uiso   1.00
C156   C     0.81234   0.44345   0.16686   0.00000  Uiso   1.00
C157   C     0.68766   0.05655   0.16686   0.00000  Uiso   1.00
C158   C     0.68766   0.44345   0.16647   0.00000  Uiso   1.00
C159   C     0.81234   0.05655   0.16647   0.00000  Uiso   1.00
C160   C     0.99966   0.29418   0.02438   0.00000  Uiso   1.00
Cl161  Cl    0.89524   0.17550   0.07226   0.00000  Uiso   1.00
Cl162  Cl    0.86351   0.06823   0.25575   0.00000  Uiso   1.00
Cl163  Cl    0.85475   0.07452   0.07226   0.00000  Uiso   1.00
Cl164  Cl    0.63649   0.43176   0.25576   0.00000  Uiso   1.00
Cl165  Cl    0.85476   0.42550   0.26107   0.00000  Uiso   1.00
Cl166  Cl    0.63648   0.06823   0.07758   0.00000  Uiso   1.00
Cl167  Cl    0.64524   0.07451   0.26107   0.00000  Uiso   1.00
Cl168  Cl    0.86351   0.43177   0.07758   0.00000  Uiso   1.00
Cl169  Cl    0.61351   0.31823   0.25575   0.00000  Uiso   1.00
Cl170  Cl    0.60475   0.32451   0.07226   0.00000  Uiso   1.00
Cl171  Cl    0.88649   0.18176   0.25576   0.00000  Uiso   1.00
Cl172  Cl    0.60476   0.17549   0.26107   0.00000  Uiso   1.00
Cl173  Cl    0.88649   0.31823   0.07758   0.00000  Uiso   1.00
Cl174  Cl    0.89524   0.32451   0.26107   0.00000  Uiso   1.00
Cl175  Cl    0.61351   0.18176   0.07758   0.00000  Uiso   1.00
Cl176  Cl    0.64525   0.42549   0.07226   0.00000  Uiso   1.00
H177   H     0.99329   0.39391   0.11550   0.00000  Uiso   1.00
H178   H     0.99339   0.10606   0.21785   0.00000  Uiso   1.00
H179   H     0.50666   0.10607   0.11549   0.00000  Uiso   1.00
H180   H     0.50664   0.39394   0.21784   0.00000  Uiso   1.00
H181   H     0.74320   0.14387   0.11551   0.00000  Uiso   1.00
H182   H     0.74341   0.35605   0.21785   0.00000  Uiso   1.00
H183   H     0.75666   0.35608   0.11549   0.00000  Uiso   1.00
H184   H     0.75665   0.14393   0.21784   0.00000  Uiso   1.00
N185   N     0.50000   0.25000   0.28573   0.00000  Uiso   1.00
N186   N     0.50000   0.25000   0.04760   0.00000  Uiso   1.00
N187   N     0.75000   0.00000   0.28573   0.00000  Uiso   1.00
N188   N     0.75000   0.00000   0.04760   0.00000  Uiso   1.00
O189   O     0.54580   0.20419   0.20487   0.00000  Uiso   1.00
O190   O     0.70419   0.04581   0.12846   0.00000  Uiso   1.00
O191   O     0.70419   0.04581   0.20487   0.00000  Uiso   1.00
O192   O     0.79580   0.45419   0.12846   0.00000  Uiso   1.00
O193   O     0.70419   0.45419   0.12846   0.00000  Uiso   1.00
O194   O     0.79580   0.04581   0.20487   0.00000  Uiso   1.00
O195   O     0.79580   0.04581   0.12846   0.00000  Uiso   1.00
O196   O     0.70419   0.45419   0.20487   0.00000  Uiso   1.00
O197   O     0.52678   0.38814   0.03592   0.00000  Uiso   1.00
O198   O     0.95452   0.37369   0.04326   0.00000  Uiso   1.00
O199   O     0.50051   0.35953   0.10886   0.00000  Uiso   1.00
O200   O     0.95419   0.29581   0.12846   0.00000  Uiso   1.00
O201   O     0.52679   0.11186   0.29741   0.00000  Uiso   1.00
O202   O     0.95453   0.12630   0.29007   0.00000  Uiso   1.00
O203   O     0.50051   0.14047   0.22447   0.00000  Uiso   1.00
O204   O     0.97321   0.11186   0.03592   0.00000  Uiso   1.00
O205   O     0.54547   0.12630   0.04326   0.00000  Uiso   1.00
O206   O     0.99949   0.14047   0.10887   0.00000  Uiso   1.00
O207   O     0.97321   0.38814   0.29741   0.00000  Uiso   1.00
O208   O     0.54547   0.37370   0.29007   0.00000  Uiso   1.00
O209   O     0.99949   0.35953   0.22447   0.00000  Uiso   1.00
O210   O     0.77677   0.13815   0.03592   0.00000  Uiso   1.00
O211   O     0.95419   0.29581   0.20487   0.00000  Uiso   1.00
O212   O     0.70451   0.12369   0.04326   0.00000  Uiso   1.00
O213   O     0.75051   0.10953   0.10886   0.00000  Uiso   1.00
O214   O     0.77679   0.36187   0.29741   0.00000  Uiso   1.00
O215   O     0.70453   0.37630   0.29007   0.00000  Uiso   1.00
O216   O     0.75051   0.39047   0.22447   0.00000  Uiso   1.00
O217   O     0.72321   0.36186   0.03592   0.00000  Uiso   1.00
O218   O     0.79548   0.37630   0.04327   0.00000  Uiso   1.00
O219   O     0.74949   0.39047   0.10887   0.00000  Uiso   1.00
O220   O     0.72321   0.13814   0.29741   0.00000  Uiso   1.00
O221   O     0.79547   0.12370   0.29007   0.00000  Uiso   1.00
O222   O     0.54580   0.20419   0.12846   0.00000  Uiso   1.00
O223   O     0.74949   0.10953   0.22447   0.00000  Uiso   1.00
O224   O     0.95419   0.20419   0.12846   0.00000  Uiso   1.00
O225   O     0.54580   0.29581   0.20487   0.00000  Uiso   1.00
O226   O     0.54580   0.29581   0.12846   0.00000  Uiso   1.00
O227   O     0.95419   0.20419   0.20487   0.00000  Uiso   1.00
O228   O     0.79580   0.45419   0.20487   0.00000  Uiso   1.00
S229   S     0.99561   0.35338   0.05351   0.00000  Uiso   1.00
S230   S     0.99561   0.14662   0.27982   0.00000  Uiso   1.00
S231   S     0.50439   0.14662   0.05352   0.00000  Uiso   1.00
S232   S     0.50439   0.35338   0.27982   0.00000  Uiso   1.00
S233   S     0.74561   0.10338   0.05351   0.00000  Uiso   1.00
S234   S     0.74562   0.39662   0.27982   0.00000  Uiso   1.00
S235   S     0.75439   0.39662   0.05352   0.00000  Uiso   1.00
S236   S     0.75439   0.10338   0.27982   0.00000  Uiso   1.00
Zn237  Zn    0.50000   0.25000   0.21771   0.00000  Uiso   1.00
Zn238  Zn    0.50000   0.25000   0.11563   0.00000  Uiso   1.00
Zn239  Zn    0.75000   0.00000   0.21771   0.00000  Uiso   1.00
Zn240  Zn    0.75000   0.00000   0.11563   0.00000  Uiso   1.00
C241   C     0.06234   0.69345   0.16686   0.00000  Uiso   1.00
C242   C     0.49966   0.70582   0.30895   0.00000  Uiso   1.00
C243   C     0.00034   0.70582   0.02438   0.00000  Uiso   1.00
C244   C     0.00034   0.79418   0.30895   0.00000  Uiso   1.00
C245   C     0.24966   0.54418   0.02438   0.00000  Uiso   1.00
C246   C     0.24966   0.95582   0.30895   0.00000  Uiso   1.00
C247   C     0.25034   0.95582   0.02438   0.00000  Uiso   1.00
C248   C     0.25034   0.54418   0.30895   0.00000  Uiso   1.00
C249   C     0.38725   0.64542   0.12430   0.00000  Uiso   1.00
C250   C     0.11412   0.85358   0.20611   0.00000  Uiso   1.00
C251   C     0.11274   0.85459   0.12430   0.00000  Uiso   1.00
C252   C     0.43766   0.80655   0.16686   0.00000  Uiso   1.00
C253   C     0.38588   0.64642   0.20611   0.00000  Uiso   1.00
C254   C     0.11274   0.64541   0.20903   0.00000  Uiso   1.00
C255   C     0.38587   0.85358   0.12722   0.00000  Uiso   1.00
C256   C     0.38726   0.85459   0.20903   0.00000  Uiso   1.00
C257   C     0.11412   0.64641   0.12722   0.00000  Uiso   1.00
C258   C     0.13725   0.89541   0.12430   0.00000  Uiso   1.00
C259   C     0.36412   0.60358   0.20611   0.00000  Uiso   1.00
C260   C     0.36274   0.60459   0.12430   0.00000  Uiso   1.00
C261   C     0.13588   0.89641   0.20611   0.00000  Uiso   1.00
C262   C     0.36275   0.89541   0.20903   0.00000  Uiso   1.00
C263   C     0.43766   0.69345   0.16647   0.00000  Uiso   1.00
C264   C     0.13587   0.60358   0.12722   0.00000  Uiso   1.00
C265   C     0.13725   0.60459   0.20903   0.00000  Uiso   1.00
C266   C     0.36412   0.89642   0.12722   0.00000  Uiso   1.00
C267   C     0.09842   0.83621   0.16553   0.00000  Uiso   1.00
C268   C     0.40158   0.66379   0.16553   0.00000  Uiso   1.00
C269   C     0.40158   0.83621   0.16780   0.00000  Uiso   1.00
C270   C     0.09842   0.66379   0.16780   0.00000  Uiso   1.00
C271   C     0.34842   0.58621   0.16553   0.00000  Uiso   1.00
C272   C     0.15158   0.91379   0.16553   0.00000  Uiso   1.00
C273   C     0.15158   0.58621   0.16780   0.00000  Uiso   1.00
C274   C     0.06234   0.80655   0.16647   0.00000  Uiso   1.00
C275   C     0.34842   0.91379   0.16780   0.00000  Uiso   1.00
C276   C     0.31234   0.94345   0.16686   0.00000  Uiso   1.00
C277   C     0.18766   0.55655   0.16686   0.00000  Uiso   1.00
C278   C     0.18766   0.94345   0.16647   0.00000  Uiso   1.00
C279   C     0.31234   0.55655   0.16647   0.00000  Uiso   1.00
C280   C     0.49966   0.79418   0.02438   0.00000  Uiso   1.00
Cl281  Cl    0.39524   0.67550   0.07226   0.00000  Uiso   1.00
Cl282  Cl    0.36351   0.56823   0.25575   0.00000  Uiso   1.00
Cl283  Cl    0.35475   0.57452   0.07226   0.00000  Uiso   1.00
Cl284  Cl    0.13649   0.93176   0.25576   0.00000  Uiso   1.00
Cl285  Cl    0.35476   0.92550   0.26107   0.00000  Uiso   1.00
Cl286  Cl    0.13648   0.56823   0.07758   0.00000  Uiso   1.00
Cl287  Cl    0.14524   0.57451   0.26107   0.00000  Uiso   1.00
Cl288  Cl    0.36351   0.93177   0.07758   0.00000  Uiso   1.00
Cl289  Cl    0.11351   0.81823   0.25575   0.00000  Uiso   1.00
Cl290  Cl    0.10475   0.82451   0.07226   0.00000  Uiso   1.00
Cl291  Cl    0.38649   0.68176   0.25576   0.00000  Uiso   1.00
Cl292  Cl    0.10476   0.67549   0.26107   0.00000  Uiso   1.00
Cl293  Cl    0.38649   0.81823   0.07758   0.00000  Uiso   1.00
Cl294  Cl    0.39524   0.82451   0.26107   0.00000  Uiso   1.00
Cl295  Cl    0.11351   0.68176   0.07758   0.00000  Uiso   1.00
Cl296  Cl    0.14525   0.92549   0.07226   0.00000  Uiso   1.00
H297   H     0.49329   0.89391   0.11550   0.00000  Uiso   1.00
H298   H     0.49339   0.60606   0.21785   0.00000  Uiso   1.00
H299   H     0.00666   0.60607   0.11549   0.00000  Uiso   1.00
H300   H     0.00664   0.89394   0.21784   0.00000  Uiso   1.00
H301   H     0.24320   0.64387   0.11551   0.00000  Uiso   1.00
H302   H     0.24341   0.85605   0.21785   0.00000  Uiso   1.00
H303   H     0.25666   0.85608   0.11549   0.00000  Uiso   1.00
H304   H     0.25665   0.64393   0.21784   0.00000  Uiso   1.00
N305   N     0.00000   0.75000   0.28573   0.00000  Uiso   1.00
N306   N     0.00000   0.75000   0.04760   0.00000  Uiso   1.00
N307   N     0.25000   0.50000   0.28573   0.00000  Uiso   1.00
N308   N     0.25000   0.50000   0.04760   0.00000  Uiso   1.00
O309   O     0.04580   0.70419   0.20487   0.00000  Uiso   1.00
O310   O     0.20419   0.54581   0.12846   0.00000  Uiso   1.00
O311   O     0.20419   0.54581   0.20487   0.00000  Uiso   1.00
O312   O     0.29580   0.95419   0.12846   0.00000  Uiso   1.00
O313   O     0.20419   0.95419   0.12846   0.00000  Uiso   1.00
O314   O     0.29580   0.54581   0.20487   0.00000  Uiso   1.00
O315   O     0.29580   0.54581   0.12846   0.00000  Uiso   1.00
O316   O     0.20419   0.95419   0.20487   0.00000  Uiso   1.00
O317   O     0.02678   0.88814   0.03592   0.00000  Uiso   1.00
O318   O     0.45452   0.87369   0.04326   0.00000  Uiso   1.00
O319   O     0.00051   0.85953   0.10886   0.00000  Uiso   1.00
O320   O     0.45419   0.79581   0.12846   0.00000  Uiso   1.00
O321   O     0.02679   0.61186   0.29741   0.00000  Uiso   1.00
O322   O     0.45453   0.62630   0.29007   0.00000  Uiso   1.00
O323   O     0.00051   0.64047   0.22447   0.00000  Uiso   1.00
O324   O     0.47321   0.61186   0.03592   0.00000  Uiso   1.00
O325   O     0.04547   0.62630   0.04326   0.00000  Uiso   1.00
O326   O     0.49949   0.64047   0.10887   0.00000  Uiso   1.00
O327   O     0.47321   0.88814   0.29741   0.00000  Uiso   1.00
O328   O     0.04547   0.87370   0.29007   0.00000  Uiso   1.00
O329   O     0.49949   0.85953   0.22447   0.00000  Uiso   1.00
O330   O     0.27677   0.63815   0.03592   0.00000  Uiso   1.00
O331   O     0.45419   0.79581   0.20487   0.00000  Uiso   1.00
O332   O     0.20451   0.62369   0.04326   0.00000  Uiso   1.00
O333   O     0.25051   0.60953   0.10886   0.00000  Uiso   1.00
O334   O     0.27679   0.86187   0.29741   0.00000  Uiso   1.00
O335   O     0.20453   0.87630   0.29007   0.00000  Uiso   1.00
O336   O     0.25051   0.89047   0.22447   0.00000  Uiso   1.00
O337   O     0.22321   0.86186   0.03592   0.00000  Uiso   1.00
O338   O     0.29548   0.87630   0.04327   0.00000  Uiso   1.00
O339   O     0.24949   0.89047   0.10887   0.00000  Uiso   1.00
O340   O     0.22321   0.63814   0.29741   0.00000  Uiso   1.00
O341   O     0.29547   0.62370   0.29007   0.00000  Uiso   1.00
O342   O     0.04580   0.70419   0.12846   0.00000  Uiso   1.00
O343   O     0.24949   0.60953   0.22447   0.00000  Uiso   1.00
O344   O     0.45419   0.70419   0.12846   0.00000  Uiso   1.00
O345   O     0.04580   0.79581   0.20487   0.00000  Uiso   1.00
O346   O     0.04580   0.79581   0.12846   0.00000  Uiso   1.00
O347   O     0.45419   0.70419   0.20487   0.00000  Uiso   1.00
O348   O     0.29580   0.95419   0.20487   0.00000  Uiso   1.00
S349   S     0.49561   0.85338   0.05351   0.00000  Uiso   1.00
S350   S     0.49561   0.64662   0.27982   0.00000  Uiso   1.00
S351   S     0.00439   0.64662   0.05352   0.00000  Uiso   1.00
S352   S     0.00439   0.85338   0.27982   0.00000  Uiso   1.00
S353   S     0.24561   0.60338   0.05351   0.00000  Uiso   1.00
S354   S     0.24562   0.89662   0.27982   0.00000  Uiso   1.00
S355   S     0.25439   0.89662   0.05352   0.00000  Uiso   1.00
S356   S     0.25439   0.60338   0.27982   0.00000  Uiso   1.00
Zn357  Zn    0.00000   0.75000   0.21771   0.00000  Uiso   1.00
Zn358  Zn    0.00000   0.75000   0.11563   0.00000  Uiso   1.00
Zn359  Zn    0.25000   0.50000   0.21771   0.00000  Uiso   1.00
Zn360  Zn    0.25000   0.50000   0.11563   0.00000  Uiso   1.00
C361   C     0.56234   0.69345   0.16686   0.00000  Uiso   1.00
C362   C     0.99966   0.70582   0.30895   0.00000  Uiso   1.00
C363   C     0.50034   0.70582   0.02438   0.00000  Uiso   1.00
C364   C     0.50034   0.79418   0.30895   0.00000  Uiso   1.00
C365   C     0.74966   0.54418   0.02438   0.00000  Uiso   1.00
C366   C     0.74966   0.95582   0.30895   0.00000  Uiso   1.00
C367   C     0.75034   0.95582   0.02438   0.00000  Uiso   1.00
C368   C     0.75034   0.54418   0.30895   0.00000  Uiso   1.00
C369   C     0.88725   0.64542   0.12430   0.00000  Uiso   1.00
C370   C     0.61412   0.85358   0.20611   0.00000  Uiso   1.00
C371   C     0.61274   0.85459   0.12430   0.00000  Uiso   1.00
C372   C     0.93766   0.80655   0.16686   0.00000  Uiso   1.00
C373   C     0.88588   0.64642   0.20611   0.00000  Uiso   1.00
C374   C     0.61274   0.64541   0.20903   0.00000  Uiso   1.00
C375   C     0.88587   0.85358   0.12722   0.00000  Uiso   1.00
C376   C     0.88726   0.85459   0.20903   0.00000  Uiso   1.00
C377   C     0.61412   0.64641   0.12722   0.00000  Uiso   1.00
C378   C     0.63725   0.89541   0.12430   0.00000  Uiso   1.00
C379   C     0.86412   0.60358   0.20611   0.00000  Uiso   1.00
C380   C     0.86274   0.60459   0.12430   0.00000  Uiso   1.00
C381   C     0.63588   0.89641   0.20611   0.00000  Uiso   1.00
C382   C     0.86275   0.89541   0.20903   0.00000  Uiso   1.00
C383   C     0.93766   0.69345   0.16647   0.00000  Uiso   1.00
C384   C     0.63587   0.60358   0.12722   0.00000  Uiso   1.00
C385   C     0.63725   0.60459   0.20903   0.00000  Uiso   1.00
C386   C     0.86412   0.89642   0.12722   0.00000  Uiso   1.00
C387   C     0.59842   0.83621   0.16553   0.00000  Uiso   1.00
C388   C     0.90158   0.66379   0.16553   0.00000  Uiso   1.00
C389   C     0.90158   0.83621   0.16780   0.00000  Uiso   1.00
C390   C     0.59842   0.66379   0.16780   0.00000  Uiso   1.00
C391   C     0.84842   0.58621   0.16553   0.00000  Uiso   1.00
C392   C     0.65158   0.91379   0.16553   0.00000  Uiso   1.00
C393   C     0.65158   0.58621   0.16780   0.00000  Uiso   1.00
C394   C     0.56234   0.80655   0.16647   0.00000  Uiso   1.00
C395   C     0.84842   0.91379   0.16780   0.00000  Uiso   1.00
C396   C     0.81234   0.94345   0.16686   0.00000  Uiso   1.00
C397   C     0.68766   0.55655   0.16686   0.00000  Uiso   1.00
C398   C     0.68766   0.94345   0.16647   0.00000  Uiso   1.00
C399   C     0.81234   0.55655   0.16647   0.00000  Uiso   1.00
C400   C     0.99966   0.79418   0.02438   0.00000  Uiso   1.00
Cl401  Cl    0.89524   0.67550   0.07226   0.00000  Uiso   1.00
Cl402  Cl    0.86351   0.56823   0.25575   0.00000  Uiso   1.00
Cl403  Cl    0.85475   0.57452   0.07226   0.00000  Uiso   1.00
Cl404  Cl    0.63649   0.93176   0.25576   0.00000  Uiso   1.00
Cl405  Cl    0.85476   0.92550   0.26107   0.00000  Uiso   1.00
Cl406  Cl    0.63648   0.56823   0.07758   0.00000  Uiso   1.00
Cl407  Cl    0.64524   0.57451   0.26107   0.00000  Uiso   1.00
Cl408  Cl    0.86351   0.93177   0.07758   0.00000  Uiso   1.00
Cl409  Cl    0.61351   0.81823   0.25575   0.00000  Uiso   1.00
Cl410  Cl    0.60475   0.82451   0.07226   0.00000  Uiso   1.00
Cl411  Cl    0.88649   0.68176   0.25576   0.00000  Uiso   1.00
Cl412  Cl    0.60476   0.67549   0.26107   0.00000  Uiso   1.00
Cl413  Cl    0.88649   0.81823   0.07758   0.00000  Uiso   1.00
Cl414  Cl    0.89524   0.82451   0.26107   0.00000  Uiso   1.00
Cl415  Cl    0.61351   0.68176   0.07758   0.00000  Uiso   1.00
Cl416  Cl    0.64525   0.92549   0.07226   0.00000  Uiso   1.00
H417   H     0.99329   0.89391   0.11550   0.00000  Uiso   1.00
H418   H     0.99339   0.60606   0.21785   0.00000  Uiso   1.00
H419   H     0.50666   0.60607   0.11549   0.00000  Uiso   1.00
H420   H     0.50664   0.89394   0.21784   0.00000  Uiso   1.00
H421   H     0.74320   0.64387   0.11551   0.00000  Uiso   1.00
H422   H     0.74341   0.85605   0.21785   0.00000  Uiso   1.00
H423   H     0.75666   0.85608   0.11549   0.00000  Uiso   1.00
H424   H     0.75665   0.64393   0.21784   0.00000  Uiso   1.00
N425   N     0.50000   0.75000   0.28573   0.00000  Uiso   1.00
N426   N     0.50000   0.75000   0.04760   0.00000  Uiso   1.00
N427   N     0.75000   0.50000   0.28573   0.00000  Uiso   1.00
N428   N     0.75000   0.50000   0.04760   0.00000  Uiso   1.00
O429   O     0.54580   0.70419   0.20487   0.00000  Uiso   1.00
O430   O     0.70419   0.54581   0.12846   0.00000  Uiso   1.00
O431   O     0.70419   0.54581   0.20487   0.00000  Uiso   1.00
O432   O     0.79580   0.95419   0.12846   0.00000  Uiso   1.00
O433   O     0.70419   0.95419   0.12846   0.00000  Uiso   1.00
O434   O     0.79580   0.54581   0.20487   0.00000  Uiso   1.00
O435   O     0.79580   0.54581   0.12846   0.00000  Uiso   1.00
O436   O     0.70419   0.95419   0.20487   0.00000  Uiso   1.00
O437   O     0.52678   0.88814   0.03592   0.00000  Uiso   1.00
O438   O     0.95452   0.87369   0.04326   0.00000  Uiso   1.00
O439   O     0.50051   0.85953   0.10886   0.00000  Uiso   1.00
O440   O     0.95419   0.79581   0.12846   0.00000  Uiso   1.00
O441   O     0.52679   0.61186   0.29741   0.00000  Uiso   1.00
O442   O     0.95453   0.62630   0.29007   0.00000  Uiso   1.00
O443   O     0.50051   0.64047   0.22447   0.00000  Uiso   1.00
O444   O     0.97321   0.61186   0.03592   0.00000  Uiso   1.00
O445   O     0.54547   0.62630   0.04326   0.00000  Uiso   1.00
O446   O     0.99949   0.64047   0.10887   0.00000  Uiso   1.00
O447   O     0.97321   0.88814   0.29741   0.00000  Uiso   1.00
O448   O     0.54547   0.87370   0.29007   0.00000  Uiso   1.00
O449   O     0.99949   0.85953   0.22447   0.00000  Uiso   1.00
O450   O     0.77677   0.63815   0.03592   0.00000  Uiso   1.00
O451   O     0.95419   0.79581   0.20487   0.00000  Uiso   1.00
O452   O     0.70451   0.62369   0.04326   0.00000  Uiso   1.00
O453   O     0.75051   0.60953   0.10886   0.00000  Uiso   1.00
O454   O     0.77679   0.86187   0.29741   0.00000  Uiso   1.00
O455   O     0.70453   0.87630   0.29007   0.00000  Uiso   1.00
O456   O     0.75051   0.89047   0.22447   0.00000  Uiso   1.00
O457   O     0.72321   0.86186   0.03592   0.00000  Uiso   1.00
O458   O     0.79548   0.87630   0.04327   0.00000  Uiso   1.00
O459   O     0.74949   0.89047   0.10887   0.00000  Uiso   1.00
O460   O     0.72321   0.63814   0.29741   0.00000  Uiso   1.00
O461   O     0.79547   0.62370   0.29007   0.00000  Uiso   1.00
O462   O     0.54580   0.70419   0.12846   0.00000  Uiso   1.00
O463   O     0.74949   0.60953   0.22447   0.00000  Uiso   1.00
O464   O     0.95419   0.70419   0.12846   0.00000  Uiso   1.00
O465   O     0.54580   0.79581   0.20487   0.00000  Uiso   1.00
O466   O     0.54580   0.79581   0.12846   0.00000  Uiso   1.00
O467   O     0.95419   0.70419   0.20487   0.00000  Uiso   1.00
O468   O     0.79580   0.95419   0.20487   0.00000  Uiso   1.00
S469   S     0.99561   0.85338   0.05351   0.00000  Uiso   1.00
S470   S     0.99561   0.64662   0.27982   0.00000  Uiso   1.00
S471   S     0.50439   0.64662   0.05352   0.00000  Uiso   1.00
S472   S     0.50439   0.85338   0.27982   0.00000  Uiso   1.00
S473   S     0.74561   0.60338   0.05351   0.00000  Uiso   1.00
S474   S     0.74562   0.89662   0.27982   0.00000  Uiso   1.00
S475   S     0.75439   0.89662   0.05352   0.00000  Uiso   1.00
S476   S     0.75439   0.60338   0.27982   0.00000  Uiso   1.00
Zn477  Zn    0.50000   0.75000   0.21771   0.00000  Uiso   1.00
Zn478  Zn    0.50000   0.75000   0.11563   0.00000  Uiso   1.00
Zn479  Zn    0.75000   0.50000   0.21771   0.00000  Uiso   1.00
Zn480  Zn    0.75000   0.50000   0.11563   0.00000  Uiso   1.00
C481   C     0.06234   0.19345   0.50020   0.00000  Uiso   1.00
C482   C     0.49966   0.20582   0.64229   0.00000  Uiso   1.00
C483   C     0.00034   0.20582   0.35772   0.00000  Uiso   1.00
C484   C     0.00034   0.29418   0.64228   0.00000  Uiso   1.00
C485   C     0.24966   0.04418   0.35771   0.00000  Uiso   1.00
C486   C     0.24966   0.45582   0.64229   0.00000  Uiso   1.00
C487   C     0.25034   0.45582   0.35772   0.00000  Uiso   1.00
C488   C     0.25034   0.04418   0.64228   0.00000  Uiso   1.00
C489   C     0.38725   0.14542   0.45764   0.00000  Uiso   1.00
C490   C     0.11412   0.35358   0.53944   0.00000  Uiso   1.00
C491   C     0.11274   0.35459   0.45764   0.00000  Uiso   1.00
C492   C     0.43766   0.30655   0.50020   0.00000  Uiso   1.00
C493   C     0.38588   0.14642   0.53944   0.00000  Uiso   1.00
C494   C     0.11274   0.14541   0.54236   0.00000  Uiso   1.00
C495   C     0.38587   0.35358   0.46056   0.00000  Uiso   1.00
C496   C     0.38726   0.35459   0.54236   0.00000  Uiso   1.00
C497   C     0.11412   0.14641   0.46056   0.00000  Uiso   1.00
C498   C     0.13725   0.39541   0.45764   0.00000  Uiso   1.00
C499   C     0.36412   0.10358   0.53944   0.00000  Uiso   1.00
C500   C     0.36274   0.10459   0.45764   0.00000  Uiso   1.00
C501   C     0.13588   0.39641   0.53944   0.00000  Uiso   1.00
C502   C     0.36275   0.39541   0.54236   0.00000  Uiso   1.00
C503   C     0.43766   0.19345   0.49980   0.00000  Uiso   1.00
C504   C     0.13587   0.10358   0.46056   0.00000  Uiso   1.00
C505   C     0.13725   0.10459   0.54236   0.00000  Uiso   1.00
C506   C     0.36412   0.39642   0.46056   0.00000  Uiso   1.00
C507   C     0.09842   0.33621   0.49886   0.00000  Uiso   1.00
C508   C     0.40158   0.16379   0.49886   0.00000  Uiso   1.00
C509   C     0.40158   0.33621   0.50114   0.00000  Uiso   1.00
C510   C     0.09842   0.16379   0.50114   0.00000  Uiso   1.00
C511   C     0.34842   0.08621   0.49886   0.00000  Uiso   1.00
C512   C     0.15158   0.41379   0.49886   0.00000  Uiso   1.00
C513   C     0.15158   0.08621   0.50114   0.00000  Uiso   1.00
C514   C     0.06234   0.30655   0.49980   0.00000  Uiso   1.00
C515   C     0.34842   0.41379   0.50114   0.00000  Uiso   1.00
C516   C     0.31234   0.44345   0.50020   0.00000  Uiso   1.00
C517   C     0.18766   0.05655   0.50020   0.00000  Uiso   1.00
C518   C     0.18766   0.44345   0.49980   0.00000  Uiso   1.00
C519   C     0.31234   0.05655   0.49980   0.00000  Uiso   1.00
C520   C     0.49966   0.29418   0.35771   0.00000  Uiso   1.00
Cl521  Cl    0.39524   0.17550   0.40560   0.00000  Uiso   1.00
Cl522  Cl    0.36351   0.06823   0.58909   0.00000  Uiso   1.00
Cl523  Cl    0.35475   0.07452   0.40559   0.00000  Uiso   1.00
Cl524  Cl    0.13649   0.43176   0.58909   0.00000  Uiso   1.00
Cl525  Cl    0.35476   0.42550   0.59440   0.00000  Uiso   1.00
Cl526  Cl    0.13648   0.06823   0.41092   0.00000  Uiso   1.00
Cl527  Cl    0.14524   0.07451   0.59441   0.00000  Uiso   1.00
Cl528  Cl    0.36351   0.43177   0.41091   0.00000  Uiso   1.00
Cl529  Cl    0.11351   0.31823   0.58909   0.00000  Uiso   1.00
Cl530  Cl    0.10475   0.32451   0.40560   0.00000  Uiso   1.00
Cl531  Cl    0.38649   0.18176   0.58909   0.00000  Uiso   1.00
Cl532  Cl    0.10476   0.17549   0.59440   0.00000  Uiso   1.00
Cl533  Cl    0.38649   0.31823   0.41091   0.00000  Uiso   1.00
Cl534  Cl    0.39524   0.32451   0.59441   0.00000  Uiso   1.00
Cl535  Cl    0.11351   0.18176   0.41091   0.00000  Uiso   1.00
Cl536  Cl    0.14525   0.42549   0.40560   0.00000  Uiso   1.00
H537   H     0.49329   0.39391   0.44883   0.00000  Uiso   1.00
H538   H     0.49339   0.10606   0.55118   0.00000  Uiso   1.00
H539   H     0.00666   0.10607   0.44883   0.00000  Uiso   1.00
H540   H     0.00664   0.39394   0.55118   0.00000  Uiso   1.00
H541   H     0.24320   0.14387   0.44885   0.00000  Uiso   1.00
H542   H     0.24341   0.35605   0.55118   0.00000  Uiso   1.00
H543   H     0.25666   0.35608   0.44883   0.00000  Uiso   1.00
H544   H     0.25665   0.14393   0.55117   0.00000  Uiso   1.00
N545   N     0.00000   0.25000   0.61907   0.00000  Uiso   1.00
N546   N     0.00000   0.25000   0.38093   0.00000  Uiso   1.00
N547   N     0.25000   0.00000   0.61907   0.00000  Uiso   1.00
N548   N     0.25000   0.00000   0.38093   0.00000  Uiso   1.00
O549   O     0.04580   0.20419   0.53821   0.00000  Uiso   1.00
O550   O     0.20419   0.04581   0.46179   0.00000  Uiso   1.00
O551   O     0.20419   0.04581   0.53821   0.00000  Uiso   1.00
O552   O     0.29580   0.45419   0.46179   0.00000  Uiso   1.00
O553   O     0.20419   0.45419   0.46179   0.00000  Uiso   1.00
O554   O     0.29580   0.04581   0.53821   0.00000  Uiso   1.00
O555   O     0.29580   0.04581   0.46179   0.00000  Uiso   1.00
O556   O     0.20419   0.45419   0.53821   0.00000  Uiso   1.00
O557   O     0.02678   0.38814   0.36925   0.00000  Uiso   1.00
O558   O     0.45452   0.37369   0.37660   0.00000  Uiso   1.00
O559   O     0.00051   0.35953   0.44220   0.00000  Uiso   1.00
O560   O     0.45419   0.29581   0.46179   0.00000  Uiso   1.00
O561   O     0.02679   0.11186   0.63074   0.00000  Uiso   1.00
O562   O     0.45453   0.12630   0.62340   0.00000  Uiso   1.00
O563   O     0.00051   0.14047   0.55780   0.00000  Uiso   1.00
O564   O     0.47321   0.11186   0.36926   0.00000  Uiso   1.00
O565   O     0.04547   0.12630   0.37660   0.00000  Uiso   1.00
O566   O     0.49949   0.14047   0.44220   0.00000  Uiso   1.00
O567   O     0.47321   0.38814   0.63074   0.00000  Uiso   1.00
O568   O     0.04547   0.37370   0.62340   0.00000  Uiso   1.00
O569   O     0.49949   0.35953   0.55780   0.00000  Uiso   1.00
O570   O     0.27677   0.13815   0.36925   0.00000  Uiso   1.00
O571   O     0.45419   0.29581   0.53821   0.00000  Uiso   1.00
O572   O     0.20451   0.12369   0.37660   0.00000  Uiso   1.00
O573   O     0.25051   0.10953   0.44220   0.00000  Uiso   1.00
O574   O     0.27679   0.36187   0.63074   0.00000  Uiso   1.00
O575   O     0.20453   0.37630   0.62340   0.00000  Uiso   1.00
O576   O     0.25051   0.39047   0.55780   0.00000  Uiso   1.00
O577   O     0.22321   0.36186   0.36926   0.00000  Uiso   1.00
O578   O     0.29548   0.37630   0.37660   0.00000  Uiso   1.00
O579   O     0.24949   0.39047   0.44220   0.00000  Uiso   1.00
O580   O     0.22321   0.13814   0.63074   0.00000  Uiso   1.00
O581   O     0.29547   0.12370   0.62340   0.00000  Uiso   1.00
O582   O     0.04580   0.20419   0.46179   0.00000  Uiso   1.00
O583   O     0.24949   0.10953   0.55780   0.00000  Uiso   1.00
O584   O     0.45419   0.20419   0.46179   0.00000  Uiso   1.00
O585   O     0.04580   0.29581   0.53821   0.00000  Uiso   1.00
O586   O     0.04580   0.29581   0.46179   0.00000  Uiso   1.00
O587   O     0.45419   0.20419   0.53821   0.00000  Uiso   1.00
O588   O     0.29580   0.45419   0.53821   0.00000  Uiso   1.00
S589   S     0.49561   0.35338   0.38685   0.00000  Uiso   1.00
S590   S     0.49561   0.14662   0.61315   0.00000  Uiso   1.00
S591   S     0.00439   0.14662   0.38685   0.00000  Uiso   1.00
S592   S     0.00439   0.35338   0.61315   0.00000  Uiso   1.00
S593   S     0.24561   0.10338   0.38685   0.00000  Uiso   1.00
S594   S     0.24562   0.39662   0.61315   0.00000  Uiso   1.00
S595   S     0.25439   0.39662   0.38685   0.00000  Uiso   1.00
S596   S     0.25439   0.10338   0.61315   0.00000  Uiso   1.00
Zn597  Zn    0.00000   0.25000   0.55104   0.00000  Uiso   1.00
Zn598  Zn    0.00000   0.25000   0.44896   0.00000  Uiso   1.00
Zn599  Zn    0.25000   0.00000   0.55104   0.00000  Uiso   1.00
Zn600  Zn    0.25000   0.00000   0.44896   0.00000  Uiso   1.00
C601   C     0.56234   0.19345   0.50020   0.00000  Uiso   1.00
C602   C     0.99966   0.20582   0.64229   0.00000  Uiso   1.00
C603   C     0.50034   0.20582   0.35772   0.00000  Uiso   1.00
C604   C     0.50034   0.29418   0.64228   0.00000  Uiso   1.00
C605   C     0.74966   0.04418   0.35771   0.00000  Uiso   1.00
C606   C     0.74966   0.45582   0.64229   0.00000  Uiso   1.00
C607   C     0.75034   0.45582   0.35772   0.00000  Uiso   1.00
C608   C     0.75034   0.04418   0.64228   0.00000  Uiso   1.00
C609   C     0.88725   0.14542   0.45764   0.00000  Uiso   1.00
C610   C     0.61412   0.35358   0.53944   0.00000  Uiso   1.00
C611   C     0.61274   0.35459   0.45764   0.00000  Uiso   1.00
C612   C     0.93766   0.30655   0.50020   0.00000  Uiso   1.00
C613   C     0.88588   0.14642   0.53944   0.00000  Uiso   1.00
C614   C     0.61274   0.14541   0.54236   0.00000  Uiso   1.00
C615   C     0.88587   0.35358   0.46056   0.00000  Uiso   1.00
C616   C     0.88726   0.35459   0.54236   0.00000  Uiso   1.00
C617   C     0.61412   0.14641   0.46056   0.00000  Uiso   1.00
C618   C     0.63725   0.39541   0.45764   0.00000  Uiso   1.00
C619   C     0.86412   0.10358   0.53944   0.00000  Uiso   1.00
C620   C     0.86274   0.10459   0.45764   0.00000  Uiso   1.00
C621   C     0.63588   0.39641   0.53944   0.00000  Uiso   1.00
C622   C     0.86275   0.39541   0.54236   0.00000  Uiso   1.00
C623   C     0.93766   0.19345   0.49980   0.00000  Uiso   1.00
C624   C     0.63587   0.10358   0.46056   0.00000  Uiso   1.00
C625   C     0.63725   0.10459   0.54236   0.00000  Uiso   1.00
C626   C     0.86412   0.39642   0.46056   0.00000  Uiso   1.00
C627   C     0.59842   0.33621   0.49886   0.00000  Uiso   1.00
C628   C     0.90158   0.16379   0.49886   0.00000  Uiso   1.00
C629   C     0.90158   0.33621   0.50114   0.00000  Uiso   1.00
C630   C     0.59842   0.16379   0.50114   0.00000  Uiso   1.00
C631   C     0.84842   0.08621   0.49886   0.00000  Uiso   1.00
C632   C     0.65158   0.41379   0.49886   0.00000  Uiso   1.00
C633   C     0.65158   0.08621   0.50114   0.00000  Uiso   1.00
C634   C     0.56234   0.30655   0.49980   0.00000  Uiso   1.00
C635   C     0.84842   0.41379   0.50114   0.00000  Uiso   1.00
C636   C     0.81234   0.44345   0.50020   0.00000  Uiso   1.00
C637   C     0.68766   0.05655   0.50020   0.00000  Uiso   1.00
C638   C     0.68766   0.44345   0.49980   0.00000  Uiso   1.00
C639   C     0.81234   0.05655   0.49980   0.00000  Uiso   1.00
C640   C     0.99966   0.29418   0.35771   0.00000  Uiso   1.00
Cl641  Cl    0.89524   0.17550   0.40560   0.00000  Uiso   1.00
Cl642  Cl    0.86351   0.06823   0.58909   0.00000  Uiso   1.00
Cl643  Cl    0.85475   0.07452   0.40559   0.00000  Uiso   1.00
Cl644  Cl    0.63649   0.43176   0.58909   0.00000  Uiso   1.00
Cl645  Cl    0.85476   0.42550   0.59440   0.00000  Uiso   1.00
Cl646  Cl    0.63648   0.06823   0.41092   0.00000  Uiso   1.00
Cl647  Cl    0.64524   0.07451   0.59441   0.00000  Uiso   1.00
Cl648  Cl    0.86351   0.43177   0.41091   0.00000  Uiso   1.00
Cl649  Cl    0.61351   0.31823   0.58909   0.00000  Uiso   1.00
Cl650  Cl    0.60475   0.32451   0.40560   0.00000  Uiso   1.00
Cl651  Cl    0.88649   0.18176   0.58909   0.00000  Uiso   1.00
Cl652  Cl    0.60476   0.17549   0.59440   0.00000  Uiso   1.00
Cl653  Cl    0.88649   0.31823   0.41091   0.00000  Uiso   1.00
Cl654  Cl    0.89524   0.32451   0.59441   0.00000  Uiso   1.00
Cl655  Cl    0.61351   0.18176   0.41091   0.00000  Uiso   1.00
Cl656  Cl    0.64525   0.42549   0.40560   0.00000  Uiso   1.00
H657   H     0.99329   0.39391   0.44883   0.00000  Uiso   1.00
H658   H     0.99339   0.10606   0.55118   0.00000  Uiso   1.00
H659   H     0.50666   0.10607   0.44883   0.00000  Uiso   1.00
H660   H     0.50664   0.39394   0.55118   0.00000  Uiso   1.00
H661   H     0.74320   0.14387   0.44885   0.00000  Uiso   1.00
H662   H     0.74341   0.35605   0.55118   0.00000  Uiso   1.00
H663   H     0.75666   0.35608   0.44883   0.00000  Uiso   1.00
H664   H     0.75665   0.14393   0.55117   0.00000  Uiso   1.00
N665   N     0.50000   0.25000   0.61907   0.00000  Uiso   1.00
N666   N     0.50000   0.25000   0.38093   0.00000  Uiso   1.00
N667   N     0.75000   0.00000   0.61907   0.00000  Uiso   1.00
N668   N     0.75000   0.00000   0.38093   0.00000  Uiso   1.00
O669   O     0.54580   0.20419   0.53821   0.00000  Uiso   1.00
O670   O     0.70419   0.04581   0.46179   0.00000  Uiso   1.00
O671   O     0.70419   0.04581   0.53821   0.00000  Uiso   1.00
O672   O     0.79580   0.45419   0.46179   0.00000  Uiso   1.00
O673   O     0.70419   0.45419   0.46179   0.00000  Uiso   1.00
O674   O     0.79580   0.04581   0.53821   0.00000  Uiso   1.00
O675   O     0.79580   0.04581   0.46179   0.00000  Uiso   1.00
O676   O     0.70419   0.45419   0.53821   0.00000  Uiso   1.00
O677   O     0.52678   0.38814   0.36925   0.00000  Uiso   1.00
O678   O     0.95452   0.37369   0.37660   0.00000  Uiso   1.00
O679   O     0.50051   0.35953   0.44220   0.00000  Uiso   1.00
O680   O     0.95419   0.29581   0.46179   0.00000  Uiso   1.00
O681   O     0.52679   0.11186   0.63074   0.00000  Uiso   1.00
O682   O     0.95453   0.12630   0.62340   0.00000  Uiso   1.00
O683   O     0.50051   0.14047   0.55780   0.00000  Uiso   1.00
O684   O     0.97321   0.11186   0.36926   0.00000  Uiso   1.00
O685   O     0.54547   0.12630   0.37660   0.00000  Uiso   1.00
O686   O     0.99949   0.14047   0.44220   0.00000  Uiso   1.00
O687   O     0.97321   0.38814   0.63074   0.00000  Uiso   1.00
O688   O     0.54547   0.37370   0.62340   0.00000  Uiso   1.00
O689   O     0.99949   0.35953   0.55780   0.00000  Uiso   1.00
O690   O     0.77677   0.13815   0.36925   0.00000  Uiso   1.00
O691   O     0.95419   0.29581   0.53821   0.00000  Uiso   1.00
O692   O     0.70451   0.12369   0.37660   0.00000  Uiso   1.00
O693   O     0.75051   0.10953   0.44220   0.00000  Uiso   1.00
O694   O     0.77679   0.36187   0.63074   0.00000  Uiso   1.00
O695   O     0.70453   0.37630   0.62340   0.00000  Uiso   1.00
O696   O     0.75051   0.39047   0.55780   0.00000  Uiso   1.00
O697   O     0.72321   0.36186   0.36926   0.00000  Uiso   1.00
O698   O     0.79548   0.37630   0.37660   0.00000  Uiso   1.00
O699   O     0.74949   0.39047   0.44220   0.00000  Uiso   1.00
O700   O     0.72321   0.13814   0.63074   0.00000  Uiso   1.00
O701   O     0.79547   0.12370   0.62340   0.00000  Uiso   1.00
O702   O     0.54580   0.20419   0.46179   0.00000  Uiso   1.00
O703   O     0.74949   0.10953   0.55780   0.00000  Uiso   1.00
O704   O     0.95419   0.20419   0.46179   0.00000  Uiso   1.00
O705   O     0.54580   0.29581   0.53821   0.00000  Uiso   1.00
O706   O     0.54580   0.29581   0.46179   0.00000  Uiso   1.00
O707   O     0.95419   0.20419   0.53821   0.00000  Uiso   1.00
O708   O     0.79580   0.45419   0.53821   0.00000  Uiso   1.00
S709   S     0.99561   0.35338   0.38685   0.00000  Uiso   1.00
S710   S     0.99561   0.14662   0.61315   0.00000  Uiso   1.00
S711   S     0.50439   0.14662   0.38685   0.00000  Uiso   1.00
S712   S     0.50439   0.35338   0.61315   0.00000  Uiso   1.00
S713   S     0.74561   0.10338   0.38685   0.00000  Uiso   1.00
S714   S     0.74562   0.39662   0.61315   0.00000  Uiso   1.00
S715   S     0.75439   0.39662   0.38685   0.00000  Uiso   1.00
S716   S     0.75439   0.10338   0.61315   0.00000  Uiso   1.00
Zn717  Zn    0.50000   0.25000   0.55104   0.00000  Uiso   1.00
Zn718  Zn    0.50000   0.25000   0.44896   0.00000  Uiso   1.00
Zn719  Zn    0.75000   0.00000   0.55104   0.00000  Uiso   1.00
Zn720  Zn    0.75000   0.00000   0.44896   0.00000  Uiso   1.00
C721   C     0.06234   0.69345   0.50020   0.00000  Uiso   1.00
C722   C     0.49966   0.70582   0.64229   0.00000  Uiso   1.00
C723   C     0.00034   0.70582   0.35772   0.00000  Uiso   1.00
C724   C     0.00034   0.79418   0.64228   0.00000  Uiso   1.00
C725   C     0.24966   0.54418   0.35771   0.00000  Uiso   1.00
C726   C     0.24966   0.95582   0.64229   0.00000  Uiso   1.00
C727   C     0.25034   0.95582   0.35772   0.00000  Uiso   1.00
C728   C     0.25034   0.54418   0.64228   0.00000  Uiso   1.00
C729   C     0.38725   0.64542   0.45764   0.00000  Uiso   1.00
C730   C     0.11412   0.85358   0.53944   0.00000  Uiso   1.00
C731   C     0.11274   0.85459   0.45764   0.00000  Uiso   1.00
C732   C     0.43766   0.80655   0.50020   0.00000  Uiso   1.00
C733   C     0.38588   0.64642   0.53944   0.00000  Uiso   1.00
C734   C     0.11274   0.64541   0.54236   0.00000  Uiso   1.00
C735   C     0.38587   0.85358   0.46056   0.00000  Uiso   1.00
C736   C     0.38726   0.85459   0.54236   0.00000  Uiso   1.00
C737   C     0.11412   0.64641   0.46056   0.00000  Uiso   1.00
C738   C     0.13725   0.89541   0.45764   0.00000  Uiso   1.00
C739   C     0.36412   0.60358   0.53944   0.00000  Uiso   1.00
C740   C     0.36274   0.60459   0.45764   0.00000  Uiso   1.00
C741   C     0.13588   0.89641   0.53944   0.00000  Uiso   1.00
C742   C     0.36275   0.89541   0.54236   0.00000  Uiso   1.00
C743   C     0.43766   0.69345   0.49980   0.00000  Uiso   1.00
C744   C     0.13587   0.60358   0.46056   0.00000  Uiso   1.00
C745   C     0.13725   0.60459   0.54236   0.00000  Uiso   1.00
C746   C     0.36412   0.89642   0.46056   0.00000  Uiso   1.00
C747   C     0.09842   0.83621   0.49886   0.00000  Uiso   1.00
C748   C     0.40158   0.66379   0.49886   0.00000  Uiso   1.00
C749   C     0.40158   0.83621   0.50114   0.00000  Uiso   1.00
C750   C     0.09842   0.66379   0.50114   0.00000  Uiso   1.00
C751   C     0.34842   0.58621   0.49886   0.00000  Uiso   1.00
C752   C     0.15158   0.91379   0.49886   0.00000  Uiso   1.00
C753   C     0.15158   0.58621   0.50114   0.00000  Uiso   1.00
C754   C     0.06234   0.80655   0.49980   0.00000  Uiso   1.00
C755   C     0.34842   0.91379   0.50114   0.00000  Uiso   1.00
C756   C     0.31234   0.94345   0.50020   0.00000  Uiso   1.00
C757   C     0.18766   0.55655   0.50020   0.00000  Uiso   1.00
C758   C     0.18766   0.94345   0.49980   0.00000  Uiso   1.00
C759   C     0.31234   0.55655   0.49980   0.00000  Uiso   1.00
C760   C     0.49966   0.79418   0.35771   0.00000  Uiso   1.00
Cl761  Cl    0.39524   0.67550   0.40560   0.00000  Uiso   1.00
Cl762  Cl    0.36351   0.56823   0.58909   0.00000  Uiso   1.00
Cl763  Cl    0.35475   0.57452   0.40559   0.00000  Uiso   1.00
Cl764  Cl    0.13649   0.93176   0.58909   0.00000  Uiso   1.00
Cl765  Cl    0.35476   0.92550   0.59440   0.00000  Uiso   1.00
Cl766  Cl    0.13648   0.56823   0.41092   0.00000  Uiso   1.00
Cl767  Cl    0.14524   0.57451   0.59441   0.00000  Uiso   1.00
Cl768  Cl    0.36351   0.93177   0.41091   0.00000  Uiso   1.00
Cl769  Cl    0.11351   0.81823   0.58909   0.00000  Uiso   1.00
Cl770  Cl    0.10475   0.82451   0.40560   0.00000  Uiso   1.00
Cl771  Cl    0.38649   0.68176   0.58909   0.00000  Uiso   1.00
Cl772  Cl    0.10476   0.67549   0.59440   0.00000  Uiso   1.00
Cl773  Cl    0.38649   0.81823   0.41091   0.00000  Uiso   1.00
Cl774  Cl    0.39524   0.82451   0.59441   0.00000  Uiso   1.00
Cl775  Cl    0.11351   0.68176   0.41091   0.00000  Uiso   1.00
Cl776  Cl    0.14525   0.92549   0.40560   0.00000  Uiso   1.00
H777   H     0.49329   0.89391   0.44883   0.00000  Uiso   1.00
H778   H     0.49339   0.60606   0.55118   0.00000  Uiso   1.00
H779   H     0.00666   0.60607   0.44883   0.00000  Uiso   1.00
H780   H     0.00664   0.89394   0.55118   0.00000  Uiso   1.00
H781   H     0.24320   0.64387   0.44885   0.00000  Uiso   1.00
H782   H     0.24341   0.85605   0.55118   0.00000  Uiso   1.00
H783   H     0.25666   0.85608   0.44883   0.00000  Uiso   1.00
H784   H     0.25665   0.64393   0.55117   0.00000  Uiso   1.00
N785   N     0.00000   0.75000   0.61907   0.00000  Uiso   1.00
N786   N     0.00000   0.75000   0.38093   0.00000  Uiso   1.00
N787   N     0.25000   0.50000   0.61907   0.00000  Uiso   1.00
N788   N     0.25000   0.50000   0.38093   0.00000  Uiso   1.00
O789   O     0.04580   0.70419   0.53821   0.00000  Uiso   1.00
O790   O     0.20419   0.54581   0.46179   0.00000  Uiso   1.00
O791   O     0.20419   0.54581   0.53821   0.00000  Uiso   1.00
O792   O     0.29580   0.95419   0.46179   0.00000  Uiso   1.00
O793   O     0.20419   0.95419   0.46179   0.00000  Uiso   1.00
O794   O     0.29580   0.54581   0.53821   0.00000  Uiso   1.00
O795   O     0.29580   0.54581   0.46179   0.00000  Uiso   1.00
O796   O     0.20419   0.95419   0.53821   0.00000  Uiso   1.00
O797   O     0.02678   0.88814   0.36925   0.00000  Uiso   1.00
O798   O     0.45452   0.87369   0.37660   0.00000  Uiso   1.00
O799   O     0.00051   0.85953   0.44220   0.00000  Uiso   1.00
O800   O     0.45419   0.79581   0.46179   0.00000  Uiso   1.00
O801   O     0.02679   0.61186   0.63074   0.00000  Uiso   1.00
O802   O     0.45453   0.62630   0.62340   0.00000  Uiso   1.00
O803   O     0.00051   0.64047   0.55780   0.00000  Uiso   1.00
O804   O     0.47321   0.61186   0.36926   0.00000  Uiso   1.00
O805   O     0.04547   0.62630   0.37660   0.00000  Uiso   1.00
O806   O     0.49949   0.64047   0.44220   0.00000  Uiso   1.00
O807   O     0.47321   0.88814   0.63074   0.00000  Uiso   1.00
O808   O     0.04547   0.87370   0.62340   0.00000  Uiso   1.00
O809   O     0.49949   0.85953   0.55780   0.00000  Uiso   1.00
O810   O     0.27677   0.63815   0.36925   0.00000  Uiso   1.00
O811   O     0.45419   0.79581   0.53821   0.00000  Uiso   1.00
O812   O     0.20451   0.62369   0.37660   0.00000  Uiso   1.00
O813   O     0.25051   0.60953   0.44220   0.00000  Uiso   1.00
O814   O     0.27679   0.86187   0.63074   0.00000  Uiso   1.00
O815   O     0.20453   0.87630   0.62340   0.00000  Uiso   1.00
O816   O     0.25051   0.89047   0.55780   0.00000  Uiso   1.00
O817   O     0.22321   0.86186   0.36926   0.00000  Uiso   1.00
O818   O     0.29548   0.87630   0.37660   0.00000  Uiso   1.00
O819   O     0.24949   0.89047   0.44220   0.00000  Uiso   1.00
O820   O     0.22321   0.63814   0.63074   0.00000  Uiso   1.00
O821   O     0.29547   0.62370   0.62340   0.00000  Uiso   1.00
O822   O     0.04580   0.70419   0.46179   0.00000  Uiso   1.00
O823   O     0.24949   0.60953   0.55780   0.00000  Uiso   1.00
O824   O     0.45419   0.70419   0.46179   0.00000  Uiso   1.00
O825   O     0.04580   0.79581   0.53821   0.00000  Uiso   1.00
O826   O     0.04580   0.79581   0.46179   0.00000  Uiso   1.00
O827   O     0.45419   0.70419   0.53821   0.00000  Uiso   1.00
O828   O     0.29580   0.95419   0.53821   0.00000  Uiso   1.00
S829   S     0.49561   0.85338   0.38685   0.00000  Uiso   1.00
S830   S     0.49561   0.64662   0.61315   0.00000  Uiso   1.00
S831   S     0.00439   0.64662   0.38685   0.00000  Uiso   1.00
S832   S     0.00439   0.85338   0.61315   0.00000  Uiso   1.00
S833   S     0.24561   0.60338   0.38685   0.00000  Uiso   1.00
S834   S     0.24562   0.89662   0.61315   0.00000  Uiso   1.00
S835   S     0.25439   0.89662   0.38685   0.00000  Uiso   1.00
S836   S     0.25439   0.60338   0.61315   0.00000  Uiso   1.00
Zn837  Zn    0.00000   0.75000   0.55104   0.00000  Uiso   1.00
Zn838  Zn    0.00000   0.75000   0.44896   0.00000  Uiso   1.00
Zn839  Zn    0.25000   0.50000   0.55104   0.00000  Uiso   1.00
Zn840  Zn    0.25000   0.50000   0.44896   0.00000  Uiso   1.00
C841   C     0.56234   0.69345   0.50020   0.00000  Uiso   1.00
C842   C     0.99966   0.70582   0.64229   0.00000  Uiso   1.00
C843   C     0.50034   0.70582   0.35772   0.00000  Uiso   1.00
C844   C     0.50034   0.79418   0.64228   0.00000  Uiso   1.00
C845   C     0.74966   0.54418   0.35771   0.00000  Uiso   1.00
C846   C     0.74966   0.95582   0.64229   0.00000  Uiso   1.00
C847   C     0.75034   0.95582   0.35772   0.00000  Uiso   1.00
C848   C     0.75034   0.54418   0.64228   0.00000  Uiso   1.00
C849   C     0.88725   0.64542   0.45764   0.00000  Uiso   1.00
C850   C     0.61412   0.85358   0.53944   0.00000  Uiso   1.00
C851   C     0.61274   0.85459   0.45764   0.00000  Uiso   1.00
C852   C     0.93766   0.80655   0.50020   0.00000  Uiso   1.00
C853   C     0.88588   0.64642   0.53944   0.00000  Uiso   1.00
C854   C     0.61274   0.64541   0.54236   0.00000  Uiso   1.00
C855   C     0.88587   0.85358   0.46056   0.00000  Uiso   1.00
C856   C     0.88726   0.85459   0.54236   0.00000  Uiso   1.00
C857   C     0.61412   0.64641   0.46056   0.00000  Uiso   1.00
C858   C     0.63725   0.89541   0.45764   0.00000  Uiso   1.00
C859   C     0.86412   0.60358   0.53944   0.00000  Uiso   1.00
C860   C     0.86274   0.60459   0.45764   0.00000  Uiso   1.00
C861   C     0.63588   0.89641   0.53944   0.00000  Uiso   1.00
C862   C     0.86275   0.89541   0.54236   0.00000  Uiso   1.00
C863   C     0.93766   0.69345   0.49980   0.00000  Uiso   1.00
C864   C     0.63587   0.60358   0.46056   0.00000  Uiso   1.00
C865   C     0.63725   0.60459   0.54236   0.00000  Uiso   1.00
C866   C     0.86412   0.89642   0.46056   0.00000  Uiso   1.00
C867   C     0.59842   0.83621   0.49886   0.00000  Uiso   1.00
C868   C     0.90158   0.66379   0.49886   0.00000  Uiso   1.00
C869   C     0.90158   0.83621   0.50114   0.00000  Uiso   1.00
C870   C     0.59842   0.66379   0.50114   0.00000  Uiso   1.00
C871   C     0.84842   0.58621   0.49886   0.00000  Uiso   1.00
C872   C     0.65158   0.91379   0.49886   0.00000  Uiso   1.00
C873   C     0.65158   0.58621   0.50114   0.00000  Uiso   1.00
C874   C     0.56234   0.80655   0.49980   0.00000  Uiso   1.00
C875   C     0.84842   0.91379   0.50114   0.00000  Uiso   1.00
C876   C     0.81234   0.94345   0.50020   0.00000  Uiso   1.00
C877   C     0.68766   0.55655   0.50020   0.00000  Uiso   1.00
C878   C     0.68766   0.94345   0.49980   0.00000  Uiso   1.00
C879   C     0.81234   0.55655   0.49980   0.00000  Uiso   1.00
C880   C     0.99966   0.79418   0.35771   0.00000  Uiso   1.00
Cl881  Cl    0.89524   0.67550   0.40560   0.00000  Uiso   1.00
Cl882  Cl    0.86351   0.56823   0.58909   0.00000  Uiso   1.00
Cl883  Cl    0.85475   0.57452   0.40559   0.00000  Uiso   1.00
Cl884  Cl    0.63649   0.93176   0.58909   0.00000  Uiso   1.00
Cl885  Cl    0.85476   0.92550   0.59440   0.00000  Uiso   1.00
Cl886  Cl    0.63648   0.56823   0.41092   0.00000  Uiso   1.00
Cl887  Cl    0.64524   0.57451   0.59441   0.00000  Uiso   1.00
Cl888  Cl    0.86351   0.93177   0.41091   0.00000  Uiso   1.00
Cl889  Cl    0.61351   0.81823   0.58909   0.00000  Uiso   1.00
Cl890  Cl    0.60475   0.82451   0.40560   0.00000  Uiso   1.00
Cl891  Cl    0.88649   0.68176   0.58909   0.00000  Uiso   1.00
Cl892  Cl    0.60476   0.67549   0.59440   0.00000  Uiso   1.00
Cl893  Cl    0.88649   0.81823   0.41091   0.00000  Uiso   1.00
Cl894  Cl    0.89524   0.82451   0.59441   0.00000  Uiso   1.00
Cl895  Cl    0.61351   0.68176   0.41091   0.00000  Uiso   1.00
Cl896  Cl    0.64525   0.92549   0.40560   0.00000  Uiso   1.00
H897   H     0.99329   0.89391   0.44883   0.00000  Uiso   1.00
H898   H     0.99339   0.60606   0.55118   0.00000  Uiso   1.00
H899   H     0.50666   0.60607   0.44883   0.00000  Uiso   1.00
H900   H     0.50664   0.89394   0.55118   0.00000  Uiso   1.00
H901   H     0.74320   0.64387   0.44885   0.00000  Uiso   1.00
H902   H     0.74341   0.85605   0.55118   0.00000  Uiso   1.00
H903   H     0.75666   0.85608   0.44883   0.00000  Uiso   1.00
H904   H     0.75665   0.64393   0.55117   0.00000  Uiso   1.00
N905   N     0.50000   0.75000   0.61907   0.00000  Uiso   1.00
N906   N     0.50000   0.75000   0.38093   0.00000  Uiso   1.00
N907   N     0.75000   0.50000   0.61907   0.00000  Uiso   1.00
N908   N     0.75000   0.50000   0.38093   0.00000  Uiso   1.00
O909   O     0.54580   0.70419   0.53821   0.00000  Uiso   1.00
O910   O     0.70419   0.54581   0.46179   0.00000  Uiso   1.00
O911   O     0.70419   0.54581   0.53821   0.00000  Uiso   1.00
O912   O     0.79580   0.95419   0.46179   0.00000  Uiso   1.00
O913   O     0.70419   0.95419   0.46179   0.00000  Uiso   1.00
O914   O     0.79580   0.54581   0.53821   0.00000  Uiso   1.00
O915   O     0.79580   0.54581   0.46179   0.00000  Uiso   1.00
O916   O     0.70419   0.95419   0.53821   0.00000  Uiso   1.00
O917   O     0.52678   0.88814   0.36925   0.00000  Uiso   1.00
O918   O     0.95452   0.87369   0.37660   0.00000  Uiso   1.00
O919   O     0.50051   0.85953   0.44220   0.00000  Uiso   1.00
O920   O     0.95419   0.79581   0.46179   0.00000  Uiso   1.00
O921   O     0.52679   0.61186   0.63074   0.00000  Uiso   1.00
O922   O     0.95453   0.62630   0.62340   0.00000  Uiso   1.00
O923   O     0.50051   0.64047   0.55780   0.00000  Uiso   1.00
O924   O     0.97321   0.61186   0.36926   0.00000  Uiso   1.00
O925   O     0.54547   0.62630   0.37660   0.00000  Uiso   1.00
O926   O     0.99949   0.64047   0.44220   0.00000  Uiso   1.00
O927   O     0.97321   0.88814   0.63074   0.00000  Uiso   1.00
O928   O     0.54547   0.87370   0.62340   0.00000  Uiso   1.00
O929   O     0.99949   0.85953   0.55780   0.00000  Uiso   1.00
O930   O     0.77677   0.63815   0.36925   0.00000  Uiso   1.00
O931   O     0.95419   0.79581   0.53821   0.00000  Uiso   1.00
O932   O     0.70451   0.62369   0.37660   0.00000  Uiso   1.00
O933   O     0.75051   0.60953   0.44220   0.00000  Uiso   1.00
O934   O     0.77679   0.86187   0.63074   0.00000  Uiso   1.00
O935   O     0.70453   0.87630   0.62340   0.00000  Uiso   1.00
O936   O     0.75051   0.89047   0.55780   0.00000  Uiso   1.00
O937   O     0.72321   0.86186   0.36926   0.00000  Uiso   1.00
O938   O     0.79548   0.87630   0.37660   0.00000  Uiso   1.00
O939   O     0.74949   0.89047   0.44220   0.00000  Uiso   1.00
O940   O     0.72321   0.63814   0.63074   0.00000  Uiso   1.00
O941   O     0.79547   0.62370   0.62340   0.00000  Uiso   1.00
O942   O     0.54580   0.70419   0.46179   0.00000  Uiso   1.00
O943   O     0.74949   0.60953   0.55780   0.00000  Uiso   1.00
O944   O     0.95419   0.70419   0.46179   0.00000  Uiso   1.00
O945   O     0.54580   0.79581   0.53821   0.00000  Uiso   1.00
O946   O     0.54580   0.79581   0.46179   0.00000  Uiso   1.00
O947   O     0.95419   0.70419   0.53821   0.00000  Uiso   1.00
O948   O     0.79580   0.95419   0.53821   0.00000  Uiso   1.00
S949   S     0.99561   0.85338   0.38685   0.00000  Uiso   1.00
S950   S     0.99561   0.64662   0.61315   0.00000  Uiso   1.00
S951   S     0.50439   0.64662   0.38685   0.00000  Uiso   1.00
S952   S     0.50439   0.85338   0.61315   0.00000  Uiso   1.00
S953   S     0.74561   0.60338   0.38685   0.00000  Uiso   1.00
S954   S     0.74562   0.89662   0.61315   0.00000  Uiso   1.00
S955   S     0.75439   0.89662   0.38685   0.00000  Uiso   1.00
S956   S     0.75439   0.60338   0.61315   0.00000  Uiso   1.00
Zn957  Zn    0.50000   0.75000   0.55104   0.00000  Uiso   1.00
Zn958  Zn    0.50000   0.75000   0.44896   0.00000  Uiso   1.00
Zn959  Zn    0.75000   0.50000   0.55104   0.00000  Uiso   1.00
Zn960  Zn    0.75000   0.50000   0.44896   0.00000  Uiso   1.00
C961   C     0.06234   0.19345   0.83353   0.00000  Uiso   1.00
C962   C     0.49966   0.20582   0.97562   0.00000  Uiso   1.00
C963   C     0.00034   0.20582   0.69105   0.00000  Uiso   1.00
C964   C     0.00034   0.29418   0.97562   0.00000  Uiso   1.00
C965   C     0.24966   0.04418   0.69105   0.00000  Uiso   1.00
C966   C     0.24966   0.45582   0.97562   0.00000  Uiso   1.00
C967   C     0.25034   0.45582   0.69105   0.00000  Uiso   1.00
C968   C     0.25034   0.04418   0.97562   0.00000  Uiso   1.00
C969   C     0.38725   0.14542   0.79097   0.00000  Uiso   1.00
C970   C     0.11412   0.35358   0.87278   0.00000  Uiso   1.00
C971   C     0.11274   0.35459   0.79097   0.00000  Uiso   1.00
C972   C     0.43766   0.30655   0.83353   0.00000  Uiso   1.00
C973   C     0.38588   0.14642   0.87278   0.00000  Uiso   1.00
C974   C     0.11274   0.14541   0.87570   0.00000  Uiso   1.00
C975   C     0.38587   0.35358   0.79389   0.00000  Uiso   1.00
C976   C     0.38726   0.35459   0.87570   0.00000  Uiso   1.00
C977   C     0.11412   0.14641   0.79389   0.00000  Uiso   1.00
C978   C     0.13725   0.39541   0.79097   0.00000  Uiso   1.00
C979   C     0.36412   0.10358   0.87278   0.00000  Uiso   1.00
C980   C     0.36274   0.10459   0.79097   0.00000  Uiso   1.00
C981   C     0.13588   0.39641   0.87278   0.00000  Uiso   1.00
C982   C     0.36275   0.39541   0.87570   0.00000  Uiso   1.00
C983   C     0.43766   0.19345   0.83314   0.00000  Uiso   1.00
C984   C     0.13587   0.10358   0.79389   0.00000  Uiso   1.00
C985   C     0.13725   0.10459   0.87570   0.00000  Uiso   1.00
C986   C     0.36412   0.39642   0.79389   0.00000  Uiso   1.00
C987   C     0.09842   0.33621   0.83220   0.00000  Uiso   1.00
C988   C     0.40158   0.16379   0.83220   0.00000  Uiso   1.00
C989   C     0.40158   0.33621   0.83447   0.00000  Uiso   1.00
C990   C     0.09842   0.16379   0.83447   0.00000  Uiso   1.00
C991   C     0.34842   0.08621   0.83220   0.00000  Uiso   1.00
C992   C     0.15158   0.41379   0.83220   0.00000  Uiso   1.00
C993   C     0.15158   0.08621   0.83447   0.00000  Uiso   1.00
C994   C     0.06234   0.30655   0.83314   0.00000  Uiso   1.00
C995   C     0.34842   0.41379   0.83447   0.00000  Uiso   1.00
C996   C     0.31234   0.44345   0.83353   0.00000  Uiso   1.00
C997   C     0.18766   0.05655   0.83353   0.00000  Uiso   1.00
C998   C     0.18766   0.44345   0.83314   0.00000  Uiso   1.00
C999   C     0.31234   0.05655   0.83314   0.00000  Uiso   1.00
C1000  C     0.49966   0.29418   0.69105   0.00000  Uiso   1.00
Cl1001 Cl    0.39524   0.17550   0.73893   0.00000  Uiso   1.00
Cl1002 Cl    0.36351   0.06823   0.92242   0.00000  Uiso   1.00
Cl1003 Cl    0.35475   0.07452   0.73893   0.00000  Uiso   1.00
Cl1004 Cl    0.13649   0.43176   0.92242   0.00000  Uiso   1.00
Cl1005 Cl    0.35476   0.42550   0.92774   0.00000  Uiso   1.00
Cl1006 Cl    0.13648   0.06823   0.74425   0.00000  Uiso   1.00
Cl1007 Cl    0.14524   0.07451   0.92774   0.00000  Uiso   1.00
Cl1008 Cl    0.36351   0.43177   0.74425   0.00000  Uiso   1.00
Cl1009 Cl    0.11351   0.31823   0.92242   0.00000  Uiso   1.00
Cl1010 Cl    0.10475   0.32451   0.73893   0.00000  Uiso   1.00
Cl1011 Cl    0.38649   0.18176   0.92242   0.00000  Uiso   1.00
Cl1012 Cl    0.10476   0.17549   0.92774   0.00000  Uiso   1.00
Cl1013 Cl    0.38649   0.31823   0.74425   0.00000  Uiso   1.00
Cl1014 Cl    0.39524   0.32451   0.92774   0.00000  Uiso   1.00
Cl1015 Cl    0.11351   0.18176   0.74424   0.00000  Uiso   1.00
Cl1016 Cl    0.14525   0.42549   0.73893   0.00000  Uiso   1.00
H1017  H     0.49329   0.39391   0.78216   0.00000  Uiso   1.00
H1018  H     0.49339   0.10606   0.88451   0.00000  Uiso   1.00
H1019  H     0.00666   0.10607   0.78216   0.00000  Uiso   1.00
H1020  H     0.00664   0.39394   0.88451   0.00000  Uiso   1.00
H1021  H     0.24320   0.14387   0.78218   0.00000  Uiso   1.00
H1022  H     0.24341   0.35605   0.88452   0.00000  Uiso   1.00
H1023  H     0.25666   0.35608   0.78216   0.00000  Uiso   1.00
H1024  H     0.25665   0.14393   0.88451   0.00000  Uiso   1.00
N1025  N     0.00000   0.25000   0.95240   0.00000  Uiso   1.00
N1026  N     0.00000   0.25000   0.71427   0.00000  Uiso   1.00
N1027  N     0.25000   0.00000   0.95240   0.00000  Uiso   1.00
N1028  N     0.25000   0.00000   0.71427   0.00000  Uiso   1.00
O1029  O     0.04580   0.20419   0.87154   0.00000  Uiso   1.00
O1030  O     0.20419   0.04581   0.79513   0.00000  Uiso   1.00
O1031  O     0.20419   0.04581   0.87154   0.00000  Uiso   1.00
O1032  O     0.29580   0.45419   0.79513   0.00000  Uiso   1.00
O1033  O     0.20419   0.45419   0.79513   0.00000  Uiso   1.00
O1034  O     0.29580   0.04581   0.87154   0.00000  Uiso   1.00
O1035  O     0.29580   0.04581   0.79513   0.00000  Uiso   1.00
O1036  O     0.20419   0.45419   0.87154   0.00000  Uiso   1.00
O1037  O     0.02678   0.38814   0.70259   0.00000  Uiso   1.00
O1038  O     0.45452   0.37369   0.70993   0.00000  Uiso   1.00
O1039  O     0.00051   0.35953   0.77553   0.00000  Uiso   1.00
O1040  O     0.45419   0.29581   0.79513   0.00000  Uiso   1.00
O1041  O     0.02679   0.11186   0.96408   0.00000  Uiso   1.00
O1042  O     0.45453   0.12630   0.95674   0.00000  Uiso   1.00
O1043  O     0.00051   0.14047   0.89113   0.00000  Uiso   1.00
O1044  O     0.47321   0.11186   0.70259   0.00000  Uiso   1.00
O1045  O     0.04547   0.12630   0.70993   0.00000  Uiso   1.00
O1046  O     0.49949   0.14047   0.77553   0.00000  Uiso   1.00
O1047  O     0.47321   0.38814   0.96408   0.00000  Uiso   1.00
O1048  O     0.04547   0.37370   0.95673   0.00000  Uiso   1.00
O1049  O     0.49949   0.35953   0.89113   0.00000  Uiso   1.00
O1050  O     0.27677   0.13815   0.70259   0.00000  Uiso   1.00
O1051  O     0.45419   0.29581   0.87154   0.00000  Uiso   1.00
O1052  O     0.20451   0.12369   0.70993   0.00000  Uiso   1.00
O1053  O     0.25051   0.10953   0.77553   0.00000  Uiso   1.00
O1054  O     0.27679   0.36187   0.96408   0.00000  Uiso   1.00
O1055  O     0.20453   0.37630   0.95674   0.00000  Uiso   1.00
O1056  O     0.25051   0.39047   0.89113   0.00000  Uiso   1.00
O1057  O     0.22321   0.36186   0.70259   0.00000  Uiso   1.00
O1058  O     0.29548   0.37630   0.70993   0.00000  Uiso   1.00
O1059  O     0.24949   0.39047   0.77553   0.00000  Uiso   1.00
O1060  O     0.22321   0.13814   0.96408   0.00000  Uiso   1.00
O1061  O     0.29547   0.12370   0.95674   0.00000  Uiso   1.00
O1062  O     0.04580   0.20419   0.79513   0.00000  Uiso   1.00
O1063  O     0.24949   0.10953   0.89113   0.00000  Uiso   1.00
O1064  O     0.45419   0.20419   0.79513   0.00000  Uiso   1.00
O1065  O     0.04580   0.29581   0.87154   0.00000  Uiso   1.00
O1066  O     0.04580   0.29581   0.79513   0.00000  Uiso   1.00
O1067  O     0.45419   0.20419   0.87154   0.00000  Uiso   1.00
O1068  O     0.29580   0.45419   0.87154   0.00000  Uiso   1.00
S1069  S     0.49561   0.35338   0.72018   0.00000  Uiso   1.00
S1070  S     0.49561   0.14662   0.94648   0.00000  Uiso   1.00
S1071  S     0.00439   0.14662   0.72018   0.00000  Uiso   1.00
S1072  S     0.00439   0.35338   0.94648   0.00000  Uiso   1.00
S1073  S     0.24561   0.10338   0.72018   0.00000  Uiso   1.00
S1074  S     0.24562   0.39662   0.94648   0.00000  Uiso   1.00
S1075  S     0.25439   0.39662   0.72018   0.00000  Uiso   1.00
S1076  S     0.25439   0.10338   0.94648   0.00000  Uiso   1.00
Zn1077 Zn    0.00000   0.25000   0.88437   0.00000  Uiso   1.00
Zn1078 Zn    0.00000   0.25000   0.78229   0.00000  Uiso   1.00
Zn1079 Zn    0.25000   0.00000   0.88437   0.00000  Uiso   1.00
Zn1080 Zn    0.25000   0.00000   0.78229   0.00000  Uiso   1.00
C1081  C     0.56234   0.19345   0.83353   0.00000  Uiso   1.00
C1082  C     0.99966   0.20582   0.97562   0.00000  Uiso   1.00
C1083  C     0.50034   0.20582   0.69105   0.00000  Uiso   1.00
C1084  C     0.50034   0.29418   0.97562   0.00000  Uiso   1.00
C1085  C     0.74966   0.04418   0.69105   0.00000  Uiso   1.00
C1086  C     0.74966   0.45582   0.97562   0.00000  Uiso   1.00
C1087  C     0.75034   0.45582   0.69105   0.00000  Uiso   1.00
C1088  C     0.75034   0.04418   0.97562   0.00000  Uiso   1.00
C1089  C     0.88725   0.14542   0.79097   0.00000  Uiso   1.00
C1090  C     0.61412   0.35358   0.87278   0.00000  Uiso   1.00
C1091  C     0.61274   0.35459   0.79097   0.00000  Uiso   1.00
C1092  C     0.93766   0.30655   0.83353   0.00000  Uiso   1.00
C1093  C     0.88588   0.14642   0.87278   0.00000  Uiso   1.00
C1094  C     0.61274   0.14541   0.87570   0.00000  Uiso   1.00
C1095  C     0.88587   0.35358   0.79389   0.00000  Uiso   1.00
C1096  C     0.88726   0.35459   0.87570   0.00000  Uiso   1.00
C1097  C     0.61412   0.14641   0.79389   0.00000  Uiso   1.00
C1098  C     0.63725   0.39541   0.79097   0.00000  Uiso   1.00
C1099  C     0.86412   0.10358   0.87278   0.00000  Uiso   1.00
C1100  C     0.86274   0.10459   0.79097   0.00000  Uiso   1.00
C1101  C     0.63588   0.39641   0.87278   0.00000  Uiso   1.00
C1102  C     0.86275   0.39541   0.87570   0.00000  Uiso   1.00
C1103  C     0.93766   0.19345   0.83314   0.00000  Uiso   1.00
C1104  C     0.63587   0.10358   0.79389   0.00000  Uiso   1.00
C1105  C     0.63725   0.10459   0.87570   0.00000  Uiso   1.00
C1106  C     0.86412   0.39642   0.79389   0.00000  Uiso   1.00
C1107  C     0.59842   0.33621   0.83220   0.00000  Uiso   1.00
C1108  C     0.90158   0.16379   0.83220   0.00000  Uiso   1.00
C1109  C     0.90158   0.33621   0.83447   0.00000  Uiso   1.00
C1110  C     0.59842   0.16379   0.83447   0.00000  Uiso   1.00
C1111  C     0.84842   0.08621   0.83220   0.00000  Uiso   1.00
C1112  C     0.65158   0.41379   0.83220   0.00000  Uiso   1.00
C1113  C     0.65158   0.08621   0.83447   0.00000  Uiso   1.00
C1114  C     0.56234   0.30655   0.83314   0.00000  Uiso   1.00
C1115  C     0.84842   0.41379   0.83447   0.00000  Uiso   1.00
C1116  C     0.81234   0.44345   0.83353   0.00000  Uiso   1.00
C1117  C     0.68766   0.05655   0.83353   0.00000  Uiso   1.00
C1118  C     0.68766   0.44345   0.83314   0.00000  Uiso   1.00
C1119  C     0.81234   0.05655   0.83314   0.00000  Uiso   1.00
C1120  C     0.99966   0.29418   0.69105   0.00000  Uiso   1.00
Cl1121 Cl    0.89524   0.17550   0.73893   0.00000  Uiso   1.00
Cl1122 Cl    0.86351   0.06823   0.92242   0.00000  Uiso   1.00
Cl1123 Cl    0.85475   0.07452   0.73893   0.00000  Uiso   1.00
Cl1124 Cl    0.63649   0.43176   0.92242   0.00000  Uiso   1.00
Cl1125 Cl    0.85476   0.42550   0.92774   0.00000  Uiso   1.00
Cl1126 Cl    0.63648   0.06823   0.74425   0.00000  Uiso   1.00
Cl1127 Cl    0.64524   0.07451   0.92774   0.00000  Uiso   1.00
Cl1128 Cl    0.86351   0.43177   0.74425   0.00000  Uiso   1.00
Cl1129 Cl    0.61351   0.31823   0.92242   0.00000  Uiso   1.00
Cl1130 Cl    0.60475   0.32451   0.73893   0.00000  Uiso   1.00
Cl1131 Cl    0.88649   0.18176   0.92242   0.00000  Uiso   1.00
Cl1132 Cl    0.60476   0.17549   0.92774   0.00000  Uiso   1.00
Cl1133 Cl    0.88649   0.31823   0.74425   0.00000  Uiso   1.00
Cl1134 Cl    0.89524   0.32451   0.92774   0.00000  Uiso   1.00
Cl1135 Cl    0.61351   0.18176   0.74424   0.00000  Uiso   1.00
Cl1136 Cl    0.64525   0.42549   0.73893   0.00000  Uiso   1.00
H1137  H     0.99329   0.39391   0.78216   0.00000  Uiso   1.00
H1138  H     0.99339   0.10606   0.88451   0.00000  Uiso   1.00
H1139  H     0.50666   0.10607   0.78216   0.00000  Uiso   1.00
H1140  H     0.50664   0.39394   0.88451   0.00000  Uiso   1.00
H1141  H     0.74320   0.14387   0.78218   0.00000  Uiso   1.00
H1142  H     0.74341   0.35605   0.88452   0.00000  Uiso   1.00
H1143  H     0.75666   0.35608   0.78216   0.00000  Uiso   1.00
H1144  H     0.75665   0.14393   0.88451   0.00000  Uiso   1.00
N1145  N     0.50000   0.25000   0.95240   0.00000  Uiso   1.00
N1146  N     0.50000   0.25000   0.71427   0.00000  Uiso   1.00
N1147  N     0.75000   0.00000   0.95240   0.00000  Uiso   1.00
N1148  N     0.75000   0.00000   0.71427   0.00000  Uiso   1.00
O1149  O     0.54580   0.20419   0.87154   0.00000  Uiso   1.00
O1150  O     0.70419   0.04581   0.79513   0.00000  Uiso   1.00
O1151  O     0.70419   0.04581   0.87154   0.00000  Uiso   1.00
O1152  O     0.79580   0.45419   0.79513   0.00000  Uiso   1.00
O1153  O     0.70419   0.45419   0.79513   0.00000  Uiso   1.00
O1154  O     0.79580   0.04581   0.87154   0.00000  Uiso   1.00
O1155  O     0.79580   0.04581   0.79513   0.00000  Uiso   1.00
O1156  O     0.70419   0.45419   0.87154   0.00000  Uiso   1.00
O1157  O     0.52678   0.38814   0.70259   0.00000  Uiso   1.00
O1158  O     0.95452   0.37369   0.70993   0.00000  Uiso   1.00
O1159  O     0.50051   0.35953   0.77553   0.00000  Uiso   1.00
O1160  O     0.95419   0.29581   0.79513   0.00000  Uiso   1.00
O1161  O     0.52679   0.11186   0.96408   0.00000  Uiso   1.00
O1162  O     0.95453   0.12630   0.95674   0.00000  Uiso   1.00
O1163  O     0.50051   0.14047   0.89113   0.00000  Uiso   1.00
O1164  O     0.97321   0.11186   0.70259   0.00000  Uiso   1.00
O1165  O     0.54547   0.12630   0.70993   0.00000  Uiso   1.00
O1166  O     0.99949   0.14047   0.77553   0.00000  Uiso   1.00
O1167  O     0.97321   0.38814   0.96408   0.00000  Uiso   1.00
O1168  O     0.54547   0.37370   0.95673   0.00000  Uiso   1.00
O1169  O     0.99949   0.35953   0.89113   0.00000  Uiso   1.00
O1170  O     0.77677   0.13815   0.70259   0.00000  Uiso   1.00
O1171  O     0.95419   0.29581   0.87154   0.00000  Uiso   1.00
O1172  O     0.70451   0.12369   0.70993   0.00000  Uiso   1.00
O1173  O     0.75051   0.10953   0.77553   0.00000  Uiso   1.00
O1174  O     0.77679   0.36187   0.96408   0.00000  Uiso   1.00
O1175  O     0.70453   0.37630   0.95674   0.00000  Uiso   1.00
O1176  O     0.75051   0.39047   0.89113   0.00000  Uiso   1.00
O1177  O     0.72321   0.36186   0.70259   0.00000  Uiso   1.00
O1178  O     0.79548   0.37630   0.70993   0.00000  Uiso   1.00
O1179  O     0.74949   0.39047   0.77553   0.00000  Uiso   1.00
O1180  O     0.72321   0.13814   0.96408   0.00000  Uiso   1.00
O1181  O     0.79547   0.12370   0.95674   0.00000  Uiso   1.00
O1182  O     0.54580   0.20419   0.79513   0.00000  Uiso   1.00
O1183  O     0.74949   0.10953   0.89113   0.00000  Uiso   1.00
O1184  O     0.95419   0.20419   0.79513   0.00000  Uiso   1.00
O1185  O     0.54580   0.29581   0.87154   0.00000  Uiso   1.00
O1186  O     0.54580   0.29581   0.79513   0.00000  Uiso   1.00
O1187  O     0.95419   0.20419   0.87154   0.00000  Uiso   1.00
O1188  O     0.79580   0.45419   0.87154   0.00000  Uiso   1.00
S1189  S     0.99561   0.35338   0.72018   0.00000  Uiso   1.00
S1190  S     0.99561   0.14662   0.94648   0.00000  Uiso   1.00
S1191  S     0.50439   0.14662   0.72018   0.00000  Uiso   1.00
S1192  S     0.50439   0.35338   0.94648   0.00000  Uiso   1.00
S1193  S     0.74561   0.10338   0.72018   0.00000  Uiso   1.00
S1194  S     0.74562   0.39662   0.94648   0.00000  Uiso   1.00
S1195  S     0.75439   0.39662   0.72018   0.00000  Uiso   1.00
S1196  S     0.75439   0.10338   0.94648   0.00000  Uiso   1.00
Zn1197 Zn    0.50000   0.25000   0.88437   0.00000  Uiso   1.00
Zn1198 Zn    0.50000   0.25000   0.78229   0.00000  Uiso   1.00
Zn1199 Zn    0.75000   0.00000   0.88437   0.00000  Uiso   1.00
Zn1200 Zn    0.75000   0.00000   0.78229   0.00000  Uiso   1.00
C1201  C     0.06234   0.69345   0.83353   0.00000  Uiso   1.00
C1202  C     0.49966   0.70582   0.97562   0.00000  Uiso   1.00
C1203  C     0.00034   0.70582   0.69105   0.00000  Uiso   1.00
C1204  C     0.00034   0.79418   0.97562   0.00000  Uiso   1.00
C1205  C     0.24966   0.54418   0.69105   0.00000  Uiso   1.00
C1206  C     0.24966   0.95582   0.97562   0.00000  Uiso   1.00
C1207  C     0.25034   0.95582   0.69105   0.00000  Uiso   1.00
C1208  C     0.25034   0.54418   0.97562   0.00000  Uiso   1.00
C1209  C     0.38725   0.64542   0.79097   0.00000  Uiso   1.00
C1210  C     0.11412   0.85358   0.87278   0.00000  Uiso   1.00
C1211  C     0.11274   0.85459   0.79097   0.00000  Uiso   1.00
C1212  C     0.43766   0.80655   0.83353   0.00000  Uiso   1.00
C1213  C     0.38588   0.64642   0.87278   0.00000  Uiso   1.00
C1214  C     0.11274   0.64541   0.87570   0.00000  Uiso   1.00
C1215  C     0.38587   0.85358   0.79389   0.00000  Uiso   1.00
C1216  C     0.38726   0.85459   0.87570   0.00000  Uiso   1.00
C1217  C     0.11412   0.64641   0.79389   0.00000  Uiso   1.00
C1218  C     0.13725   0.89541   0.79097   0.00000  Uiso   1.00
C1219  C     0.36412   0.60358   0.87278   0.00000  Uiso   1.00
C1220  C     0.36274   0.60459   0.79097   0.00000  Uiso   1.00
C1221  C     0.13588   0.89641   0.87278   0.00000  Uiso   1.00
C1222  C     0.36275   0.89541   0.87570   0.00000  Uiso   1.00
C1223  C     0.43766   0.69345   0.83314   0.00000  Uiso   1.00
C1224  C     0.13587   0.60358   0.79389   0.00000  Uiso   1.00
C1225  C     0.13725   0.60459   0.87570   0.00000  Uiso   1.00
C1226  C     0.36412   0.89642   0.79389   0.00000  Uiso   1.00
C1227  C     0.09842   0.83621   0.83220   0.00000  Uiso   1.00
C1228  C     0.40158   0.66379   0.83220   0.00000  Uiso   1.00
C1229  C     0.40158   0.83621   0.83447   0.00000  Uiso   1.00
C1230  C     0.09842   0.66379   0.83447   0.00000  Uiso   1.00
C1231  C     0.34842   0.58621   0.83220   0.00000  Uiso   1.00
C1232  C     0.15158   0.91379   0.83220   0.00000  Uiso   1.00
C1233  C     0.15158   0.58621   0.83447   0.00000  Uiso   1.00
C1234  C     0.06234   0.80655   0.83314   0.00000  Uiso   1.00
C1235  C     0.34842   0.91379   0.83447   0.00000  Uiso   1.00
C1236  C     0.31234   0.94345   0.83353   0.00000  Uiso   1.00
C1237  C     0.18766   0.55655   0.83353   0.00000  Uiso   1.00
C1238  C     0.18766   0.94345   0.83314   0.00000  Uiso   1.00
C1239  C     0.31234   0.55655   0.83314   0.00000  Uiso   1.00
C1240  C     0.49966   0.79418   0.69105   0.00000  Uiso   1.00
Cl1241 Cl    0.39524   0.67550   0.73893   0.00000  Uiso   1.00
Cl1242 Cl    0.36351   0.56823   0.92242   0.00000  Uiso   1.00
Cl1243 Cl    0.35475   0.57452   0.73893   0.00000  Uiso   1.00
Cl1244 Cl    0.13649   0.93176   0.92242   0.00000  Uiso   1.00
Cl1245 Cl    0.35476   0.92550   0.92774   0.00000  Uiso   1.00
Cl1246 Cl    0.13648   0.56823   0.74425   0.00000  Uiso   1.00
Cl1247 Cl    0.14524   0.57451   0.92774   0.00000  Uiso   1.00
Cl1248 Cl    0.36351   0.93177   0.74425   0.00000  Uiso   1.00
Cl1249 Cl    0.11351   0.81823   0.92242   0.00000  Uiso   1.00
Cl1250 Cl    0.10475   0.82451   0.73893   0.00000  Uiso   1.00
Cl1251 Cl    0.38649   0.68176   0.92242   0.00000  Uiso   1.00
Cl1252 Cl    0.10476   0.67549   0.92774   0.00000  Uiso   1.00
Cl1253 Cl    0.38649   0.81823   0.74425   0.00000  Uiso   1.00
Cl1254 Cl    0.39524   0.82451   0.92774   0.00000  Uiso   1.00
Cl1255 Cl    0.11351   0.68176   0.74424   0.00000  Uiso   1.00
Cl1256 Cl    0.14525   0.92549   0.73893   0.00000  Uiso   1.00
H1257  H     0.49329   0.89391   0.78216   0.00000  Uiso   1.00
H1258  H     0.49339   0.60606   0.88451   0.00000  Uiso   1.00
H1259  H     0.00666   0.60607   0.78216   0.00000  Uiso   1.00
H1260  H     0.00664   0.89394   0.88451   0.00000  Uiso   1.00
H1261  H     0.24320   0.64387   0.78218   0.00000  Uiso   1.00
H1262  H     0.24341   0.85605   0.88452   0.00000  Uiso   1.00
H1263  H     0.25666   0.85608   0.78216   0.00000  Uiso   1.00
H1264  H     0.25665   0.64393   0.88451   0.00000  Uiso   1.00
N1265  N     0.00000   0.75000   0.95240   0.00000  Uiso   1.00
N1266  N     0.00000   0.75000   0.71427   0.00000  Uiso   1.00
N1267  N     0.25000   0.50000   0.95240   0.00000  Uiso   1.00
N1268  N     0.25000   0.50000   0.71427   0.00000  Uiso   1.00
O1269  O     0.04580   0.70419   0.87154   0.00000  Uiso   1.00
O1270  O     0.20419   0.54581   0.79513   0.00000  Uiso   1.00
O1271  O     0.20419   0.54581   0.87154   0.00000  Uiso   1.00
O1272  O     0.29580   0.95419   0.79513   0.00000  Uiso   1.00
O1273  O     0.20419   0.95419   0.79513   0.00000  Uiso   1.00
O1274  O     0.29580   0.54581   0.87154   0.00000  Uiso   1.00
O1275  O     0.29580   0.54581   0.79513   0.00000  Uiso   1.00
O1276  O     0.20419   0.95419   0.87154   0.00000  Uiso   1.00
O1277  O     0.02678   0.88814   0.70259   0.00000  Uiso   1.00
O1278  O     0.45452   0.87369   0.70993   0.00000  Uiso   1.00
O1279  O     0.00051   0.85953   0.77553   0.00000  Uiso   1.00
O1280  O     0.45419   0.79581   0.79513   0.00000  Uiso   1.00
O1281  O     0.02679   0.61186   0.96408   0.00000  Uiso   1.00
O1282  O     0.45453   0.62630   0.95674   0.00000  Uiso   1.00
O1283  O     0.00051   0.64047   0.89113   0.00000  Uiso   1.00
O1284  O     0.47321   0.61186   0.70259   0.00000  Uiso   1.00
O1285  O     0.04547   0.62630   0.70993   0.00000  Uiso   1.00
O1286  O     0.49949   0.64047   0.77553   0.00000  Uiso   1.00
O1287  O     0.47321   0.88814   0.96408   0.00000  Uiso   1.00
O1288  O     0.04547   0.87370   0.95673   0.00000  Uiso   1.00
O1289  O     0.49949   0.85953   0.89113   0.00000  Uiso   1.00
O1290  O     0.27677   0.63815   0.70259   0.00000  Uiso   1.00
O1291  O     0.45419   0.79581   0.87154   0.00000  Uiso   1.00
O1292  O     0.20451   0.62369   0.70993   0.00000  Uiso   1.00
O1293  O     0.25051   0.60953   0.77553   0.00000  Uiso   1.00
O1294  O     0.27679   0.86187   0.96408   0.00000  Uiso   1.00
O1295  O     0.20453   0.87630   0.95674   0.00000  Uiso   1.00
O1296  O     0.25051   0.89047   0.89113   0.00000  Uiso   1.00
O1297  O     0.22321   0.86186   0.70259   0.00000  Uiso   1.00
O1298  O     0.29548   0.87630   0.70993   0.00000  Uiso   1.00
O1299  O     0.24949   0.89047   0.77553   0.00000  Uiso   1.00
O1300  O     0.22321   0.63814   0.96408   0.00000  Uiso   1.00
O1301  O     0.29547   0.62370   0.95674   0.00000  Uiso   1.00
O1302  O     0.04580   0.70419   0.79513   0.00000  Uiso   1.00
O1303  O     0.24949   0.60953   0.89113   0.00000  Uiso   1.00
O1304  O     0.45419   0.70419   0.79513   0.00000  Uiso   1.00
O1305  O     0.04580   0.79581   0.87154   0.00000  Uiso   1.00
O1306  O     0.04580   0.79581   0.79513   0.00000  Uiso   1.00
O1307  O     0.45419   0.70419   0.87154   0.00000  Uiso   1.00
O1308  O     0.29580   0.95419   0.87154   0.00000  Uiso   1.00
S1309  S     0.49561   0.85338   0.72018   0.00000  Uiso   1.00
S1310  S     0.49561   0.64662   0.94648   0.00000  Uiso   1.00
S1311  S     0.00439   0.64662   0.72018   0.00000  Uiso   1.00
S1312  S     0.00439   0.85338   0.94648   0.00000  Uiso   1.00
S1313  S     0.24561   0.60338   0.72018   0.00000  Uiso   1.00
S1314  S     0.24562   0.89662   0.94648   0.00000  Uiso   1.00
S1315  S     0.25439   0.89662   0.72018   0.00000  Uiso   1.00
S1316  S     0.25439   0.60338   0.94648   0.00000  Uiso   1.00
Zn1317 Zn    0.00000   0.75000   0.88437   0.00000  Uiso   1.00
Zn1318 Zn    0.00000   0.75000   0.78229   0.00000  Uiso   1.00
Zn1319 Zn    0.25000   0.50000   0.88437   0.00000  Uiso   1.00
Zn1320 Zn    0.25000   0.50000   0.78229   0.00000  Uiso   1.00
C1321  C     0.56234   0.69345   0.83353   0.00000  Uiso   1.00
C1322  C     0.99966   0.70582   0.97562   0.00000  Uiso   1.00
C1323  C     0.50034   0.70582   0.69105   0.00000  Uiso   1.00
C1324  C     0.50034   0.79418   0.97562   0.00000  Uiso   1.00
C1325  C     0.74966   0.54418   0.69105   0.00000  Uiso   1.00
C1326  C     0.74966   0.95582   0.97562   0.00000  Uiso   1.00
C1327  C     0.75034   0.95582   0.69105   0.00000  Uiso   1.00
C1328  C     0.75034   0.54418   0.97562   0.00000  Uiso   1.00
C1329  C     0.88725   0.64542   0.79097   0.00000  Uiso   1.00
C1330  C     0.61412   0.85358   0.87278   0.00000  Uiso   1.00
C1331  C     0.61274   0.85459   0.79097   0.00000  Uiso   1.00
C1332  C     0.93766   0.80655   0.83353   0.00000  Uiso   1.00
C1333  C     0.88588   0.64642   0.87278   0.00000  Uiso   1.00
C1334  C     0.61274   0.64541   0.87570   0.00000  Uiso   1.00
C1335  C     0.88587   0.85358   0.79389   0.00000  Uiso   1.00
C1336  C     0.88726   0.85459   0.87570   0.00000  Uiso   1.00
C1337  C     0.61412   0.64641   0.79389   0.00000  Uiso   1.00
C1338  C     0.63725   0.89541   0.79097   0.00000  Uiso   1.00
C1339  C     0.86412   0.60358   0.87278   0.00000  Uiso   1.00
C1340  C     0.86274   0.60459   0.79097   0.00000  Uiso   1.00
C1341  C     0.63588   0.89641   0.87278   0.00000  Uiso   1.00
C1342  C     0.86275   0.89541   0.87570   0.00000  Uiso   1.00
C1343  C     0.93766   0.69345   0.83314   0.00000  Uiso   1.00
C1344  C     0.63587   0.60358   0.79389   0.00000  Uiso   1.00
C1345  C     0.63725   0.60459   0.87570   0.00000  Uiso   1.00
C1346  C     0.86412   0.89642   0.79389   0.00000  Uiso   1.00
C1347  C     0.59842   0.83621   0.83220   0.00000  Uiso   1.00
C1348  C     0.90158   0.66379   0.83220   0.00000  Uiso   1.00
C1349  C     0.90158   0.83621   0.83447   0.00000  Uiso   1.00
C1350  C     0.59842   0.66379   0.83447   0.00000  Uiso   1.00
C1351  C     0.84842   0.58621   0.83220   0.00000  Uiso   1.00
C1352  C     0.65158   0.91379   0.83220   0.00000  Uiso   1.00
C1353  C     0.65158   0.58621   0.83447   0.00000  Uiso   1.00
C1354  C     0.56234   0.80655   0.83314   0.00000  Uiso   1.00
C1355  C     0.84842   0.91379   0.83447   0.00000  Uiso   1.00
C1356  C     0.81234   0.94345   0.83353   0.00000  Uiso   1.00
C1357  C     0.68766   0.55655   0.83353   0.00000  Uiso   1.00
C1358  C     0.68766   0.94345   0.83314   0.00000  Uiso   1.00
C1359  C     0.81234   0.55655   0.83314   0.00000  Uiso   1.00
C1360  C     0.99966   0.79418   0.69105   0.00000  Uiso   1.00
Cl1361 Cl    0.89524   0.67550   0.73893   0.00000  Uiso   1.00
Cl1362 Cl    0.86351   0.56823   0.92242   0.00000  Uiso   1.00
Cl1363 Cl    0.85475   0.57452   0.73893   0.00000  Uiso   1.00
Cl1364 Cl    0.63649   0.93176   0.92242   0.00000  Uiso   1.00
Cl1365 Cl    0.85476   0.92550   0.92774   0.00000  Uiso   1.00
Cl1366 Cl    0.63648   0.56823   0.74425   0.00000  Uiso   1.00
Cl1367 Cl    0.64524   0.57451   0.92774   0.00000  Uiso   1.00
Cl1368 Cl    0.86351   0.93177   0.74425   0.00000  Uiso   1.00
Cl1369 Cl    0.61351   0.81823   0.92242   0.00000  Uiso   1.00
Cl1370 Cl    0.60475   0.82451   0.73893   0.00000  Uiso   1.00
Cl1371 Cl    0.88649   0.68176   0.92242   0.00000  Uiso   1.00
Cl1372 Cl    0.60476   0.67549   0.92774   0.00000  Uiso   1.00
Cl1373 Cl    0.88649   0.81823   0.74425   0.00000  Uiso   1.00
Cl1374 Cl    0.89524   0.82451   0.92774   0.00000  Uiso   1.00
Cl1375 Cl    0.61351   0.68176   0.74424   0.00000  Uiso   1.00
Cl1376 Cl    0.64525   0.92549   0.73893   0.00000  Uiso   1.00
H1377  H     0.99329   0.89391   0.78216   0.00000  Uiso   1.00
H1378  H     0.99339   0.60606   0.88451   0.00000  Uiso   1.00
H1379  H     0.50666   0.60607   0.78216   0.00000  Uiso   1.00
H1380  H     0.50664   0.89394   0.88451   0.00000  Uiso   1.00
H1381  H     0.74320   0.64387   0.78218   0.00000  Uiso   1.00
H1382  H     0.74341   0.85605   0.88452   0.00000  Uiso   1.00
H1383  H     0.75666   0.85608   0.78216   0.00000  Uiso   1.00
H1384  H     0.75665   0.64393   0.88451   0.00000  Uiso   1.00
N1385  N     0.50000   0.75000   0.95240   0.00000  Uiso   1.00
N1386  N     0.50000   0.75000   0.71427   0.00000  Uiso   1.00
N1387  N     0.75000   0.50000   0.95240   0.00000  Uiso   1.00
N1388  N     0.75000   0.50000   0.71427   0.00000  Uiso   1.00
O1389  O     0.54580   0.70419   0.87154   0.00000  Uiso   1.00
O1390  O     0.70419   0.54581   0.79513   0.00000  Uiso   1.00
O1391  O     0.70419   0.54581   0.87154   0.00000  Uiso   1.00
O1392  O     0.79580   0.95419   0.79513   0.00000  Uiso   1.00
O1393  O     0.70419   0.95419   0.79513   0.00000  Uiso   1.00
O1394  O     0.79580   0.54581   0.87154   0.00000  Uiso   1.00
O1395  O     0.79580   0.54581   0.79513   0.00000  Uiso   1.00
O1396  O     0.70419   0.95419   0.87154   0.00000  Uiso   1.00
O1397  O     0.52678   0.88814   0.70259   0.00000  Uiso   1.00
O1398  O     0.95452   0.87369   0.70993   0.00000  Uiso   1.00
O1399  O     0.50051   0.85953   0.77553   0.00000  Uiso   1.00
O1400  O     0.95419   0.79581   0.79513   0.00000  Uiso   1.00
O1401  O     0.52679   0.61186   0.96408   0.00000  Uiso   1.00
O1402  O     0.95453   0.62630   0.95674   0.00000  Uiso   1.00
O1403  O     0.50051   0.64047   0.89113   0.00000  Uiso   1.00
O1404  O     0.97321   0.61186   0.70259   0.00000  Uiso   1.00
O1405  O     0.54547   0.62630   0.70993   0.00000  Uiso   1.00
O1406  O     0.99949   0.64047   0.77553   0.00000  Uiso   1.00
O1407  O     0.97321   0.88814   0.96408   0.00000  Uiso   1.00
O1408  O     0.54547   0.87370   0.95673   0.00000  Uiso   1.00
O1409  O     0.99949   0.85953   0.89113   0.00000  Uiso   1.00
O1410  O     0.77677   0.63815   0.70259   0.00000  Uiso   1.00
O1411  O     0.95419   0.79581   0.87154   0.00000  Uiso   1.00
O1412  O     0.70451   0.62369   0.70993   0.00000  Uiso   1.00
O1413  O     0.75051   0.60953   0.77553   0.00000  Uiso   1.00
O1414  O     0.77679   0.86187   0.96408   0.00000  Uiso   1.00
O1415  O     0.70453   0.87630   0.95674   0.00000  Uiso   1.00
O1416  O     0.75051   0.89047   0.89113   0.00000  Uiso   1.00
O1417  O     0.72321   0.86186   0.70259   0.00000  Uiso   1.00
O1418  O     0.79548   0.87630   0.70993   0.00000  Uiso   1.00
O1419  O     0.74949   0.89047   0.77553   0.00000  Uiso   1.00
O1420  O     0.72321   0.63814   0.96408   0.00000  Uiso   1.00
O1421  O     0.79547   0.62370   0.95674   0.00000  Uiso   1.00
O1422  O     0.54580   0.70419   0.79513   0.00000  Uiso   1.00
O1423  O     0.74949   0.60953   0.89113   0.00000  Uiso   1.00
O1424  O     0.95419   0.70419   0.79513   0.00000  Uiso   1.00
O1425  O     0.54580   0.79581   0.87154   0.00000  Uiso   1.00
O1426  O     0.54580   0.79581   0.79513   0.00000  Uiso   1.00
O1427  O     0.95419   0.70419   0.87154   0.00000  Uiso   1.00
O1428  O     0.79580   0.95419   0.87154   0.00000  Uiso   1.00
S1429  S     0.99561   0.85338   0.72018   0.00000  Uiso   1.00
S1430  S     0.99561   0.64662   0.94648   0.00000  Uiso   1.00
S1431  S     0.50439   0.64662   0.72018   0.00000  Uiso   1.00
S1432  S     0.50439   0.85338   0.94648   0.00000  Uiso   1.00
S1433  S     0.74561   0.60338   0.72018   0.00000  Uiso   1.00
S1434  S     0.74562   0.89662   0.94648   0.00000  Uiso   1.00
S1435  S     0.75439   0.89662   0.72018   0.00000  Uiso   1.00
S1436  S     0.75439   0.60338   0.94648   0.00000  Uiso   1.00
Zn1437 Zn    0.50000   0.75000   0.88437   0.00000  Uiso   1.00
Zn1438 Zn    0.50000   0.75000   0.78229   0.00000  Uiso   1.00
Zn1439 Zn    0.75000   0.50000   0.88437   0.00000  Uiso   1.00
Zn1440 Zn    0.75000   0.50000   0.78229   0.00000  Uiso   1.00
loop_
_geom_bond_atom_site_label_1
_geom_bond_atom_site_label_2
_geom_bond_distance
_geom_bond_site_symmetry_2
_ccdc_geom_bond_type
C1     O69     1.295   .     A
C1     C30     1.444   .     S
C1     O102    1.305   .     A
C2     S110    1.844   .     S
C2     C603    1.457   .     S
C2     N185    1.394   .     S
C3     S111    1.844   .     S
C3     N66     1.394   .     A
C3     C1082   1.457   1_454 S
C4     N65     1.394   .     A
C4     S112    1.844   .     S
C4     C640    1.457   1_455 S
C5     N68     1.394   .     A
C5     S113    1.844   .     S
C5     C968    1.457   1_554 S
C6     S114    1.844   .     S
C6     C487    1.457   .     S
C6     N307    1.394   .     S
C7     S115    1.844   .     S
C7     C966    1.457   1_554 S
C7     N308    1.394   .     S
C8     S116    1.844   .     S
C8     N67     1.394   .     A
C8     C485    1.457   .     S
C9     C20     1.381   .     A
C9     Cl41    1.779   .     S
C9     C28     1.413   .     A
C10    C27     1.402   .     A
C10    C21     1.376   .     A
C10    Cl49    1.771   .     S
C11    C18     1.381   .     A
C11    C27     1.413   .     A
C11    Cl50    1.779   .     S
C12    C29     1.444   .     S
C12    O91     1.295   .     A
C12    O80     1.305   .     A
C13    Cl51    1.771   .     S
C13    C28     1.402   .     A
C13    C19     1.376   .     A
C14    Cl52    1.779   .     S
C14    C30     1.413   .     A
C14    C25     1.381   .     A
C15    Cl53    1.771   .     S
C15    C29     1.402   .     A
C15    C26     1.376   .     A
C16    C29     1.413   .     A
C16    C22     1.381   .     A
C16    Cl54    1.779   .     S
C17    C30     1.402   .     A
C17    C24     1.376   .     A
C17    Cl55    1.771   .     S
C18    Cl56    1.779   .     S
C18    C32     1.413   .     A
C19    C31     1.402   .     A
C19    Cl42    1.771   .     S
C20    Cl43    1.779   .     S
C20    C31     1.413   .     A
C21    C32     1.402   .     A
C21    Cl44    1.771   .     S
C22    C35     1.413   .     A
C22    Cl45    1.779   .     S
C23    O104    1.294   .     A
C23    O107    1.305   .     A
C23    C28     1.444   .     S
C24    C33     1.402   .     A
C24    Cl46    1.771   .     S
C25    Cl47    1.779   .     S
C25    C33     1.413   .     A
C26    Cl48    1.771   .     S
C26    C35     1.402   .     A
C27    C34     1.444   .     S
C31    C39     1.444   .     S
C32    C38     1.444   .     S
C33    C37     1.444   .     S
C34    O106    1.294   .     A
C34    O105    1.305   .     A
C35    C36     1.444   .     S
C36    O108    1.295   .     A
C36    O72     1.305   .     A
C37    O70     1.305   .     A
C37    O71     1.295   .     A
C38    O76     1.305   .     A
C38    O73     1.295   .     A
C39    O74     1.305   .     A
C39    O75     1.295   .     A
C40    S109    1.844   .     S
C40    C1084   1.457   1_554 S
C40    N186    1.394   .     S
H57    O199    0.991   .     S
H58    O203    0.991   .     S
H59    O206    0.991   1_455 S
H60    O209    0.991   1_455 S
H61    O93     0.991   .     S
H62    O96     0.991   .     S
H63    O99     0.991   .     S
H64    O103    0.991   .     S
N65    Zn117   2.033   .     S
N65    C122    1.394   1_455 S
N66    Zn118   2.033   .     S
N66    C160    1.394   1_455 S
N67    Zn119   2.033   .     S
N67    C246    1.394   1_545 S
N68    Zn120   2.033   .     S
N68    C247    1.394   1_545 S
O69    Zn117   2.004   .     S
O70    Zn120   2.004   .     S
O71    Zn119   2.004   .     S
O72    Zn360   2.004   .     S
O73    Zn360   2.004   .     S
O74    Zn119   2.004   .     S
O75    Zn120   2.004   .     S
O76    Zn359   2.004   .     S
O77    S229    1.498   1_455 S
O78    S109    1.500   .     D
O79    H177    0.991   1_455 S
O79    S229    1.670   1_455 S
O80    Zn238   2.004   .     S
O81    S230    1.499   1_455 S
O82    S110    1.500   .     D
O83    H178    0.991   1_455 S
O83    S230    1.670   1_455 S
O84    S231    1.499   .     S
O85    S111    1.500   .     D
O86    H179    0.991   .     S
O86    S231    1.670   .     S
O87    S232    1.499   .     S
O88    S112    1.500   .     D
O89    H180    0.991   .     S
O89    S232    1.670   .     S
O90    S113    1.498   .     D
O91    Zn237   2.004   .     S
O92    S113    1.500   .     D
O93    S113    1.670   .     S
O94    S114    1.499   .     D
O95    S114    1.500   .     D
O96    S114    1.670   .     S
O97    S115    1.499   .     D
O98    S115    1.500   .     D
O99    S115    1.670   .     S
O100   S116    1.499   .     D
O101   S116    1.500   .     D
O102   Zn118   2.004   .     S
O103   S116    1.670   .     S
O104   Zn238   2.004   .     S
O105   Zn117   2.004   .     S
O106   Zn118   2.004   .     S
O107   Zn237   2.004   .     S
O108   Zn359   2.004   .     S
S109   O197    1.498   .     S
S109   O199    1.670   .     S
S110   O201    1.499   .     S
S110   O203    1.670   .     S
S111   O204    1.499   1_455 S
S111   O206    1.670   1_455 S
S112   O207    1.499   1_455 S
S112   O209    1.670   1_455 S
Zn117  O211    2.004   1_455 S
Zn117  O227    2.004   1_455 S
Zn118  O200    2.004   1_455 S
Zn118  O224    2.004   1_455 S
Zn119  O316    2.004   1_545 S
Zn119  O348    2.004   1_545 S
Zn120  O313    2.004   1_545 S
Zn120  O312    2.004   1_545 S
C121   O189    1.295   .     A
C121   C150    1.444   .     S
C121   O222    1.305   .     A
C122   S230    1.844   .     S
C122   C483    1.457   1_655 S
C122   N65     1.394   1_655 S
C123   S231    1.844   .     S
C123   N186    1.394   .     A
C123   C962    1.457   1_554 S
C124   N185    1.394   .     A
C124   S232    1.844   .     S
C124   C520    1.457   .     S
C125   N188    1.394   .     A
C125   S233    1.844   .     S
C125   C1088   1.457   1_554 S
C126   S234    1.844   .     S
C126   C607    1.457   .     S
C126   N427    1.394   .     S
C127   S235    1.844   .     S
C127   C1086   1.457   1_554 S
C127   N428    1.394   .     S
C128   S236    1.844   .     S
C128   N187    1.394   .     A
C128   C605    1.457   .     S
C129   C140    1.381   .     A
C129   Cl161   1.779   .     S
C129   C148    1.413   .     A
C130   C147    1.402   .     A
C130   C141    1.376   .     A
C130   Cl169   1.771   .     S
C131   C138    1.381   .     A
C131   C147    1.413   .     A
C131   Cl170   1.779   .     S
C132   C149    1.444   .     S
C132   O211    1.295   .     A
C132   O200    1.305   .     A
C133   Cl171   1.771   .     S
C133   C148    1.402   .     A
C133   C139    1.376   .     A
C134   Cl172   1.779   .     S
C134   C150    1.413   .     A
C134   C145    1.381   .     A
C135   Cl173   1.771   .     S
C135   C149    1.402   .     A
C135   C146    1.376   .     A
C136   C149    1.413   .     A
C136   C142    1.381   .     A
C136   Cl174   1.779   .     S
C137   C150    1.402   .     A
C137   C144    1.376   .     A
C137   Cl175   1.771   .     S
C138   Cl176   1.779   .     S
C138   C152    1.413   .     A
C139   C151    1.402   .     A
C139   Cl162   1.771   .     S
C140   Cl163   1.779   .     S
C140   C151    1.413   .     A
C141   C152    1.402   .     A
C141   Cl164   1.771   .     S
C142   C155    1.413   .     A
C142   Cl165   1.779   .     S
C143   O224    1.294   .     A
C143   O227    1.305   .     A
C143   C148    1.444   .     S
C144   C153    1.402   .     A
C144   Cl166   1.771   .     S
C145   Cl167   1.779   .     S
C145   C153    1.413   .     A
C146   Cl168   1.771   .     S
C146   C155    1.402   .     A
C147   C154    1.444   .     S
C151   C159    1.444   .     S
C152   C158    1.444   .     S
C153   C157    1.444   .     S
C154   O226    1.294   .     A
C154   O225    1.305   .     A
C155   C156    1.444   .     S
C156   O228    1.295   .     A
C156   O192    1.305   .     A
C157   O190    1.305   .     A
C157   O191    1.295   .     A
C158   O196    1.305   .     A
C158   O193    1.295   .     A
C159   O194    1.305   .     A
C159   O195    1.295   .     A
C160   S229    1.844   .     S
C160   C964    1.457   1_654 S
C160   N66     1.394   1_655 S
H177   O79     0.991   1_655 S
H178   O83     0.991   1_655 S
H181   O213    0.991   .     S
H182   O216    0.991   .     S
H183   O219    0.991   .     S
H184   O223    0.991   .     S
N185   Zn237   2.033   .     S
N186   Zn238   2.033   .     S
N187   Zn239   2.033   .     S
N187   C366    1.394   1_545 S
N188   Zn240   2.033   .     S
N188   C367    1.394   1_545 S
O189   Zn237   2.004   .     S
O190   Zn240   2.004   .     S
O191   Zn239   2.004   .     S
O192   Zn480   2.004   .     S
O193   Zn480   2.004   .     S
O194   Zn239   2.004   .     S
O195   Zn240   2.004   .     S
O196   Zn479   2.004   .     S
O198   S229    1.500   .     D
O200   Zn118   2.004   1_655 S
O202   S230    1.500   .     D
O204   S111    1.499   1_655 S
O205   S231    1.500   .     D
O206   H59     0.991   1_655 S
O206   S111    1.670   1_655 S
O207   S112    1.499   1_655 S
O208   S232    1.500   .     D
O209   H60     0.991   1_655 S
O209   S112    1.670   1_655 S
O210   S233    1.498   .     D
O211   Zn117   2.004   1_655 S
O212   S233    1.500   .     D
O213   S233    1.670   .     S
O214   S234    1.499   .     D
O215   S234    1.500   .     D
O216   S234    1.670   .     S
O217   S235    1.499   .     D
O218   S235    1.500   .     D
O219   S235    1.670   .     S
O220   S236    1.499   .     D
O221   S236    1.500   .     D
O222   Zn238   2.004   .     S
O223   S236    1.670   .     S
O224   Zn118   2.004   1_655 S
O225   Zn237   2.004   .     S
O226   Zn238   2.004   .     S
O227   Zn117   2.004   1_655 S
O228   Zn479   2.004   .     S
S229   O77     1.498   1_655 S
S229   O79     1.670   1_655 S
S230   O81     1.499   1_655 S
S230   O83     1.670   1_655 S
Zn239  O436    2.004   1_545 S
Zn239  O468    2.004   1_545 S
Zn240  O433    2.004   1_545 S
Zn240  O432    2.004   1_545 S
C241   O309    1.295   .     A
C241   C270    1.444   .     S
C241   O342    1.305   .     A
C242   S350    1.844   .     S
C242   C843    1.457   .     S
C242   N425    1.394   .     S
C243   S351    1.844   .     S
C243   N306    1.394   .     A
C243   C1322   1.457   1_454 S
C244   N305    1.394   .     A
C244   S352    1.844   .     S
C244   C880    1.457   1_455 S
C245   N308    1.394   .     A
C245   S353    1.844   .     S
C245   C1208   1.457   1_554 S
C246   S354    1.844   .     S
C246   C727    1.457   .     S
C246   N67     1.394   1_565 S
C247   S355    1.844   .     S
C247   C1206   1.457   1_554 S
C247   N68     1.394   1_565 S
C248   S356    1.844   .     S
C248   N307    1.394   .     A
C248   C725    1.457   .     S
C249   C260    1.381   .     A
C249   Cl281   1.779   .     S
C249   C268    1.413   .     A
C250   C267    1.402   .     A
C250   C261    1.376   .     A
C250   Cl289   1.771   .     S
C251   C258    1.381   .     A
C251   C267    1.413   .     A
C251   Cl290   1.779   .     S
C252   C269    1.444   .     S
C252   O331    1.295   .     A
C252   O320    1.305   .     A
C253   Cl291   1.771   .     S
C253   C268    1.402   .     A
C253   C259    1.376   .     A
C254   Cl292   1.779   .     S
C254   C270    1.413   .     A
C254   C265    1.381   .     A
C255   Cl293   1.771   .     S
C255   C269    1.402   .     A
C255   C266    1.376   .     A
C256   C269    1.413   .     A
C256   C262    1.381   .     A
C256   Cl294   1.779   .     S
C257   C270    1.402   .     A
C257   C264    1.376   .     A
C257   Cl295   1.771   .     S
C258   Cl296   1.779   .     S
C258   C272    1.413   .     A
C259   C271    1.402   .     A
C259   Cl282   1.771   .     S
C260   Cl283   1.779   .     S
C260   C271    1.413   .     A
C261   C272    1.402   .     A
C261   Cl284   1.771   .     S
C262   C275    1.413   .     A
C262   Cl285   1.779   .     S
C263   O344    1.294   .     A
C263   O347    1.305   .     A
C263   C268    1.444   .     S
C264   C273    1.402   .     A
C264   Cl286   1.771   .     S
C265   Cl287   1.779   .     S
C265   C273    1.413   .     A
C266   Cl288   1.771   .     S
C266   C275    1.402   .     A
C267   C274    1.444   .     S
C271   C279    1.444   .     S
C272   C278    1.444   .     S
C273   C277    1.444   .     S
C274   O346    1.294   .     A
C274   O345    1.305   .     A
C275   C276    1.444   .     S
C276   O348    1.295   .     A
C276   O312    1.305   .     A
C277   O310    1.305   .     A
C277   O311    1.295   .     A
C278   O316    1.305   .     A
C278   O313    1.295   .     A
C279   O314    1.305   .     A
C279   O315    1.295   .     A
C280   S349    1.844   .     S
C280   C1324   1.457   1_554 S
C280   N426    1.394   .     S
H297   O439    0.991   .     S
H298   O443    0.991   .     S
H299   O446    0.991   1_455 S
H300   O449    0.991   1_455 S
H301   O333    0.991   .     S
H302   O336    0.991   .     S
H303   O339    0.991   .     S
H304   O343    0.991   .     S
N305   Zn357   2.033   .     S
N305   C362    1.394   1_455 S
N306   Zn358   2.033   .     S
N306   C400    1.394   1_455 S
N307   Zn359   2.033   .     S
N308   Zn360   2.033   .     S
O309   Zn357   2.004   .     S
O310   Zn360   2.004   .     S
O311   Zn359   2.004   .     S
O312   Zn120   2.004   1_565 S
O313   Zn120   2.004   1_565 S
O314   Zn359   2.004   .     S
O315   Zn360   2.004   .     S
O316   Zn119   2.004   1_565 S
O317   S469    1.498   1_455 S
O318   S349    1.500   .     D
O319   H417    0.991   1_455 S
O319   S469    1.670   1_455 S
O320   Zn478   2.004   .     S
O321   S470    1.499   1_455 S
O322   S350    1.500   .     D
O323   H418    0.991   1_455 S
O323   S470    1.670   1_455 S
O324   S471    1.499   .     S
O325   S351    1.500   .     D
O326   H419    0.991   .     S
O326   S471    1.670   .     S
O327   S472    1.499   .     S
O328   S352    1.500   .     D
O329   H420    0.991   .     S
O329   S472    1.670   .     S
O330   S353    1.498   .     D
O331   Zn477   2.004   .     S
O332   S353    1.500   .     D
O333   S353    1.670   .     S
O334   S354    1.499   .     D
O335   S354    1.500   .     D
O336   S354    1.670   .     S
O337   S355    1.499   .     D
O338   S355    1.500   .     D
O339   S355    1.670   .     S
O340   S356    1.499   .     D
O341   S356    1.500   .     D
O342   Zn358   2.004   .     S
O343   S356    1.670   .     S
O344   Zn478   2.004   .     S
O345   Zn357   2.004   .     S
O346   Zn358   2.004   .     S
O347   Zn477   2.004   .     S
O348   Zn119   2.004   1_565 S
S349   O437    1.498   .     S
S349   O439    1.670   .     S
S350   O441    1.499   .     S
S350   O443    1.670   .     S
S351   O444    1.499   1_455 S
S351   O446    1.670   1_455 S
S352   O447    1.499   1_455 S
S352   O449    1.670   1_455 S
Zn357  O451    2.004   1_455 S
Zn357  O467    2.004   1_455 S
Zn358  O440    2.004   1_455 S
Zn358  O464    2.004   1_455 S
C361   O429    1.295   .     A
C361   C390    1.444   .     S
C361   O462    1.305   .     A
C362   S470    1.844   .     S
C362   C723    1.457   1_655 S
C362   N305    1.394   1_655 S
C363   S471    1.844   .     S
C363   N426    1.394   .     A
C363   C1202   1.457   1_554 S
C364   N425    1.394   .     A
C364   S472    1.844   .     S
C364   C760    1.457   .     S
C365   N428    1.394   .     A
C365   S473    1.844   .     S
C365   C1328   1.457   1_554 S
C366   S474    1.844   .     S
C366   C847    1.457   .     S
C366   N187    1.394   1_565 S
C367   S475    1.844   .     S
C367   C1326   1.457   1_554 S
C367   N188    1.394   1_565 S
C368   S476    1.844   .     S
C368   N427    1.394   .     A
C368   C845    1.457   .     S
C369   C380    1.381   .     A
C369   Cl401   1.779   .     S
C369   C388    1.413   .     A
C370   C387    1.402   .     A
C370   C381    1.376   .     A
C370   Cl409   1.771   .     S
C371   C378    1.381   .     A
C371   C387    1.413   .     A
C371   Cl410   1.779   .     S
C372   C389    1.444   .     S
C372   O451    1.295   .     A
C372   O440    1.305   .     A
C373   Cl411   1.771   .     S
C373   C388    1.402   .     A
C373   C379    1.376   .     A
C374   Cl412   1.779   .     S
C374   C390    1.413   .     A
C374   C385    1.381   .     A
C375   Cl413   1.771   .     S
C375   C389    1.402   .     A
C375   C386    1.376   .     A
C376   C389    1.413   .     A
C376   C382    1.381   .     A
C376   Cl414   1.779   .     S
C377   C390    1.402   .     A
C377   C384    1.376   .     A
C377   Cl415   1.771   .     S
C378   Cl416   1.779   .     S
C378   C392    1.413   .     A
C379   C391    1.402   .     A
C379   Cl402   1.771   .     S
C380   Cl403   1.779   .     S
C380   C391    1.413   .     A
C381   C392    1.402   .     A
C381   Cl404   1.771   .     S
C382   C395    1.413   .     A
C382   Cl405   1.779   .     S
C383   O464    1.294   .     A
C383   O467    1.305   .     A
C383   C388    1.444   .     S
C384   C393    1.402   .     A
C384   Cl406   1.771   .     S
C385   Cl407   1.779   .     S
C385   C393    1.413   .     A
C386   Cl408   1.771   .     S
C386   C395    1.402   .     A
C387   C394    1.444   .     S
C391   C399    1.444   .     S
C392   C398    1.444   .     S
C393   C397    1.444   .     S
C394   O466    1.294   .     A
C394   O465    1.305   .     A
C395   C396    1.444   .     S
C396   O468    1.295   .     A
C396   O432    1.305   .     A
C397   O430    1.305   .     A
C397   O431    1.295   .     A
C398   O436    1.305   .     A
C398   O433    1.295   .     A
C399   O434    1.305   .     A
C399   O435    1.295   .     A
C400   S469    1.844   .     S
C400   C1204   1.457   1_654 S
C400   N306    1.394   1_655 S
H417   O319    0.991   1_655 S
H418   O323    0.991   1_655 S
H421   O453    0.991   .     S
H422   O456    0.991   .     S
H423   O459    0.991   .     S
H424   O463    0.991   .     S
N425   Zn477   2.033   .     S
N426   Zn478   2.033   .     S
N427   Zn479   2.033   .     S
N428   Zn480   2.033   .     S
O429   Zn477   2.004   .     S
O430   Zn480   2.004   .     S
O431   Zn479   2.004   .     S
O432   Zn240   2.004   1_565 S
O433   Zn240   2.004   1_565 S
O434   Zn479   2.004   .     S
O435   Zn480   2.004   .     S
O436   Zn239   2.004   1_565 S
O438   S469    1.500   .     D
O440   Zn358   2.004   1_655 S
O442   S470    1.500   .     D
O444   S351    1.499   1_655 S
O445   S471    1.500   .     D
O446   H299    0.991   1_655 S
O446   S351    1.670   1_655 S
O447   S352    1.499   1_655 S
O448   S472    1.500   .     D
O449   H300    0.991   1_655 S
O449   S352    1.670   1_655 S
O450   S473    1.498   .     D
O451   Zn357   2.004   1_655 S
O452   S473    1.500   .     D
O453   S473    1.670   .     S
O454   S474    1.499   .     D
O455   S474    1.500   .     D
O456   S474    1.670   .     S
O457   S475    1.499   .     D
O458   S475    1.500   .     D
O459   S475    1.670   .     S
O460   S476    1.499   .     D
O461   S476    1.500   .     D
O462   Zn478   2.004   .     S
O463   S476    1.670   .     S
O464   Zn358   2.004   1_655 S
O465   Zn477   2.004   .     S
O466   Zn478   2.004   .     S
O467   Zn357   2.004   1_655 S
O468   Zn239   2.004   1_565 S
S469   O317    1.498   1_655 S
S469   O319    1.670   1_655 S
S470   O321    1.499   1_655 S
S470   O323    1.670   1_655 S
C481   O549    1.295   .     A
C481   C510    1.444   .     S
C481   O582    1.305   .     A
C482   S590    1.844   .     S
C482   C1083   1.457   .     S
C482   N665    1.394   .     S
C483   S591    1.844   .     S
C483   N546    1.394   .     A
C483   C122    1.457   1_455 S
C484   N545    1.394   .     A
C484   S592    1.844   .     S
C484   C1120   1.457   1_455 S
C485   N548    1.394   .     A
C485   S593    1.844   .     S
C486   S594    1.844   .     S
C486   C967    1.457   .     S
C486   N787    1.394   .     S
C487   S595    1.844   .     S
C487   N788    1.394   .     S
C488   S596    1.844   .     S
C488   N547    1.394   .     A
C488   C965    1.457   .     S
C489   C500    1.381   .     A
C489   Cl521   1.779   .     S
C489   C508    1.413   .     A
C490   C507    1.402   .     A
C490   C501    1.376   .     A
C490   Cl529   1.771   .     S
C491   C498    1.381   .     A
C491   C507    1.413   .     A
C491   Cl530   1.779   .     S
C492   C509    1.444   .     S
C492   O571    1.295   .     A
C492   O560    1.305   .     A
C493   Cl531   1.771   .     S
C493   C508    1.402   .     A
C493   C499    1.376   .     A
C494   Cl532   1.779   .     S
C494   C510    1.413   .     A
C494   C505    1.381   .     A
C495   Cl533   1.771   .     S
C495   C509    1.402   .     A
C495   C506    1.376   .     A
C496   C509    1.413   .     A
C496   C502    1.381   .     A
C496   Cl534   1.779   .     S
C497   C510    1.402   .     A
C497   C504    1.376   .     A
C497   Cl535   1.771   .     S
C498   Cl536   1.779   .     S
C498   C512    1.413   .     A
C499   C511    1.402   .     A
C499   Cl522   1.771   .     S
C500   Cl523   1.779   .     S
C500   C511    1.413   .     A
C501   C512    1.402   .     A
C501   Cl524   1.771   .     S
C502   C515    1.413   .     A
C502   Cl525   1.779   .     S
C503   O584    1.294   .     A
C503   O587    1.305   .     A
C503   C508    1.444   .     S
C504   C513    1.402   .     A
C504   Cl526   1.771   .     S
C505   Cl527   1.779   .     S
C505   C513    1.413   .     A
C506   Cl528   1.771   .     S
C506   C515    1.402   .     A
C507   C514    1.444   .     S
C511   C519    1.444   .     S
C512   C518    1.444   .     S
C513   C517    1.444   .     S
C514   O586    1.294   .     A
C514   O585    1.305   .     A
C515   C516    1.444   .     S
C516   O588    1.295   .     A
C516   O552    1.305   .     A
C517   O550    1.305   .     A
C517   O551    1.295   .     A
C518   O556    1.305   .     A
C518   O553    1.295   .     A
C519   O554    1.305   .     A
C519   O555    1.295   .     A
C520   S589    1.844   .     S
C520   N666    1.394   .     S
H537   O679    0.991   .     S
H538   O683    0.991   .     S
H539   O686    0.991   1_455 S
H540   O689    0.991   1_455 S
H541   O573    0.991   .     S
H542   O576    0.991   .     S
H543   O579    0.991   .     S
H544   O583    0.991   .     S
N545   Zn597   2.033   .     S
N545   C602    1.394   1_455 S
N546   Zn598   2.033   .     S
N546   C640    1.394   1_455 S
N547   Zn599   2.033   .     S
N547   C726    1.394   1_545 S
N548   Zn600   2.033   .     S
N548   C727    1.394   1_545 S
O549   Zn597   2.004   .     S
O550   Zn600   2.004   .     S
O551   Zn599   2.004   .     S
O552   Zn840   2.004   .     S
O553   Zn840   2.004   .     S
O554   Zn599   2.004   .     S
O555   Zn600   2.004   .     S
O556   Zn839   2.004   .     S
O557   S709    1.498   1_455 S
O558   S589    1.500   .     D
O559   H657    0.991   1_455 S
O559   S709    1.670   1_455 S
O560   Zn718   2.004   .     S
O561   S710    1.499   1_455 S
O562   S590    1.500   .     D
O563   H658    0.991   1_455 S
O563   S710    1.670   1_455 S
O564   S711    1.499   .     S
O565   S591    1.500   .     D
O566   H659    0.991   .     S
O566   S711    1.670   .     S
O567   S712    1.499   .     S
O568   S592    1.500   .     D
O569   H660    0.991   .     S
O569   S712    1.670   .     S
O570   S593    1.498   .     D
O571   Zn717   2.004   .     S
O572   S593    1.500   .     D
O573   S593    1.670   .     S
O574   S594    1.499   .     D
O575   S594    1.500   .     D
O576   S594    1.670   .     S
O577   S595    1.499   .     D
O578   S595    1.500   .     D
O579   S595    1.670   .     S
O580   S596    1.499   .     D
O581   S596    1.500   .     D
O582   Zn598   2.004   .     S
O583   S596    1.670   .     S
O584   Zn718   2.004   .     S
O585   Zn597   2.004   .     S
O586   Zn598   2.004   .     S
O587   Zn717   2.004   .     S
O588   Zn839   2.004   .     S
S589   O677    1.498   .     S
S589   O679    1.670   .     S
S590   O681    1.499   .     S
S590   O683    1.670   .     S
S591   O684    1.499   1_455 S
S591   O686    1.670   1_455 S
S592   O687    1.499   1_455 S
S592   O689    1.670   1_455 S
Zn597  O691    2.004   1_455 S
Zn597  O707    2.004   1_455 S
Zn598  O680    2.004   1_455 S
Zn598  O704    2.004   1_455 S
Zn599  O796    2.004   1_545 S
Zn599  O828    2.004   1_545 S
Zn600  O793    2.004   1_545 S
Zn600  O792    2.004   1_545 S
C601   O669    1.295   .     A
C601   C630    1.444   .     S
C601   O702    1.305   .     A
C602   S710    1.844   .     S
C602   C963    1.457   1_655 S
C602   N545    1.394   1_655 S
C603   S711    1.844   .     S
C603   N666    1.394   .     A
C604   N665    1.394   .     A
C604   S712    1.844   .     S
C604   C1000   1.457   .     S
C605   N668    1.394   .     A
C605   S713    1.844   .     S
C606   S714    1.844   .     S
C606   C1087   1.457   .     S
C606   N907    1.394   .     S
C607   S715    1.844   .     S
C607   N908    1.394   .     S
C608   S716    1.844   .     S
C608   N667    1.394   .     A
C608   C1085   1.457   .     S
C609   C620    1.381   .     A
C609   Cl641   1.779   .     S
C609   C628    1.413   .     A
C610   C627    1.402   .     A
C610   C621    1.376   .     A
C610   Cl649   1.771   .     S
C611   C618    1.381   .     A
C611   C627    1.413   .     A
C611   Cl650   1.779   .     S
C612   C629    1.444   .     S
C612   O691    1.295   .     A
C612   O680    1.305   .     A
C613   Cl651   1.771   .     S
C613   C628    1.402   .     A
C613   C619    1.376   .     A
C614   Cl652   1.779   .     S
C614   C630    1.413   .     A
C614   C625    1.381   .     A
C615   Cl653   1.771   .     S
C615   C629    1.402   .     A
C615   C626    1.376   .     A
C616   C629    1.413   .     A
C616   C622    1.381   .     A
C616   Cl654   1.779   .     S
C617   C630    1.402   .     A
C617   C624    1.376   .     A
C617   Cl655   1.771   .     S
C618   Cl656   1.779   .     S
C618   C632    1.413   .     A
C619   C631    1.402   .     A
C619   Cl642   1.771   .     S
C620   Cl643   1.779   .     S
C620   C631    1.413   .     A
C621   C632    1.402   .     A
C621   Cl644   1.771   .     S
C622   C635    1.413   .     A
C622   Cl645   1.779   .     S
C623   O704    1.294   .     A
C623   O707    1.305   .     A
C623   C628    1.444   .     S
C624   C633    1.402   .     A
C624   Cl646   1.771   .     S
C625   Cl647   1.779   .     S
C625   C633    1.413   .     A
C626   Cl648   1.771   .     S
C626   C635    1.402   .     A
C627   C634    1.444   .     S
C631   C639    1.444   .     S
C632   C638    1.444   .     S
C633   C637    1.444   .     S
C634   O706    1.294   .     A
C634   O705    1.305   .     A
C635   C636    1.444   .     S
C636   O708    1.295   .     A
C636   O672    1.305   .     A
C637   O670    1.305   .     A
C637   O671    1.295   .     A
C638   O676    1.305   .     A
C638   O673    1.295   .     A
C639   O674    1.305   .     A
C639   O675    1.295   .     A
C640   S709    1.844   .     S
C640   C4      1.457   1_655 S
C640   N546    1.394   1_655 S
H657   O559    0.991   1_655 S
H658   O563    0.991   1_655 S
H661   O693    0.991   .     S
H662   O696    0.991   .     S
H663   O699    0.991   .     S
H664   O703    0.991   .     S
N665   Zn717   2.033   .     S
N666   Zn718   2.033   .     S
N667   Zn719   2.033   .     S
N667   C846    1.394   1_545 S
N668   Zn720   2.033   .     S
N668   C847    1.394   1_545 S
O669   Zn717   2.004   .     S
O670   Zn720   2.004   .     S
O671   Zn719   2.004   .     S
O672   Zn960   2.004   .     S
O673   Zn960   2.004   .     S
O674   Zn719   2.004   .     S
O675   Zn720   2.004   .     S
O676   Zn959   2.004   .     S
O678   S709    1.500   .     D
O680   Zn598   2.004   1_655 S
O682   S710    1.500   .     D
O684   S591    1.499   1_655 S
O685   S711    1.500   .     D
O686   H539    0.991   1_655 S
O686   S591    1.670   1_655 S
O687   S592    1.499   1_655 S
O688   S712    1.500   .     D
O689   H540    0.991   1_655 S
O689   S592    1.670   1_655 S
O690   S713    1.498   .     D
O691   Zn597   2.004   1_655 S
O692   S713    1.500   .     D
O693   S713    1.670   .     S
O694   S714    1.499   .     D
O695   S714    1.500   .     D
O696   S714    1.670   .     S
O697   S715    1.499   .     D
O698   S715    1.500   .     D
O699   S715    1.670   .     S
O700   S716    1.499   .     D
O701   S716    1.500   .     D
O702   Zn718   2.004   .     S
O703   S716    1.670   .     S
O704   Zn598   2.004   1_655 S
O705   Zn717   2.004   .     S
O706   Zn718   2.004   .     S
O707   Zn597   2.004   1_655 S
O708   Zn959   2.004   .     S
S709   O557    1.498   1_655 S
S709   O559    1.670   1_655 S
S710   O561    1.499   1_655 S
S710   O563    1.670   1_655 S
Zn719  O916    2.004   1_545 S
Zn719  O948    2.004   1_545 S
Zn720  O913    2.004   1_545 S
Zn720  O912    2.004   1_545 S
C721   O789    1.295   .     A
C721   C750    1.444   .     S
C721   O822    1.305   .     A
C722   S830    1.844   .     S
C722   C1323   1.457   .     S
C722   N905    1.394   .     S
C723   S831    1.844   .     S
C723   N786    1.394   .     A
C723   C362    1.457   1_455 S
C724   N785    1.394   .     A
C724   S832    1.844   .     S
C724   C1360   1.457   1_455 S
C725   N788    1.394   .     A
C725   S833    1.844   .     S
C726   S834    1.844   .     S
C726   C1207   1.457   .     S
C726   N547    1.394   1_565 S
C727   S835    1.844   .     S
C727   N548    1.394   1_565 S
C728   S836    1.844   .     S
C728   N787    1.394   .     A
C728   C1205   1.457   .     S
C729   C740    1.381   .     A
C729   Cl761   1.779   .     S
C729   C748    1.413   .     A
C730   C747    1.402   .     A
C730   C741    1.376   .     A
C730   Cl769   1.771   .     S
C731   C738    1.381   .     A
C731   C747    1.413   .     A
C731   Cl770   1.779   .     S
C732   C749    1.444   .     S
C732   O811    1.295   .     A
C732   O800    1.305   .     A
C733   Cl771   1.771   .     S
C733   C748    1.402   .     A
C733   C739    1.376   .     A
C734   Cl772   1.779   .     S
C734   C750    1.413   .     A
C734   C745    1.381   .     A
C735   Cl773   1.771   .     S
C735   C749    1.402   .     A
C735   C746    1.376   .     A
C736   C749    1.413   .     A
C736   C742    1.381   .     A
C736   Cl774   1.779   .     S
C737   C750    1.402   .     A
C737   C744    1.376   .     A
C737   Cl775   1.771   .     S
C738   Cl776   1.779   .     S
C738   C752    1.413   .     A
C739   C751    1.402   .     A
C739   Cl762   1.771   .     S
C740   Cl763   1.779   .     S
C740   C751    1.413   .     A
C741   C752    1.402   .     A
C741   Cl764   1.771   .     S
C742   C755    1.413   .     A
C742   Cl765   1.779   .     S
C743   O824    1.294   .     A
C743   O827    1.305   .     A
C743   C748    1.444   .     S
C744   C753    1.402   .     A
C744   Cl766   1.771   .     S
C745   Cl767   1.779   .     S
C745   C753    1.413   .     A
C746   Cl768   1.771   .     S
C746   C755    1.402   .     A
C747   C754    1.444   .     S
C751   C759    1.444   .     S
C752   C758    1.444   .     S
C753   C757    1.444   .     S
C754   O826    1.294   .     A
C754   O825    1.305   .     A
C755   C756    1.444   .     S
C756   O828    1.295   .     A
C756   O792    1.305   .     A
C757   O790    1.305   .     A
C757   O791    1.295   .     A
C758   O796    1.305   .     A
C758   O793    1.295   .     A
C759   O794    1.305   .     A
C759   O795    1.295   .     A
C760   S829    1.844   .     S
C760   N906    1.394   .     S
H777   O919    0.991   .     S
H778   O923    0.991   .     S
H779   O926    0.991   1_455 S
H780   O929    0.991   1_455 S
H781   O813    0.991   .     S
H782   O816    0.991   .     S
H783   O819    0.991   .     S
H784   O823    0.991   .     S
N785   Zn837   2.033   .     S
N785   C842    1.394   1_455 S
N786   Zn838   2.033   .     S
N786   C880    1.394   1_455 S
N787   Zn839   2.033   .     S
N788   Zn840   2.033   .     S
O789   Zn837   2.004   .     S
O790   Zn840   2.004   .     S
O791   Zn839   2.004   .     S
O792   Zn600   2.004   1_565 S
O793   Zn600   2.004   1_565 S
O794   Zn839   2.004   .     S
O795   Zn840   2.004   .     S
O796   Zn599   2.004   1_565 S
O797   S949    1.498   1_455 S
O798   S829    1.500   .     D
O799   H897    0.991   1_455 S
O799   S949    1.670   1_455 S
O800   Zn958   2.004   .     S
O801   S950    1.499   1_455 S
O802   S830    1.500   .     D
O803   H898    0.991   1_455 S
O803   S950    1.670   1_455 S
O804   S951    1.499   .     S
O805   S831    1.500   .     D
O806   H899    0.991   .     S
O806   S951    1.670   .     S
O807   S952    1.499   .     S
O808   S832    1.500   .     D
O809   H900    0.991   .     S
O809   S952    1.670   .     S
O810   S833    1.498   .     D
O811   Zn957   2.004   .     S
O812   S833    1.500   .     D
O813   S833    1.670   .     S
O814   S834    1.499   .     D
O815   S834    1.500   .     D
O816   S834    1.670   .     S
O817   S835    1.499   .     D
O818   S835    1.500   .     D
O819   S835    1.670   .     S
O820   S836    1.499   .     D
O821   S836    1.500   .     D
O822   Zn838   2.004   .     S
O823   S836    1.670   .     S
O824   Zn958   2.004   .     S
O825   Zn837   2.004   .     S
O826   Zn838   2.004   .     S
O827   Zn957   2.004   .     S
O828   Zn599   2.004   1_565 S
S829   O917    1.498   .     S
S829   O919    1.670   .     S
S830   O921    1.499   .     S
S830   O923    1.670   .     S
S831   O924    1.499   1_455 S
S831   O926    1.670   1_455 S
S832   O927    1.499   1_455 S
S832   O929    1.670   1_455 S
Zn837  O931    2.004   1_455 S
Zn837  O947    2.004   1_455 S
Zn838  O920    2.004   1_455 S
Zn838  O944    2.004   1_455 S
C841   O909    1.295   .     A
C841   C870    1.444   .     S
C841   O942    1.305   .     A
C842   S950    1.844   .     S
C842   C1203   1.457   1_655 S
C842   N785    1.394   1_655 S
C843   S951    1.844   .     S
C843   N906    1.394   .     A
C844   N905    1.394   .     A
C844   S952    1.844   .     S
C844   C1240   1.457   .     S
C845   N908    1.394   .     A
C845   S953    1.844   .     S
C846   S954    1.844   .     S
C846   C1327   1.457   .     S
C846   N667    1.394   1_565 S
C847   S955    1.844   .     S
C847   N668    1.394   1_565 S
C848   S956    1.844   .     S
C848   N907    1.394   .     A
C848   C1325   1.457   .     S
C849   C860    1.381   .     A
C849   Cl881   1.779   .     S
C849   C868    1.413   .     A
C850   C867    1.402   .     A
C850   C861    1.376   .     A
C850   Cl889   1.771   .     S
C851   C858    1.381   .     A
C851   C867    1.413   .     A
C851   Cl890   1.779   .     S
C852   C869    1.444   .     S
C852   O931    1.295   .     A
C852   O920    1.305   .     A
C853   Cl891   1.771   .     S
C853   C868    1.402   .     A
C853   C859    1.376   .     A
C854   Cl892   1.779   .     S
C854   C870    1.413   .     A
C854   C865    1.381   .     A
C855   Cl893   1.771   .     S
C855   C869    1.402   .     A
C855   C866    1.376   .     A
C856   C869    1.413   .     A
C856   C862    1.381   .     A
C856   Cl894   1.779   .     S
C857   C870    1.402   .     A
C857   C864    1.376   .     A
C857   Cl895   1.771   .     S
C858   Cl896   1.779   .     S
C858   C872    1.413   .     A
C859   C871    1.402   .     A
C859   Cl882   1.771   .     S
C860   Cl883   1.779   .     S
C860   C871    1.413   .     A
C861   C872    1.402   .     A
C861   Cl884   1.771   .     S
C862   C875    1.413   .     A
C862   Cl885   1.779   .     S
C863   O944    1.294   .     A
C863   O947    1.305   .     A
C863   C868    1.444   .     S
C864   C873    1.402   .     A
C864   Cl886   1.771   .     S
C865   Cl887   1.779   .     S
C865   C873    1.413   .     A
C866   Cl888   1.771   .     S
C866   C875    1.402   .     A
C867   C874    1.444   .     S
C871   C879    1.444   .     S
C872   C878    1.444   .     S
C873   C877    1.444   .     S
C874   O946    1.294   .     A
C874   O945    1.305   .     A
C875   C876    1.444   .     S
C876   O948    1.295   .     A
C876   O912    1.305   .     A
C877   O910    1.305   .     A
C877   O911    1.295   .     A
C878   O916    1.305   .     A
C878   O913    1.295   .     A
C879   O914    1.305   .     A
C879   O915    1.295   .     A
C880   S949    1.844   .     S
C880   C244    1.457   1_655 S
C880   N786    1.394   1_655 S
H897   O799    0.991   1_655 S
H898   O803    0.991   1_655 S
H901   O933    0.991   .     S
H902   O936    0.991   .     S
H903   O939    0.991   .     S
H904   O943    0.991   .     S
N905   Zn957   2.033   .     S
N906   Zn958   2.033   .     S
N907   Zn959   2.033   .     S
N908   Zn960   2.033   .     S
O909   Zn957   2.004   .     S
O910   Zn960   2.004   .     S
O911   Zn959   2.004   .     S
O912   Zn720   2.004   1_565 S
O913   Zn720   2.004   1_565 S
O914   Zn959   2.004   .     S
O915   Zn960   2.004   .     S
O916   Zn719   2.004   1_565 S
O918   S949    1.500   .     D
O920   Zn838   2.004   1_655 S
O922   S950    1.500   .     D
O924   S831    1.499   1_655 S
O925   S951    1.500   .     D
O926   H779    0.991   1_655 S
O926   S831    1.670   1_655 S
O927   S832    1.499   1_655 S
O928   S952    1.500   .     D
O929   H780    0.991   1_655 S
O929   S832    1.670   1_655 S
O930   S953    1.498   .     D
O931   Zn837   2.004   1_655 S
O932   S953    1.500   .     D
O933   S953    1.670   .     S
O934   S954    1.499   .     D
O935   S954    1.500   .     D
O936   S954    1.670   .     S
O937   S955    1.499   .     D
O938   S955    1.500   .     D
O939   S955    1.670   .     S
O940   S956    1.499   .     D
O941   S956    1.500   .     D
O942   Zn958   2.004   .     S
O943   S956    1.670   .     S
O944   Zn838   2.004   1_655 S
O945   Zn957   2.004   .     S
O946   Zn958   2.004   .     S
O947   Zn837   2.004   1_655 S
O948   Zn719   2.004   1_565 S
S949   O797    1.498   1_655 S
S949   O799    1.670   1_655 S
S950   O801    1.499   1_655 S
S950   O803    1.670   1_655 S
C961   O1029   1.295   .     A
C961   C990    1.444   .     S
C961   O1062   1.305   .     A
C962   S1070   1.844   .     S
C962   C123    1.457   1_556 S
C962   N1145   1.394   .     S
C963   S1071   1.844   .     S
C963   N1026   1.394   .     A
C963   C602    1.457   1_455 S
C964   N1025   1.394   .     A
C964   S1072   1.844   .     S
C964   C160    1.457   1_456 S
C965   N1028   1.394   .     A
C965   S1073   1.844   .     S
C966   S1074   1.844   .     S
C966   C7      1.457   1_556 S
C966   N1267   1.394   .     S
C967   S1075   1.844   .     S
C967   N1268   1.394   .     S
C968   S1076   1.844   .     S
C968   N1027   1.394   .     A
C968   C5      1.457   1_556 S
C969   C980    1.381   .     A
C969   Cl1001  1.779   .     S
C969   C988    1.413   .     A
C970   C987    1.402   .     A
C970   C981    1.376   .     A
C970   Cl1009  1.771   .     S
C971   C978    1.381   .     A
C971   C987    1.413   .     A
C971   Cl1010  1.779   .     S
C972   C989    1.444   .     S
C972   O1051   1.295   .     A
C972   O1040   1.305   .     A
C973   Cl1011  1.771   .     S
C973   C988    1.402   .     A
C973   C979    1.376   .     A
C974   Cl1012  1.779   .     S
C974   C990    1.413   .     A
C974   C985    1.381   .     A
C975   Cl1013  1.771   .     S
C975   C989    1.402   .     A
C975   C986    1.376   .     A
C976   C989    1.413   .     A
C976   C982    1.381   .     A
C976   Cl1014  1.779   .     S
C977   C990    1.402   .     A
C977   C984    1.376   .     A
C977   Cl1015  1.771   .     S
C978   Cl1016  1.779   .     S
C978   C992    1.413   .     A
C979   C991    1.402   .     A
C979   Cl1002  1.771   .     S
C980   Cl1003  1.779   .     S
C980   C991    1.413   .     A
C981   C992    1.402   .     A
C981   Cl1004  1.771   .     S
C982   C995    1.413   .     A
C982   Cl1005  1.779   .     S
C983   O1064   1.294   .     A
C983   O1067   1.305   .     A
C983   C988    1.444   .     S
C984   C993    1.402   .     A
C984   Cl1006  1.771   .     S
C985   Cl1007  1.779   .     S
C985   C993    1.413   .     A
C986   Cl1008  1.771   .     S
C986   C995    1.402   .     A
C987   C994    1.444   .     S
C991   C999    1.444   .     S
C992   C998    1.444   .     S
C993   C997    1.444   .     S
C994   O1066   1.294   .     A
C994   O1065   1.305   .     A
C995   C996    1.444   .     S
C996   O1068   1.295   .     A
C996   O1032   1.305   .     A
C997   O1030   1.305   .     A
C997   O1031   1.295   .     A
C998   O1036   1.305   .     A
C998   O1033   1.295   .     A
C999   O1034   1.305   .     A
C999   O1035   1.295   .     A
C1000  S1069   1.844   .     S
C1000  N1146   1.394   .     S
H1017  O1159   0.991   .     S
H1018  O1163   0.991   .     S
H1019  O1166   0.991   1_455 S
H1020  O1169   0.991   1_455 S
H1021  O1053   0.991   .     S
H1022  O1056   0.991   .     S
H1023  O1059   0.991   .     S
H1024  O1063   0.991   .     S
N1025  Zn1077  2.033   .     S
N1025  C1082   1.394   1_455 S
N1026  Zn1078  2.033   .     S
N1026  C1120   1.394   1_455 S
N1027  Zn1079  2.033   .     S
N1027  C1206   1.394   1_545 S
N1028  Zn1080  2.033   .     S
N1028  C1207   1.394   1_545 S
O1029  Zn1077  2.004   .     S
O1030  Zn1080  2.004   .     S
O1031  Zn1079  2.004   .     S
O1032  Zn1320  2.004   .     S
O1033  Zn1320  2.004   .     S
O1034  Zn1079  2.004   .     S
O1035  Zn1080  2.004   .     S
O1036  Zn1319  2.004   .     S
O1037  S1189   1.498   1_455 S
O1038  S1069   1.500   .     D
O1039  H1137   0.991   1_455 S
O1039  S1189   1.670   1_455 S
O1040  Zn1198  2.004   .     S
O1041  S1190   1.499   1_455 S
O1042  S1070   1.500   .     D
O1043  H1138   0.991   1_455 S
O1043  S1190   1.670   1_455 S
O1044  S1191   1.499   .     S
O1045  S1071   1.500   .     D
O1046  H1139   0.991   .     S
O1046  S1191   1.670   .     S
O1047  S1192   1.499   .     S
O1048  S1072   1.500   .     D
O1049  H1140   0.991   .     S
O1049  S1192   1.670   .     S
O1050  S1073   1.498   .     D
O1051  Zn1197  2.004   .     S
O1052  S1073   1.500   .     D
O1053  S1073   1.670   .     S
O1054  S1074   1.499   .     D
O1055  S1074   1.500   .     D
O1056  S1074   1.670   .     S
O1057  S1075   1.499   .     D
O1058  S1075   1.500   .     D
O1059  S1075   1.670   .     S
O1060  S1076   1.499   .     D
O1061  S1076   1.500   .     D
O1062  Zn1078  2.004   .     S
O1063  S1076   1.670   .     S
O1064  Zn1198  2.004   .     S
O1065  Zn1077  2.004   .     S
O1066  Zn1078  2.004   .     S
O1067  Zn1197  2.004   .     S
O1068  Zn1319  2.004   .     S
S1069  O1157   1.498   .     S
S1069  O1159   1.670   .     S
S1070  O1161   1.499   .     S
S1070  O1163   1.670   .     S
S1071  O1164   1.499   1_455 S
S1071  O1166   1.670   1_455 S
S1072  O1167   1.499   1_455 S
S1072  O1169   1.670   1_455 S
Zn1077 O1171   2.004   1_455 S
Zn1077 O1187   2.004   1_455 S
Zn1078 O1160   2.004   1_455 S
Zn1078 O1184   2.004   1_455 S
Zn1079 O1276   2.004   1_545 S
Zn1079 O1308   2.004   1_545 S
Zn1080 O1273   2.004   1_545 S
Zn1080 O1272   2.004   1_545 S
C1081  O1149   1.295   .     A
C1081  C1110   1.444   .     S
C1081  O1182   1.305   .     A
C1082  S1190   1.844   .     S
C1082  C3      1.457   1_656 S
C1082  N1025   1.394   1_655 S
C1083  S1191   1.844   .     S
C1083  N1146   1.394   .     A
C1084  N1145   1.394   .     A
C1084  S1192   1.844   .     S
C1084  C40     1.457   1_556 S
C1085  N1148   1.394   .     A
C1085  S1193   1.844   .     S
C1086  S1194   1.844   .     S
C1086  C127    1.457   1_556 S
C1086  N1387   1.394   .     S
C1087  S1195   1.844   .     S
C1087  N1388   1.394   .     S
C1088  S1196   1.844   .     S
C1088  N1147   1.394   .     A
C1088  C125    1.457   1_556 S
C1089  C1100   1.381   .     A
C1089  Cl1121  1.779   .     S
C1089  C1108   1.413   .     A
C1090  C1107   1.402   .     A
C1090  C1101   1.376   .     A
C1090  Cl1129  1.771   .     S
C1091  C1098   1.381   .     A
C1091  C1107   1.413   .     A
C1091  Cl1130  1.779   .     S
C1092  C1109   1.444   .     S
C1092  O1171   1.295   .     A
C1092  O1160   1.305   .     A
C1093  Cl1131  1.771   .     S
C1093  C1108   1.402   .     A
C1093  C1099   1.376   .     A
C1094  Cl1132  1.779   .     S
C1094  C1110   1.413   .     A
C1094  C1105   1.381   .     A
C1095  Cl1133  1.771   .     S
C1095  C1109   1.402   .     A
C1095  C1106   1.376   .     A
C1096  C1109   1.413   .     A
C1096  C1102   1.381   .     A
C1096  Cl1134  1.779   .     S
C1097  C1110   1.402   .     A
C1097  C1104   1.376   .     A
C1097  Cl1135  1.771   .     S
C1098  Cl1136  1.779   .     S
C1098  C1112   1.413   .     A
C1099  C1111   1.402   .     A
C1099  Cl1122  1.771   .     S
C1100  Cl1123  1.779   .     S
C1100  C1111   1.413   .     A
C1101  C1112   1.402   .     A
C1101  Cl1124  1.771   .     S
C1102  C1115   1.413   .     A
C1102  Cl1125  1.779   .     S
C1103  O1184   1.294   .     A
C1103  O1187   1.305   .     A
C1103  C1108   1.444   .     S
C1104  C1113   1.402   .     A
C1104  Cl1126  1.771   .     S
C1105  Cl1127  1.779   .     S
C1105  C1113   1.413   .     A
C1106  Cl1128  1.771   .     S
C1106  C1115   1.402   .     A
C1107  C1114   1.444   .     S
C1111  C1119   1.444   .     S
C1112  C1118   1.444   .     S
C1113  C1117   1.444   .     S
C1114  O1186   1.294   .     A
C1114  O1185   1.305   .     A
C1115  C1116   1.444   .     S
C1116  O1188   1.295   .     A
C1116  O1152   1.305   .     A
C1117  O1150   1.305   .     A
C1117  O1151   1.295   .     A
C1118  O1156   1.305   .     A
C1118  O1153   1.295   .     A
C1119  O1154   1.305   .     A
C1119  O1155   1.295   .     A
C1120  S1189   1.844   .     S
C1120  C484    1.457   1_655 S
C1120  N1026   1.394   1_655 S
H1137  O1039   0.991   1_655 S
H1138  O1043   0.991   1_655 S
H1141  O1173   0.991   .     S
H1142  O1176   0.991   .     S
H1143  O1179   0.991   .     S
H1144  O1183   0.991   .     S
N1145  Zn1197  2.033   .     S
N1146  Zn1198  2.033   .     S
N1147  Zn1199  2.033   .     S
N1147  C1326   1.394   1_545 S
N1148  Zn1200  2.033   .     S
N1148  C1327   1.394   1_545 S
O1149  Zn1197  2.004   .     S
O1150  Zn1200  2.004   .     S
O1151  Zn1199  2.004   .     S
O1152  Zn1440  2.004   .     S
O1153  Zn1440  2.004   .     S
O1154  Zn1199  2.004   .     S
O1155  Zn1200  2.004   .     S
O1156  Zn1439  2.004   .     S
O1158  S1189   1.500   .     D
O1160  Zn1078  2.004   1_655 S
O1162  S1190   1.500   .     D
O1164  S1071   1.499   1_655 S
O1165  S1191   1.500   .     D
O1166  H1019   0.991   1_655 S
O1166  S1071   1.670   1_655 S
O1167  S1072   1.499   1_655 S
O1168  S1192   1.500   .     D
O1169  H1020   0.991   1_655 S
O1169  S1072   1.670   1_655 S
O1170  S1193   1.498   .     D
O1171  Zn1077  2.004   1_655 S
O1172  S1193   1.500   .     D
O1173  S1193   1.670   .     S
O1174  S1194   1.499   .     D
O1175  S1194   1.500   .     D
O1176  S1194   1.670   .     S
O1177  S1195   1.499   .     D
O1178  S1195   1.500   .     D
O1179  S1195   1.670   .     S
O1180  S1196   1.499   .     D
O1181  S1196   1.500   .     D
O1182  Zn1198  2.004   .     S
O1183  S1196   1.670   .     S
O1184  Zn1078  2.004   1_655 S
O1185  Zn1197  2.004   .     S
O1186  Zn1198  2.004   .     S
O1187  Zn1077  2.004   1_655 S
O1188  Zn1439  2.004   .     S
S1189  O1037   1.498   1_655 S
S1189  O1039   1.670   1_655 S
S1190  O1041   1.499   1_655 S
S1190  O1043   1.670   1_655 S
Zn1199 O1396   2.004   1_545 S
Zn1199 O1428   2.004   1_545 S
Zn1200 O1393   2.004   1_545 S
Zn1200 O1392   2.004   1_545 S
C1201  O1269   1.295   .     A
C1201  C1230   1.444   .     S
C1201  O1302   1.305   .     A
C1202  S1310   1.844   .     S
C1202  C363    1.457   1_556 S
C1202  N1385   1.394   .     S
C1203  S1311   1.844   .     S
C1203  N1266   1.394   .     A
C1203  C842    1.457   1_455 S
C1204  N1265   1.394   .     A
C1204  S1312   1.844   .     S
C1204  C400    1.457   1_456 S
C1205  N1268   1.394   .     A
C1205  S1313   1.844   .     S
C1206  S1314   1.844   .     S
C1206  C247    1.457   1_556 S
C1206  N1027   1.394   1_565 S
C1207  S1315   1.844   .     S
C1207  N1028   1.394   1_565 S
C1208  S1316   1.844   .     S
C1208  N1267   1.394   .     A
C1208  C245    1.457   1_556 S
C1209  C1220   1.381   .     A
C1209  Cl1241  1.779   .     S
C1209  C1228   1.413   .     A
C1210  C1227   1.402   .     A
C1210  C1221   1.376   .     A
C1210  Cl1249  1.771   .     S
C1211  C1218   1.381   .     A
C1211  C1227   1.413   .     A
C1211  Cl1250  1.779   .     S
C1212  C1229   1.444   .     S
C1212  O1291   1.295   .     A
C1212  O1280   1.305   .     A
C1213  Cl1251  1.771   .     S
C1213  C1228   1.402   .     A
C1213  C1219   1.376   .     A
C1214  Cl1252  1.779   .     S
C1214  C1230   1.413   .     A
C1214  C1225   1.381   .     A
C1215  Cl1253  1.771   .     S
C1215  C1229   1.402   .     A
C1215  C1226   1.376   .     A
C1216  C1229   1.413   .     A
C1216  C1222   1.381   .     A
C1216  Cl1254  1.779   .     S
C1217  C1230   1.402   .     A
C1217  C1224   1.376   .     A
C1217  Cl1255  1.771   .     S
C1218  Cl1256  1.779   .     S
C1218  C1232   1.413   .     A
C1219  C1231   1.402   .     A
C1219  Cl1242  1.771   .     S
C1220  Cl1243  1.779   .     S
C1220  C1231   1.413   .     A
C1221  C1232   1.402   .     A
C1221  Cl1244  1.771   .     S
C1222  C1235   1.413   .     A
C1222  Cl1245  1.779   .     S
C1223  O1304   1.294   .     A
C1223  O1307   1.305   .     A
C1223  C1228   1.444   .     S
C1224  C1233   1.402   .     A
C1224  Cl1246  1.771   .     S
C1225  Cl1247  1.779   .     S
C1225  C1233   1.413   .     A
C1226  Cl1248  1.771   .     S
C1226  C1235   1.402   .     A
C1227  C1234   1.444   .     S
C1231  C1239   1.444   .     S
C1232  C1238   1.444   .     S
C1233  C1237   1.444   .     S
C1234  O1306   1.294   .     A
C1234  O1305   1.305   .     A
C1235  C1236   1.444   .     S
C1236  O1308   1.295   .     A
C1236  O1272   1.305   .     A
C1237  O1270   1.305   .     A
C1237  O1271   1.295   .     A
C1238  O1276   1.305   .     A
C1238  O1273   1.295   .     A
C1239  O1274   1.305   .     A
C1239  O1275   1.295   .     A
C1240  S1309   1.844   .     S
C1240  N1386   1.394   .     S
H1257  O1399   0.991   .     S
H1258  O1403   0.991   .     S
H1259  O1406   0.991   1_455 S
H1260  O1409   0.991   1_455 S
H1261  O1293   0.991   .     S
H1262  O1296   0.991   .     S
H1263  O1299   0.991   .     S
H1264  O1303   0.991   .     S
N1265  Zn1317  2.033   .     S
N1265  C1322   1.394   1_455 S
N1266  Zn1318  2.033   .     S
N1266  C1360   1.394   1_455 S
N1267  Zn1319  2.033   .     S
N1268  Zn1320  2.033   .     S
O1269  Zn1317  2.004   .     S
O1270  Zn1320  2.004   .     S
O1271  Zn1319  2.004   .     S
O1272  Zn1080  2.004   1_565 S
O1273  Zn1080  2.004   1_565 S
O1274  Zn1319  2.004   .     S
O1275  Zn1320  2.004   .     S
O1276  Zn1079  2.004   1_565 S
O1277  S1429   1.498   1_455 S
O1278  S1309   1.500   .     D
O1279  H1377   0.991   1_455 S
O1279  S1429   1.670   1_455 S
O1280  Zn1438  2.004   .     S
O1281  S1430   1.499   1_455 S
O1282  S1310   1.500   .     D
O1283  H1378   0.991   1_455 S
O1283  S1430   1.670   1_455 S
O1284  S1431   1.499   .     S
O1285  S1311   1.500   .     D
O1286  H1379   0.991   .     S
O1286  S1431   1.670   .     S
O1287  S1432   1.499   .     S
O1288  S1312   1.500   .     D
O1289  H1380   0.991   .     S
O1289  S1432   1.670   .     S
O1290  S1313   1.498   .     D
O1291  Zn1437  2.004   .     S
O1292  S1313   1.500   .     D
O1293  S1313   1.670   .     S
O1294  S1314   1.499   .     D
O1295  S1314   1.500   .     D
O1296  S1314   1.670   .     S
O1297  S1315   1.499   .     D
O1298  S1315   1.500   .     D
O1299  S1315   1.670   .     S
O1300  S1316   1.499   .     D
O1301  S1316   1.500   .     D
O1302  Zn1318  2.004   .     S
O1303  S1316   1.670   .     S
O1304  Zn1438  2.004   .     S
O1305  Zn1317  2.004   .     S
O1306  Zn1318  2.004   .     S
O1307  Zn1437  2.004   .     S
O1308  Zn1079  2.004   1_565 S
S1309  O1397   1.498   .     S
S1309  O1399   1.670   .     S
S1310  O1401   1.499   .     S
S1310  O1403   1.670   .     S
S1311  O1404   1.499   1_455 S
S1311  O1406   1.670   1_455 S
S1312  O1407   1.499   1_455 S
S1312  O1409   1.670   1_455 S
Zn1317 O1411   2.004   1_455 S
Zn1317 O1427   2.004   1_455 S
Zn1318 O1400   2.004   1_455 S
Zn1318 O1424   2.004   1_455 S
C1321  O1389   1.295   .     A
C1321  C1350   1.444   .     S
C1321  O1422   1.305   .     A
C1322  S1430   1.844   .     S
C1322  C243    1.457   1_656 S
C1322  N1265   1.394   1_655 S
C1323  S1431   1.844   .     S
C1323  N1386   1.394   .     A
C1324  N1385   1.394   .     A
C1324  S1432   1.844   .     S
C1324  C280    1.457   1_556 S
C1325  N1388   1.394   .     A
C1325  S1433   1.844   .     S
C1326  S1434   1.844   .     S
C1326  C367    1.457   1_556 S
C1326  N1147   1.394   1_565 S
C1327  S1435   1.844   .     S
C1327  N1148   1.394   1_565 S
C1328  S1436   1.844   .     S
C1328  N1387   1.394   .     A
C1328  C365    1.457   1_556 S
C1329  C1340   1.381   .     A
C1329  Cl1361  1.779   .     S
C1329  C1348   1.413   .     A
C1330  C1347   1.402   .     A
C1330  C1341   1.376   .     A
C1330  Cl1369  1.771   .     S
C1331  C1338   1.381   .     A
C1331  C1347   1.413   .     A
C1331  Cl1370  1.779   .     S
C1332  C1349   1.444   .     S
C1332  O1411   1.295   .     A
C1332  O1400   1.305   .     A
C1333  Cl1371  1.771   .     S
C1333  C1348   1.402   .     A
C1333  C1339   1.376   .     A
C1334  Cl1372  1.779   .     S
C1334  C1350   1.413   .     A
C1334  C1345   1.381   .     A
C1335  Cl1373  1.771   .     S
C1335  C1349   1.402   .     A
C1335  C1346   1.376   .     A
C1336  C1349   1.413   .     A
C1336  C1342   1.381   .     A
C1336  Cl1374  1.779   .     S
C1337  C1350   1.402   .     A
C1337  C1344   1.376   .     A
C1337  Cl1375  1.771   .     S
C1338  Cl1376  1.779   .     S
C1338  C1352   1.413   .     A
C1339  C1351   1.402   .     A
C1339  Cl1362  1.771   .     S
C1340  Cl1363  1.779   .     S
C1340  C1351   1.413   .     A
C1341  C1352   1.402   .     A
C1341  Cl1364  1.771   .     S
C1342  C1355   1.413   .     A
C1342  Cl1365  1.779   .     S
C1343  O1424   1.294   .     A
C1343  O1427   1.305   .     A
C1343  C1348   1.444   .     S
C1344  C1353   1.402   .     A
C1344  Cl1366  1.771   .     S
C1345  Cl1367  1.779   .     S
C1345  C1353   1.413   .     A
C1346  Cl1368  1.771   .     S
C1346  C1355   1.402   .     A
C1347  C1354   1.444   .     S
C1351  C1359   1.444   .     S
C1352  C1358   1.444   .     S
C1353  C1357   1.444   .     S
C1354  O1426   1.294   .     A
C1354  O1425   1.305   .     A
C1355  C1356   1.444   .     S
C1356  O1428   1.295   .     A
C1356  O1392   1.305   .     A
C1357  O1390   1.305   .     A
C1357  O1391   1.295   .     A
C1358  O1396   1.305   .     A
C1358  O1393   1.295   .     A
C1359  O1394   1.305   .     A
C1359  O1395   1.295   .     A
C1360  S1429   1.844   .     S
C1360  C724    1.457   1_655 S
C1360  N1266   1.394   1_655 S
H1377  O1279   0.991   1_655 S
H1378  O1283   0.991   1_655 S
H1381  O1413   0.991   .     S
H1382  O1416   0.991   .     S
H1383  O1419   0.991   .     S
H1384  O1423   0.991   .     S
N1385  Zn1437  2.033   .     S
N1386  Zn1438  2.033   .     S
N1387  Zn1439  2.033   .     S
N1388  Zn1440  2.033   .     S
O1389  Zn1437  2.004   .     S
O1390  Zn1440  2.004   .     S
O1391  Zn1439  2.004   .     S
O1392  Zn1200  2.004   1_565 S
O1393  Zn1200  2.004   1_565 S
O1394  Zn1439  2.004   .     S
O1395  Zn1440  2.004   .     S
O1396  Zn1199  2.004   1_565 S
O1398  S1429   1.500   .     D
O1400  Zn1318  2.004   1_655 S
O1402  S1430   1.500   .     D
O1404  S1311   1.499   1_655 S
O1405  S1431   1.500   .     D
O1406  H1259   0.991   1_655 S
O1406  S1311   1.670   1_655 S
O1407  S1312   1.499   1_655 S
O1408  S1432   1.500   .     D
O1409  H1260   0.991   1_655 S
O1409  S1312   1.670   1_655 S
O1410  S1433   1.498   .     D
O1411  Zn1317  2.004   1_655 S
O1412  S1433   1.500   .     D
O1413  S1433   1.670   .     S
O1414  S1434   1.499   .     D
O1415  S1434   1.500   .     D
O1416  S1434   1.670   .     S
O1417  S1435   1.499   .     D
O1418  S1435   1.500   .     D
O1419  S1435   1.670   .     S
O1420  S1436   1.499   .     D
O1421  S1436   1.500   .     D
O1422  Zn1438  2.004   .     S
O1423  S1436   1.670   .     S
O1424  Zn1318  2.004   1_655 S
O1425  Zn1437  2.004   .     S
O1426  Zn1438  2.004   .     S
O1427  Zn1317  2.004   1_655 S
O1428  Zn1199  2.004   1_565 S
S1429  O1277   1.498   1_655 S
S1429  O1279   1.670   1_655 S
S1430  O1281   1.499   1_655 S
S1430  O1283   1.670   1_655 S
