data_str_m3_o1_o16_pcu_sym.95
_audit_creation_date              2020-01-03
_audit_creation_method            'Materials Studio'
_symmetry_space_group_name_H-M    'P1'
_symmetry_Int_Tables_number       1
_symmetry_cell_setting            triclinic
loop_
_symmetry_equiv_pos_as_xyz
  x,y,z
_cell_length_a                    29.5910
_cell_length_b                    31.9767
_cell_length_c                    26.3327
_cell_angle_alpha                 90.1511
_cell_angle_beta                  69.6050
_cell_angle_gamma                 89.7358
loop_
_atom_site_label
_atom_site_type_symbol
_atom_site_fract_x
_atom_site_fract_y
_atom_site_fract_z
_atom_site_U_iso_or_equiv
_atom_site_adp_type
_atom_site_occupancy
O1     O     0.12846   0.22775   0.25001   0.00000  Uiso   1.00
O2     O     0.20490   0.22774   0.25001   0.00000  Uiso   1.00
C3     C     0.16726   0.24660   0.24792   0.00000  Uiso   1.00
O4     O     0.10947   0.16666   0.32681   0.00000  Uiso   1.00
O5     O     0.18591   0.16665   0.32681   0.00000  Uiso   1.00
C6     C     0.13982   0.16765   0.35217   0.00000  Uiso   1.00
Zn7    Zn    0.11562   0.16667   0.25000   0.00000  Uiso   1.00
Zn8    Zn    0.21771   0.16666   0.25000   0.00000  Uiso   1.00
O9     O     0.12843   0.10559   0.25000   0.00000  Uiso   1.00
O10    O     0.20488   0.10558   0.25000   0.00000  Uiso   1.00
O11    O     0.14742   0.16668   0.17319   0.00000  Uiso   1.00
O12    O     0.22387   0.16667   0.17319   0.00000  Uiso   1.00
C13    C     0.16675   0.08673   0.24988   0.00000  Uiso   1.00
C14    C     0.19359   0.16722   0.14775   0.00000  Uiso   1.00
C15    C     0.26416   0.19788   0.00297   0.00000  Uiso   1.00
C16    C     0.21053   0.17057   0.08883   0.00000  Uiso   1.00
C17    C     0.08447   0.13710   0.43595   0.00000  Uiso   1.00
C18    C     0.08170   0.11679   0.48338   0.00000  Uiso   1.00
C19    C     0.11791   0.12216   0.00570   0.00000  Uiso   1.00
C20    C     0.15256   0.15502   0.48573   0.00000  Uiso   1.00
C21    C     0.15396   0.17616   0.43832   0.00000  Uiso   1.00
C22    C     0.18625   0.16747   0.01016   0.00000  Uiso   1.00
C23    C     0.22568   0.19379   0.48262   0.00000  Uiso   1.00
C24    C     0.22264   0.21813   0.43924   0.00000  Uiso   1.00
C25    C     0.18675   0.20911   0.41797   0.00000  Uiso   1.00
C26    C     0.17772   0.15945   0.06428   0.00000  Uiso   1.00
C27    C     0.25575   0.18702   0.05746   0.00000  Uiso   1.00
C28    C     0.12311   0.16363   0.41091   0.00000  Uiso   1.00
H29    H     0.14291   0.14782   0.08922   0.00000  Uiso   1.00
H30    H     0.05993   0.12800   0.41555   0.00000  Uiso   1.00
H31    H     0.05433   0.09308   0.49891   0.00000  Uiso   1.00
H32    H     0.18374   0.22871   0.38576   0.00000  Uiso   1.00
C33    C     0.19179   0.31158   0.27530   0.00000  Uiso   1.00
H34    H     0.20929   0.29467   0.29904   0.00000  Uiso   1.00
C35    C     0.19165   0.02102   0.27658   0.00000  Uiso   1.00
H36    H     0.20942   0.03716   0.30060   0.00000  Uiso   1.00
C37    C     0.16731   0.04268   0.24818   0.00000  Uiso   1.00
C38    C     0.14423   0.02243   0.21716   0.00000  Uiso   1.00
H39    H     0.12703   0.04040   0.19397   0.00000  Uiso   1.00
C40    C     0.14555   0.31267   0.21376   0.00000  Uiso   1.00
C41    C     0.16842   0.29082   0.24476   0.00000  Uiso   1.00
C42    C     0.31710   0.13418   0.22699   0.00000  Uiso   1.00
C43    C     0.03145   0.13433   0.22752   0.00000  Uiso   1.00
H44    H     0.05583   0.10881   0.20900   0.00000  Uiso   1.00
N45    N     0.04760   0.16668   0.25002   0.00000  Uiso   1.00
C46    C     0.01669   0.19903   0.27263   0.00000  Uiso   1.00
H47    H     0.02893   0.22499   0.29078   0.00000  Uiso   1.00
C48    C     0.30219   0.19903   0.27248   0.00000  Uiso   1.00
H49    H     0.27844   0.22502   0.28993   0.00000  Uiso   1.00
N50    N     0.28573   0.16665   0.25001   0.00000  Uiso   1.00
N51    N     0.29172   0.19459   0.08127   0.00000  Uiso   1.00
O52    O     0.28870   0.22762   0.11127   0.00000  Uiso   1.00
O53    O     0.32933   0.17025   0.06968   0.00000  Uiso   1.00
C54    C     0.12503   0.29228   0.17590   0.00000  Uiso   1.00
O55    O     0.14426   0.26114   0.15022   0.00000  Uiso   1.00
O56    O     0.08461   0.30982   0.16802   0.00000  Uiso   1.00
H57    H     0.07429   0.29352   0.14087   0.00000  Uiso   1.00
N58    N     0.30268   0.09992   0.20125   0.00000  Uiso   1.00
O59    O     0.31250   0.06184   0.21151   0.00000  Uiso   1.00
O60    O     0.29035   0.10668   0.15921   0.00000  Uiso   1.00
N61    N     0.24967   0.25613   0.42288   0.00000  Uiso   1.00
O62    O     0.26080   0.26962   0.37349   0.00000  Uiso   1.00
O63    O     0.25454   0.28140   0.45945   0.00000  Uiso   1.00
C64    C     0.31318   0.21086   0.46697   0.00000  Uiso   1.00
O65    O     0.32794   0.20030   0.41926   0.00000  Uiso   1.00
O66    O     0.00918   0.23490   0.48722   0.00000  Uiso   1.00
H67    H     0.04168   0.24115   0.45869   0.00000  Uiso   1.00
C68    C     0.12175   0.08873   0.04304   0.00000  Uiso   1.00
O69    O     0.16122   0.07428   0.03900   0.00000  Uiso   1.00
O70    O     0.07997   0.07281   0.08174   0.00000  Uiso   1.00
H71    H     0.08717   0.05021   0.10480   0.00000  Uiso   1.00
O72    O     0.46179   0.22775   0.25001   0.00000  Uiso   1.00
O73    O     0.53823   0.22774   0.25001   0.00000  Uiso   1.00
C74    C     0.50059   0.24660   0.24792   0.00000  Uiso   1.00
O75    O     0.44280   0.16666   0.32681   0.00000  Uiso   1.00
O76    O     0.51924   0.16665   0.32681   0.00000  Uiso   1.00
C77    C     0.47316   0.16765   0.35217   0.00000  Uiso   1.00
Zn78   Zn    0.44896   0.16667   0.25000   0.00000  Uiso   1.00
Zn79   Zn    0.55104   0.16666   0.25000   0.00000  Uiso   1.00
O80    O     0.46177   0.10559   0.25000   0.00000  Uiso   1.00
O81    O     0.53821   0.10558   0.25000   0.00000  Uiso   1.00
O82    O     0.48076   0.16668   0.17319   0.00000  Uiso   1.00
O83    O     0.55720   0.16667   0.17319   0.00000  Uiso   1.00
C84    C     0.50008   0.08673   0.24988   0.00000  Uiso   1.00
C85    C     0.52692   0.16722   0.14775   0.00000  Uiso   1.00
C86    C     0.59750   0.19788   0.00297   0.00000  Uiso   1.00
C87    C     0.54387   0.17057   0.08883   0.00000  Uiso   1.00
C88    C     0.41780   0.13710   0.43595   0.00000  Uiso   1.00
C89    C     0.41503   0.11679   0.48338   0.00000  Uiso   1.00
C90    C     0.45124   0.12216   0.00570   0.00000  Uiso   1.00
C91    C     0.48589   0.15502   0.48573   0.00000  Uiso   1.00
C92    C     0.48729   0.17616   0.43832   0.00000  Uiso   1.00
C93    C     0.51958   0.16747   0.01016   0.00000  Uiso   1.00
C94    C     0.55901   0.19379   0.48262   0.00000  Uiso   1.00
C95    C     0.55597   0.21813   0.43924   0.00000  Uiso   1.00
C96    C     0.52008   0.20911   0.41797   0.00000  Uiso   1.00
C97    C     0.51105   0.15945   0.06428   0.00000  Uiso   1.00
C98    C     0.58909   0.18702   0.05746   0.00000  Uiso   1.00
C99    C     0.45644   0.16363   0.41091   0.00000  Uiso   1.00
H100   H     0.47624   0.14782   0.08922   0.00000  Uiso   1.00
H101   H     0.39326   0.12800   0.41555   0.00000  Uiso   1.00
H102   H     0.38766   0.09308   0.49891   0.00000  Uiso   1.00
H103   H     0.51707   0.22871   0.38576   0.00000  Uiso   1.00
C104   C     0.52512   0.31158   0.27530   0.00000  Uiso   1.00
H105   H     0.54263   0.29467   0.29904   0.00000  Uiso   1.00
C106   C     0.52498   0.02102   0.27658   0.00000  Uiso   1.00
H107   H     0.54275   0.03716   0.30060   0.00000  Uiso   1.00
C108   C     0.50064   0.04268   0.24818   0.00000  Uiso   1.00
C109   C     0.47756   0.02243   0.21716   0.00000  Uiso   1.00
H110   H     0.46036   0.04040   0.19397   0.00000  Uiso   1.00
C111   C     0.47889   0.31267   0.21376   0.00000  Uiso   1.00
C112   C     0.50176   0.29082   0.24476   0.00000  Uiso   1.00
C113   C     0.65043   0.13418   0.22699   0.00000  Uiso   1.00
C114   C     0.36479   0.13433   0.22752   0.00000  Uiso   1.00
H115   H     0.38916   0.10881   0.20900   0.00000  Uiso   1.00
N116   N     0.38093   0.16668   0.25002   0.00000  Uiso   1.00
C117   C     0.35003   0.19903   0.27263   0.00000  Uiso   1.00
H118   H     0.36227   0.22499   0.29078   0.00000  Uiso   1.00
C119   C     0.63552   0.19903   0.27248   0.00000  Uiso   1.00
H120   H     0.61177   0.22502   0.28993   0.00000  Uiso   1.00
N121   N     0.61906   0.16665   0.25001   0.00000  Uiso   1.00
N122   N     0.62505   0.19459   0.08127   0.00000  Uiso   1.00
O123   O     0.62203   0.22762   0.11127   0.00000  Uiso   1.00
O124   O     0.66266   0.17025   0.06968   0.00000  Uiso   1.00
C125   C     0.45837   0.29228   0.17590   0.00000  Uiso   1.00
O126   O     0.47759   0.26114   0.15022   0.00000  Uiso   1.00
O127   O     0.41795   0.30982   0.16802   0.00000  Uiso   1.00
H128   H     0.40762   0.29352   0.14087   0.00000  Uiso   1.00
N129   N     0.63602   0.09992   0.20125   0.00000  Uiso   1.00
O130   O     0.64583   0.06184   0.21151   0.00000  Uiso   1.00
O131   O     0.62369   0.10668   0.15921   0.00000  Uiso   1.00
N132   N     0.58301   0.25613   0.42288   0.00000  Uiso   1.00
O133   O     0.59413   0.26962   0.37349   0.00000  Uiso   1.00
O134   O     0.58788   0.28140   0.45945   0.00000  Uiso   1.00
C135   C     0.64651   0.21086   0.46697   0.00000  Uiso   1.00
O136   O     0.66127   0.20030   0.41926   0.00000  Uiso   1.00
O137   O     0.34251   0.23490   0.48722   0.00000  Uiso   1.00
H138   H     0.37501   0.24115   0.45869   0.00000  Uiso   1.00
C139   C     0.45509   0.08873   0.04304   0.00000  Uiso   1.00
O140   O     0.49455   0.07428   0.03900   0.00000  Uiso   1.00
O141   O     0.41330   0.07281   0.08174   0.00000  Uiso   1.00
H142   H     0.42051   0.05021   0.10480   0.00000  Uiso   1.00
O143   O     0.79512   0.22775   0.25001   0.00000  Uiso   1.00
O144   O     0.87157   0.22774   0.25001   0.00000  Uiso   1.00
C145   C     0.83393   0.24660   0.24792   0.00000  Uiso   1.00
O146   O     0.77613   0.16666   0.32681   0.00000  Uiso   1.00
O147   O     0.85258   0.16665   0.32681   0.00000  Uiso   1.00
C148   C     0.80649   0.16765   0.35217   0.00000  Uiso   1.00
Zn149  Zn    0.78229   0.16667   0.25000   0.00000  Uiso   1.00
Zn150  Zn    0.88438   0.16666   0.25000   0.00000  Uiso   1.00
O151   O     0.79510   0.10559   0.25000   0.00000  Uiso   1.00
O152   O     0.87154   0.10558   0.25000   0.00000  Uiso   1.00
O153   O     0.81409   0.16668   0.17319   0.00000  Uiso   1.00
O154   O     0.89053   0.16667   0.17319   0.00000  Uiso   1.00
C155   C     0.83342   0.08673   0.24988   0.00000  Uiso   1.00
C156   C     0.86026   0.16722   0.14775   0.00000  Uiso   1.00
C157   C     0.93083   0.19788   0.00297   0.00000  Uiso   1.00
C158   C     0.87720   0.17057   0.08883   0.00000  Uiso   1.00
C159   C     0.75114   0.13710   0.43595   0.00000  Uiso   1.00
C160   C     0.74837   0.11679   0.48338   0.00000  Uiso   1.00
C161   C     0.78457   0.12216   0.00570   0.00000  Uiso   1.00
C162   C     0.81923   0.15502   0.48573   0.00000  Uiso   1.00
C163   C     0.82063   0.17616   0.43832   0.00000  Uiso   1.00
C164   C     0.85292   0.16747   0.01016   0.00000  Uiso   1.00
C165   C     0.89235   0.19379   0.48262   0.00000  Uiso   1.00
C166   C     0.88930   0.21813   0.43924   0.00000  Uiso   1.00
C167   C     0.85341   0.20911   0.41797   0.00000  Uiso   1.00
C168   C     0.84438   0.15945   0.06428   0.00000  Uiso   1.00
C169   C     0.92242   0.18702   0.05746   0.00000  Uiso   1.00
C170   C     0.78978   0.16363   0.41091   0.00000  Uiso   1.00
H171   H     0.80957   0.14782   0.08922   0.00000  Uiso   1.00
H172   H     0.72659   0.12800   0.41555   0.00000  Uiso   1.00
H173   H     0.72099   0.09308   0.49891   0.00000  Uiso   1.00
H174   H     0.85041   0.22871   0.38576   0.00000  Uiso   1.00
C175   C     0.85846   0.31158   0.27530   0.00000  Uiso   1.00
H176   H     0.87596   0.29467   0.29904   0.00000  Uiso   1.00
C177   C     0.85831   0.02102   0.27658   0.00000  Uiso   1.00
H178   H     0.87609   0.03716   0.30060   0.00000  Uiso   1.00
C179   C     0.83398   0.04268   0.24818   0.00000  Uiso   1.00
C180   C     0.81089   0.02243   0.21716   0.00000  Uiso   1.00
H181   H     0.79369   0.04040   0.19397   0.00000  Uiso   1.00
C182   C     0.81222   0.31267   0.21376   0.00000  Uiso   1.00
C183   C     0.83509   0.29082   0.24476   0.00000  Uiso   1.00
C184   C     0.98376   0.13418   0.22699   0.00000  Uiso   1.00
C185   C     0.69812   0.13433   0.22752   0.00000  Uiso   1.00
H186   H     0.72249   0.10881   0.20900   0.00000  Uiso   1.00
N187   N     0.71426   0.16668   0.25002   0.00000  Uiso   1.00
C188   C     0.68336   0.19903   0.27263   0.00000  Uiso   1.00
H189   H     0.69560   0.22499   0.29078   0.00000  Uiso   1.00
C190   C     0.96885   0.19903   0.27248   0.00000  Uiso   1.00
H191   H     0.94510   0.22502   0.28993   0.00000  Uiso   1.00
N192   N     0.95239   0.16665   0.25001   0.00000  Uiso   1.00
N193   N     0.95838   0.19459   0.08127   0.00000  Uiso   1.00
O194   O     0.95536   0.22762   0.11127   0.00000  Uiso   1.00
O195   O     0.99599   0.17025   0.06968   0.00000  Uiso   1.00
C196   C     0.79170   0.29228   0.17590   0.00000  Uiso   1.00
O197   O     0.81092   0.26114   0.15022   0.00000  Uiso   1.00
O198   O     0.75128   0.30982   0.16802   0.00000  Uiso   1.00
H199   H     0.74095   0.29352   0.14087   0.00000  Uiso   1.00
N200   N     0.96935   0.09992   0.20125   0.00000  Uiso   1.00
O201   O     0.97916   0.06184   0.21151   0.00000  Uiso   1.00
O202   O     0.95702   0.10668   0.15921   0.00000  Uiso   1.00
N203   N     0.91634   0.25613   0.42288   0.00000  Uiso   1.00
O204   O     0.92746   0.26962   0.37349   0.00000  Uiso   1.00
O205   O     0.92121   0.28140   0.45945   0.00000  Uiso   1.00
C206   C     0.97985   0.21086   0.46697   0.00000  Uiso   1.00
O207   O     0.99460   0.20030   0.41926   0.00000  Uiso   1.00
O208   O     0.67584   0.23490   0.48722   0.00000  Uiso   1.00
H209   H     0.70835   0.24115   0.45869   0.00000  Uiso   1.00
C210   C     0.78842   0.08873   0.04304   0.00000  Uiso   1.00
O211   O     0.82788   0.07428   0.03900   0.00000  Uiso   1.00
O212   O     0.74664   0.07281   0.08174   0.00000  Uiso   1.00
H213   H     0.75384   0.05021   0.10480   0.00000  Uiso   1.00
O214   O     0.12846   0.56108   0.25001   0.00000  Uiso   1.00
O215   O     0.20490   0.56107   0.25001   0.00000  Uiso   1.00
C216   C     0.16726   0.57993   0.24792   0.00000  Uiso   1.00
O217   O     0.10947   0.50000   0.32681   0.00000  Uiso   1.00
O218   O     0.18591   0.49999   0.32681   0.00000  Uiso   1.00
C219   C     0.13982   0.50098   0.35217   0.00000  Uiso   1.00
Zn220  Zn    0.11562   0.50001   0.25000   0.00000  Uiso   1.00
Zn221  Zn    0.21771   0.49999   0.25000   0.00000  Uiso   1.00
O222   O     0.12843   0.43893   0.25000   0.00000  Uiso   1.00
O223   O     0.20488   0.43892   0.25000   0.00000  Uiso   1.00
O224   O     0.14742   0.50001   0.17319   0.00000  Uiso   1.00
O225   O     0.22387   0.50000   0.17319   0.00000  Uiso   1.00
C226   C     0.16675   0.42006   0.24988   0.00000  Uiso   1.00
C227   C     0.19359   0.50056   0.14775   0.00000  Uiso   1.00
C228   C     0.26416   0.53121   0.00297   0.00000  Uiso   1.00
C229   C     0.21053   0.50391   0.08883   0.00000  Uiso   1.00
C230   C     0.08447   0.47044   0.43595   0.00000  Uiso   1.00
C231   C     0.08170   0.45012   0.48338   0.00000  Uiso   1.00
C232   C     0.11791   0.45549   0.00570   0.00000  Uiso   1.00
C233   C     0.15256   0.48835   0.48573   0.00000  Uiso   1.00
C234   C     0.15396   0.50949   0.43832   0.00000  Uiso   1.00
C235   C     0.18625   0.50080   0.01016   0.00000  Uiso   1.00
C236   C     0.22568   0.52713   0.48262   0.00000  Uiso   1.00
C237   C     0.22264   0.55146   0.43924   0.00000  Uiso   1.00
C238   C     0.18675   0.54245   0.41797   0.00000  Uiso   1.00
C239   C     0.17772   0.49278   0.06428   0.00000  Uiso   1.00
C240   C     0.25575   0.52035   0.05746   0.00000  Uiso   1.00
C241   C     0.12311   0.49696   0.41091   0.00000  Uiso   1.00
H242   H     0.14291   0.48115   0.08922   0.00000  Uiso   1.00
H243   H     0.05993   0.46134   0.41555   0.00000  Uiso   1.00
H244   H     0.05433   0.42641   0.49891   0.00000  Uiso   1.00
H245   H     0.18374   0.56204   0.38576   0.00000  Uiso   1.00
C246   C     0.19179   0.64491   0.27530   0.00000  Uiso   1.00
H247   H     0.20929   0.62801   0.29904   0.00000  Uiso   1.00
C248   C     0.19165   0.35435   0.27658   0.00000  Uiso   1.00
H249   H     0.20942   0.37049   0.30060   0.00000  Uiso   1.00
C250   C     0.16731   0.37601   0.24818   0.00000  Uiso   1.00
C251   C     0.14423   0.35576   0.21716   0.00000  Uiso   1.00
H252   H     0.12703   0.37373   0.19397   0.00000  Uiso   1.00
C253   C     0.14555   0.64600   0.21376   0.00000  Uiso   1.00
C254   C     0.16842   0.62415   0.24476   0.00000  Uiso   1.00
C255   C     0.31710   0.46752   0.22699   0.00000  Uiso   1.00
C256   C     0.03145   0.46766   0.22752   0.00000  Uiso   1.00
H257   H     0.05583   0.44215   0.20900   0.00000  Uiso   1.00
N258   N     0.04760   0.50001   0.25002   0.00000  Uiso   1.00
C259   C     0.01669   0.53236   0.27263   0.00000  Uiso   1.00
H260   H     0.02893   0.55833   0.29078   0.00000  Uiso   1.00
C261   C     0.30219   0.53237   0.27248   0.00000  Uiso   1.00
H262   H     0.27844   0.55836   0.28993   0.00000  Uiso   1.00
N263   N     0.28573   0.49998   0.25001   0.00000  Uiso   1.00
N264   N     0.29172   0.52793   0.08127   0.00000  Uiso   1.00
O265   O     0.28870   0.56096   0.11127   0.00000  Uiso   1.00
O266   O     0.32933   0.50359   0.06968   0.00000  Uiso   1.00
C267   C     0.12503   0.62561   0.17590   0.00000  Uiso   1.00
O268   O     0.14426   0.59448   0.15022   0.00000  Uiso   1.00
O269   O     0.08461   0.64315   0.16802   0.00000  Uiso   1.00
H270   H     0.07429   0.62685   0.14087   0.00000  Uiso   1.00
N271   N     0.30268   0.43326   0.20125   0.00000  Uiso   1.00
O272   O     0.31250   0.39518   0.21151   0.00000  Uiso   1.00
O273   O     0.29035   0.44001   0.15921   0.00000  Uiso   1.00
N274   N     0.24967   0.58947   0.42288   0.00000  Uiso   1.00
O275   O     0.26080   0.60296   0.37349   0.00000  Uiso   1.00
O276   O     0.25454   0.61473   0.45945   0.00000  Uiso   1.00
C277   C     0.31318   0.54420   0.46697   0.00000  Uiso   1.00
O278   O     0.32794   0.53364   0.41926   0.00000  Uiso   1.00
O279   O     0.00918   0.56824   0.48722   0.00000  Uiso   1.00
H280   H     0.04168   0.57448   0.45869   0.00000  Uiso   1.00
C281   C     0.12175   0.42206   0.04304   0.00000  Uiso   1.00
O282   O     0.16122   0.40762   0.03900   0.00000  Uiso   1.00
O283   O     0.07997   0.40615   0.08174   0.00000  Uiso   1.00
H284   H     0.08717   0.38355   0.10480   0.00000  Uiso   1.00
O285   O     0.46179   0.56108   0.25001   0.00000  Uiso   1.00
O286   O     0.53823   0.56107   0.25001   0.00000  Uiso   1.00
C287   C     0.50059   0.57993   0.24792   0.00000  Uiso   1.00
O288   O     0.44280   0.50000   0.32681   0.00000  Uiso   1.00
O289   O     0.51924   0.49999   0.32681   0.00000  Uiso   1.00
C290   C     0.47316   0.50098   0.35217   0.00000  Uiso   1.00
Zn291  Zn    0.44896   0.50001   0.25000   0.00000  Uiso   1.00
Zn292  Zn    0.55104   0.49999   0.25000   0.00000  Uiso   1.00
O293   O     0.46177   0.43893   0.25000   0.00000  Uiso   1.00
O294   O     0.53821   0.43892   0.25000   0.00000  Uiso   1.00
O295   O     0.48076   0.50001   0.17319   0.00000  Uiso   1.00
O296   O     0.55720   0.50000   0.17319   0.00000  Uiso   1.00
C297   C     0.50008   0.42006   0.24988   0.00000  Uiso   1.00
C298   C     0.52692   0.50056   0.14775   0.00000  Uiso   1.00
C299   C     0.59750   0.53121   0.00297   0.00000  Uiso   1.00
C300   C     0.54387   0.50391   0.08883   0.00000  Uiso   1.00
C301   C     0.41780   0.47044   0.43595   0.00000  Uiso   1.00
C302   C     0.41503   0.45012   0.48338   0.00000  Uiso   1.00
C303   C     0.45124   0.45549   0.00570   0.00000  Uiso   1.00
C304   C     0.48589   0.48835   0.48573   0.00000  Uiso   1.00
C305   C     0.48729   0.50949   0.43832   0.00000  Uiso   1.00
C306   C     0.51958   0.50080   0.01016   0.00000  Uiso   1.00
C307   C     0.55901   0.52713   0.48262   0.00000  Uiso   1.00
C308   C     0.55597   0.55146   0.43924   0.00000  Uiso   1.00
C309   C     0.52008   0.54245   0.41797   0.00000  Uiso   1.00
C310   C     0.51105   0.49278   0.06428   0.00000  Uiso   1.00
C311   C     0.58909   0.52035   0.05746   0.00000  Uiso   1.00
C312   C     0.45644   0.49696   0.41091   0.00000  Uiso   1.00
H313   H     0.47624   0.48115   0.08922   0.00000  Uiso   1.00
H314   H     0.39326   0.46134   0.41555   0.00000  Uiso   1.00
H315   H     0.38766   0.42641   0.49891   0.00000  Uiso   1.00
H316   H     0.51707   0.56204   0.38576   0.00000  Uiso   1.00
C317   C     0.52512   0.64491   0.27530   0.00000  Uiso   1.00
H318   H     0.54263   0.62801   0.29904   0.00000  Uiso   1.00
C319   C     0.52498   0.35435   0.27658   0.00000  Uiso   1.00
H320   H     0.54275   0.37049   0.30060   0.00000  Uiso   1.00
C321   C     0.50064   0.37601   0.24818   0.00000  Uiso   1.00
C322   C     0.47756   0.35576   0.21716   0.00000  Uiso   1.00
H323   H     0.46036   0.37373   0.19397   0.00000  Uiso   1.00
C324   C     0.47889   0.64600   0.21376   0.00000  Uiso   1.00
C325   C     0.50176   0.62415   0.24476   0.00000  Uiso   1.00
C326   C     0.65043   0.46752   0.22699   0.00000  Uiso   1.00
C327   C     0.36479   0.46766   0.22752   0.00000  Uiso   1.00
H328   H     0.38916   0.44215   0.20900   0.00000  Uiso   1.00
N329   N     0.38093   0.50001   0.25002   0.00000  Uiso   1.00
C330   C     0.35003   0.53236   0.27263   0.00000  Uiso   1.00
H331   H     0.36227   0.55833   0.29078   0.00000  Uiso   1.00
C332   C     0.63552   0.53237   0.27248   0.00000  Uiso   1.00
H333   H     0.61177   0.55836   0.28993   0.00000  Uiso   1.00
N334   N     0.61906   0.49998   0.25001   0.00000  Uiso   1.00
N335   N     0.62505   0.52793   0.08127   0.00000  Uiso   1.00
O336   O     0.62203   0.56096   0.11127   0.00000  Uiso   1.00
O337   O     0.66266   0.50359   0.06968   0.00000  Uiso   1.00
C338   C     0.45837   0.62561   0.17590   0.00000  Uiso   1.00
O339   O     0.47759   0.59448   0.15022   0.00000  Uiso   1.00
O340   O     0.41795   0.64315   0.16802   0.00000  Uiso   1.00
H341   H     0.40762   0.62685   0.14087   0.00000  Uiso   1.00
N342   N     0.63602   0.43326   0.20125   0.00000  Uiso   1.00
O343   O     0.64583   0.39518   0.21151   0.00000  Uiso   1.00
O344   O     0.62369   0.44001   0.15921   0.00000  Uiso   1.00
N345   N     0.58301   0.58947   0.42288   0.00000  Uiso   1.00
O346   O     0.59413   0.60296   0.37349   0.00000  Uiso   1.00
O347   O     0.58788   0.61473   0.45945   0.00000  Uiso   1.00
C348   C     0.64651   0.54420   0.46697   0.00000  Uiso   1.00
O349   O     0.66127   0.53364   0.41926   0.00000  Uiso   1.00
O350   O     0.34251   0.56824   0.48722   0.00000  Uiso   1.00
H351   H     0.37501   0.57448   0.45869   0.00000  Uiso   1.00
C352   C     0.45509   0.42206   0.04304   0.00000  Uiso   1.00
O353   O     0.49455   0.40762   0.03900   0.00000  Uiso   1.00
O354   O     0.41330   0.40615   0.08174   0.00000  Uiso   1.00
H355   H     0.42051   0.38355   0.10480   0.00000  Uiso   1.00
O356   O     0.79512   0.56108   0.25001   0.00000  Uiso   1.00
O357   O     0.87157   0.56107   0.25001   0.00000  Uiso   1.00
C358   C     0.83393   0.57993   0.24792   0.00000  Uiso   1.00
O359   O     0.77613   0.50000   0.32681   0.00000  Uiso   1.00
O360   O     0.85258   0.49999   0.32681   0.00000  Uiso   1.00
C361   C     0.80649   0.50098   0.35217   0.00000  Uiso   1.00
Zn362  Zn    0.78229   0.50001   0.25000   0.00000  Uiso   1.00
Zn363  Zn    0.88438   0.49999   0.25000   0.00000  Uiso   1.00
O364   O     0.79510   0.43893   0.25000   0.00000  Uiso   1.00
O365   O     0.87154   0.43892   0.25000   0.00000  Uiso   1.00
O366   O     0.81409   0.50001   0.17319   0.00000  Uiso   1.00
O367   O     0.89053   0.50000   0.17319   0.00000  Uiso   1.00
C368   C     0.83342   0.42006   0.24988   0.00000  Uiso   1.00
C369   C     0.86026   0.50056   0.14775   0.00000  Uiso   1.00
C370   C     0.93083   0.53121   0.00297   0.00000  Uiso   1.00
C371   C     0.87720   0.50391   0.08883   0.00000  Uiso   1.00
C372   C     0.75114   0.47044   0.43595   0.00000  Uiso   1.00
C373   C     0.74837   0.45012   0.48338   0.00000  Uiso   1.00
C374   C     0.78457   0.45549   0.00570   0.00000  Uiso   1.00
C375   C     0.81923   0.48835   0.48573   0.00000  Uiso   1.00
C376   C     0.82063   0.50949   0.43832   0.00000  Uiso   1.00
C377   C     0.85292   0.50080   0.01016   0.00000  Uiso   1.00
C378   C     0.89235   0.52713   0.48262   0.00000  Uiso   1.00
C379   C     0.88930   0.55146   0.43924   0.00000  Uiso   1.00
C380   C     0.85341   0.54245   0.41797   0.00000  Uiso   1.00
C381   C     0.84438   0.49278   0.06428   0.00000  Uiso   1.00
C382   C     0.92242   0.52035   0.05746   0.00000  Uiso   1.00
C383   C     0.78978   0.49696   0.41091   0.00000  Uiso   1.00
H384   H     0.80957   0.48115   0.08922   0.00000  Uiso   1.00
H385   H     0.72659   0.46134   0.41555   0.00000  Uiso   1.00
H386   H     0.72099   0.42641   0.49891   0.00000  Uiso   1.00
H387   H     0.85041   0.56204   0.38576   0.00000  Uiso   1.00
C388   C     0.85846   0.64491   0.27530   0.00000  Uiso   1.00
H389   H     0.87596   0.62801   0.29904   0.00000  Uiso   1.00
C390   C     0.85831   0.35435   0.27658   0.00000  Uiso   1.00
H391   H     0.87609   0.37049   0.30060   0.00000  Uiso   1.00
C392   C     0.83398   0.37601   0.24818   0.00000  Uiso   1.00
C393   C     0.81089   0.35576   0.21716   0.00000  Uiso   1.00
H394   H     0.79369   0.37373   0.19397   0.00000  Uiso   1.00
C395   C     0.81222   0.64600   0.21376   0.00000  Uiso   1.00
C396   C     0.83509   0.62415   0.24476   0.00000  Uiso   1.00
C397   C     0.98376   0.46752   0.22699   0.00000  Uiso   1.00
C398   C     0.69812   0.46766   0.22752   0.00000  Uiso   1.00
H399   H     0.72249   0.44215   0.20900   0.00000  Uiso   1.00
N400   N     0.71426   0.50001   0.25002   0.00000  Uiso   1.00
C401   C     0.68336   0.53236   0.27263   0.00000  Uiso   1.00
H402   H     0.69560   0.55833   0.29078   0.00000  Uiso   1.00
C403   C     0.96885   0.53237   0.27248   0.00000  Uiso   1.00
H404   H     0.94510   0.55836   0.28993   0.00000  Uiso   1.00
N405   N     0.95239   0.49998   0.25001   0.00000  Uiso   1.00
N406   N     0.95838   0.52793   0.08127   0.00000  Uiso   1.00
O407   O     0.95536   0.56096   0.11127   0.00000  Uiso   1.00
O408   O     0.99599   0.50359   0.06968   0.00000  Uiso   1.00
C409   C     0.79170   0.62561   0.17590   0.00000  Uiso   1.00
O410   O     0.81092   0.59448   0.15022   0.00000  Uiso   1.00
O411   O     0.75128   0.64315   0.16802   0.00000  Uiso   1.00
H412   H     0.74095   0.62685   0.14087   0.00000  Uiso   1.00
N413   N     0.96935   0.43326   0.20125   0.00000  Uiso   1.00
O414   O     0.97916   0.39518   0.21151   0.00000  Uiso   1.00
O415   O     0.95702   0.44001   0.15921   0.00000  Uiso   1.00
N416   N     0.91634   0.58947   0.42288   0.00000  Uiso   1.00
O417   O     0.92746   0.60296   0.37349   0.00000  Uiso   1.00
O418   O     0.92121   0.61473   0.45945   0.00000  Uiso   1.00
C419   C     0.97985   0.54420   0.46697   0.00000  Uiso   1.00
O420   O     0.99460   0.53364   0.41926   0.00000  Uiso   1.00
O421   O     0.67584   0.56824   0.48722   0.00000  Uiso   1.00
H422   H     0.70835   0.57448   0.45869   0.00000  Uiso   1.00
C423   C     0.78842   0.42206   0.04304   0.00000  Uiso   1.00
O424   O     0.82788   0.40762   0.03900   0.00000  Uiso   1.00
O425   O     0.74664   0.40615   0.08174   0.00000  Uiso   1.00
H426   H     0.75384   0.38355   0.10480   0.00000  Uiso   1.00
O427   O     0.12846   0.89442   0.25001   0.00000  Uiso   1.00
O428   O     0.20490   0.89441   0.25001   0.00000  Uiso   1.00
C429   C     0.16726   0.91327   0.24792   0.00000  Uiso   1.00
O430   O     0.10947   0.83333   0.32681   0.00000  Uiso   1.00
O431   O     0.18591   0.83332   0.32681   0.00000  Uiso   1.00
C432   C     0.13982   0.83432   0.35217   0.00000  Uiso   1.00
Zn433  Zn    0.11562   0.83334   0.25000   0.00000  Uiso   1.00
Zn434  Zn    0.21771   0.83333   0.25000   0.00000  Uiso   1.00
O435   O     0.12843   0.77226   0.25000   0.00000  Uiso   1.00
O436   O     0.20488   0.77225   0.25000   0.00000  Uiso   1.00
O437   O     0.14742   0.83335   0.17319   0.00000  Uiso   1.00
O438   O     0.22387   0.83334   0.17319   0.00000  Uiso   1.00
C439   C     0.16675   0.75340   0.24988   0.00000  Uiso   1.00
C440   C     0.19359   0.83389   0.14775   0.00000  Uiso   1.00
C441   C     0.26416   0.86454   0.00297   0.00000  Uiso   1.00
C442   C     0.21053   0.83724   0.08883   0.00000  Uiso   1.00
C443   C     0.08447   0.80377   0.43595   0.00000  Uiso   1.00
C444   C     0.08170   0.78345   0.48338   0.00000  Uiso   1.00
C445   C     0.11791   0.78883   0.00570   0.00000  Uiso   1.00
C446   C     0.15256   0.82169   0.48573   0.00000  Uiso   1.00
C447   C     0.15396   0.84282   0.43832   0.00000  Uiso   1.00
C448   C     0.18625   0.83414   0.01016   0.00000  Uiso   1.00
C449   C     0.22568   0.86046   0.48262   0.00000  Uiso   1.00
C450   C     0.22264   0.88479   0.43924   0.00000  Uiso   1.00
C451   C     0.18675   0.87578   0.41797   0.00000  Uiso   1.00
C452   C     0.17772   0.82611   0.06428   0.00000  Uiso   1.00
C453   C     0.25575   0.85369   0.05746   0.00000  Uiso   1.00
C454   C     0.12311   0.83030   0.41091   0.00000  Uiso   1.00
H455   H     0.14291   0.81448   0.08922   0.00000  Uiso   1.00
H456   H     0.05993   0.79467   0.41555   0.00000  Uiso   1.00
H457   H     0.05433   0.75974   0.49891   0.00000  Uiso   1.00
H458   H     0.18374   0.89538   0.38576   0.00000  Uiso   1.00
C459   C     0.19179   0.97825   0.27530   0.00000  Uiso   1.00
H460   H     0.20929   0.96134   0.29904   0.00000  Uiso   1.00
C461   C     0.19165   0.68769   0.27658   0.00000  Uiso   1.00
H462   H     0.20942   0.70382   0.30060   0.00000  Uiso   1.00
C463   C     0.16731   0.70934   0.24818   0.00000  Uiso   1.00
C464   C     0.14423   0.68910   0.21716   0.00000  Uiso   1.00
H465   H     0.12703   0.70707   0.19397   0.00000  Uiso   1.00
C466   C     0.14555   0.97934   0.21376   0.00000  Uiso   1.00
C467   C     0.16842   0.95748   0.24476   0.00000  Uiso   1.00
C468   C     0.31710   0.80085   0.22699   0.00000  Uiso   1.00
C469   C     0.03145   0.80100   0.22752   0.00000  Uiso   1.00
H470   H     0.05583   0.77548   0.20900   0.00000  Uiso   1.00
N471   N     0.04760   0.83334   0.25002   0.00000  Uiso   1.00
C472   C     0.01669   0.86570   0.27263   0.00000  Uiso   1.00
H473   H     0.02893   0.89166   0.29078   0.00000  Uiso   1.00
C474   C     0.30219   0.86570   0.27248   0.00000  Uiso   1.00
H475   H     0.27844   0.89169   0.28993   0.00000  Uiso   1.00
N476   N     0.28573   0.83331   0.25001   0.00000  Uiso   1.00
N477   N     0.29172   0.86126   0.08127   0.00000  Uiso   1.00
O478   O     0.28870   0.89429   0.11127   0.00000  Uiso   1.00
O479   O     0.32933   0.83692   0.06968   0.00000  Uiso   1.00
C480   C     0.12503   0.95894   0.17590   0.00000  Uiso   1.00
O481   O     0.14426   0.92781   0.15022   0.00000  Uiso   1.00
O482   O     0.08461   0.97649   0.16802   0.00000  Uiso   1.00
H483   H     0.07429   0.96019   0.14087   0.00000  Uiso   1.00
N484   N     0.30268   0.76659   0.20125   0.00000  Uiso   1.00
O485   O     0.31250   0.72851   0.21151   0.00000  Uiso   1.00
O486   O     0.29035   0.77335   0.15921   0.00000  Uiso   1.00
N487   N     0.24967   0.92280   0.42288   0.00000  Uiso   1.00
O488   O     0.26080   0.93629   0.37349   0.00000  Uiso   1.00
O489   O     0.25454   0.94806   0.45945   0.00000  Uiso   1.00
C490   C     0.31318   0.87753   0.46697   0.00000  Uiso   1.00
O491   O     0.32794   0.86697   0.41926   0.00000  Uiso   1.00
O492   O     0.00918   0.90157   0.48722   0.00000  Uiso   1.00
H493   H     0.04168   0.90781   0.45869   0.00000  Uiso   1.00
C494   C     0.12175   0.75539   0.04304   0.00000  Uiso   1.00
O495   O     0.16122   0.74095   0.03900   0.00000  Uiso   1.00
O496   O     0.07997   0.73948   0.08174   0.00000  Uiso   1.00
H497   H     0.08717   0.71688   0.10480   0.00000  Uiso   1.00
O498   O     0.46179   0.89442   0.25001   0.00000  Uiso   1.00
O499   O     0.53823   0.89441   0.25001   0.00000  Uiso   1.00
C500   C     0.50059   0.91327   0.24792   0.00000  Uiso   1.00
O501   O     0.44280   0.83333   0.32681   0.00000  Uiso   1.00
O502   O     0.51924   0.83332   0.32681   0.00000  Uiso   1.00
C503   C     0.47316   0.83432   0.35217   0.00000  Uiso   1.00
Zn504  Zn    0.44896   0.83334   0.25000   0.00000  Uiso   1.00
Zn505  Zn    0.55104   0.83333   0.25000   0.00000  Uiso   1.00
O506   O     0.46177   0.77226   0.25000   0.00000  Uiso   1.00
O507   O     0.53821   0.77225   0.25000   0.00000  Uiso   1.00
O508   O     0.48076   0.83335   0.17319   0.00000  Uiso   1.00
O509   O     0.55720   0.83334   0.17319   0.00000  Uiso   1.00
C510   C     0.50008   0.75340   0.24988   0.00000  Uiso   1.00
C511   C     0.52692   0.83389   0.14775   0.00000  Uiso   1.00
C512   C     0.59750   0.86454   0.00297   0.00000  Uiso   1.00
C513   C     0.54387   0.83724   0.08883   0.00000  Uiso   1.00
C514   C     0.41780   0.80377   0.43595   0.00000  Uiso   1.00
C515   C     0.41503   0.78345   0.48338   0.00000  Uiso   1.00
C516   C     0.45124   0.78883   0.00570   0.00000  Uiso   1.00
C517   C     0.48589   0.82169   0.48573   0.00000  Uiso   1.00
C518   C     0.48729   0.84282   0.43832   0.00000  Uiso   1.00
C519   C     0.51958   0.83414   0.01016   0.00000  Uiso   1.00
C520   C     0.55901   0.86046   0.48262   0.00000  Uiso   1.00
C521   C     0.55597   0.88479   0.43924   0.00000  Uiso   1.00
C522   C     0.52008   0.87578   0.41797   0.00000  Uiso   1.00
C523   C     0.51105   0.82611   0.06428   0.00000  Uiso   1.00
C524   C     0.58909   0.85369   0.05746   0.00000  Uiso   1.00
C525   C     0.45644   0.83030   0.41091   0.00000  Uiso   1.00
H526   H     0.47624   0.81448   0.08922   0.00000  Uiso   1.00
H527   H     0.39326   0.79467   0.41555   0.00000  Uiso   1.00
H528   H     0.38766   0.75974   0.49891   0.00000  Uiso   1.00
H529   H     0.51707   0.89538   0.38576   0.00000  Uiso   1.00
C530   C     0.52512   0.97825   0.27530   0.00000  Uiso   1.00
H531   H     0.54263   0.96134   0.29904   0.00000  Uiso   1.00
C532   C     0.52498   0.68769   0.27658   0.00000  Uiso   1.00
H533   H     0.54275   0.70382   0.30060   0.00000  Uiso   1.00
C534   C     0.50064   0.70934   0.24818   0.00000  Uiso   1.00
C535   C     0.47756   0.68910   0.21716   0.00000  Uiso   1.00
H536   H     0.46036   0.70707   0.19397   0.00000  Uiso   1.00
C537   C     0.47889   0.97934   0.21376   0.00000  Uiso   1.00
C538   C     0.50176   0.95748   0.24476   0.00000  Uiso   1.00
C539   C     0.65043   0.80085   0.22699   0.00000  Uiso   1.00
C540   C     0.36479   0.80100   0.22752   0.00000  Uiso   1.00
H541   H     0.38916   0.77548   0.20900   0.00000  Uiso   1.00
N542   N     0.38093   0.83334   0.25002   0.00000  Uiso   1.00
C543   C     0.35003   0.86570   0.27263   0.00000  Uiso   1.00
H544   H     0.36227   0.89166   0.29078   0.00000  Uiso   1.00
C545   C     0.63552   0.86570   0.27248   0.00000  Uiso   1.00
H546   H     0.61177   0.89169   0.28993   0.00000  Uiso   1.00
N547   N     0.61906   0.83331   0.25001   0.00000  Uiso   1.00
N548   N     0.62505   0.86126   0.08127   0.00000  Uiso   1.00
O549   O     0.62203   0.89429   0.11127   0.00000  Uiso   1.00
O550   O     0.66266   0.83692   0.06968   0.00000  Uiso   1.00
C551   C     0.45837   0.95894   0.17590   0.00000  Uiso   1.00
O552   O     0.47759   0.92781   0.15022   0.00000  Uiso   1.00
O553   O     0.41795   0.97649   0.16802   0.00000  Uiso   1.00
H554   H     0.40762   0.96019   0.14087   0.00000  Uiso   1.00
N555   N     0.63602   0.76659   0.20125   0.00000  Uiso   1.00
O556   O     0.64583   0.72851   0.21151   0.00000  Uiso   1.00
O557   O     0.62369   0.77335   0.15921   0.00000  Uiso   1.00
N558   N     0.58301   0.92280   0.42288   0.00000  Uiso   1.00
O559   O     0.59413   0.93629   0.37349   0.00000  Uiso   1.00
O560   O     0.58788   0.94806   0.45945   0.00000  Uiso   1.00
C561   C     0.64651   0.87753   0.46697   0.00000  Uiso   1.00
O562   O     0.66127   0.86697   0.41926   0.00000  Uiso   1.00
O563   O     0.34251   0.90157   0.48722   0.00000  Uiso   1.00
H564   H     0.37501   0.90781   0.45869   0.00000  Uiso   1.00
C565   C     0.45509   0.75539   0.04304   0.00000  Uiso   1.00
O566   O     0.49455   0.74095   0.03900   0.00000  Uiso   1.00
O567   O     0.41330   0.73948   0.08174   0.00000  Uiso   1.00
H568   H     0.42051   0.71688   0.10480   0.00000  Uiso   1.00
O569   O     0.79512   0.89442   0.25001   0.00000  Uiso   1.00
O570   O     0.87157   0.89441   0.25001   0.00000  Uiso   1.00
C571   C     0.83393   0.91327   0.24792   0.00000  Uiso   1.00
O572   O     0.77613   0.83333   0.32681   0.00000  Uiso   1.00
O573   O     0.85258   0.83332   0.32681   0.00000  Uiso   1.00
C574   C     0.80649   0.83432   0.35217   0.00000  Uiso   1.00
Zn575  Zn    0.78229   0.83334   0.25000   0.00000  Uiso   1.00
Zn576  Zn    0.88438   0.83333   0.25000   0.00000  Uiso   1.00
O577   O     0.79510   0.77226   0.25000   0.00000  Uiso   1.00
O578   O     0.87154   0.77225   0.25000   0.00000  Uiso   1.00
O579   O     0.81409   0.83335   0.17319   0.00000  Uiso   1.00
O580   O     0.89053   0.83334   0.17319   0.00000  Uiso   1.00
C581   C     0.83342   0.75340   0.24988   0.00000  Uiso   1.00
C582   C     0.86026   0.83389   0.14775   0.00000  Uiso   1.00
C583   C     0.93083   0.86454   0.00297   0.00000  Uiso   1.00
C584   C     0.87720   0.83724   0.08883   0.00000  Uiso   1.00
C585   C     0.75114   0.80377   0.43595   0.00000  Uiso   1.00
C586   C     0.74837   0.78345   0.48338   0.00000  Uiso   1.00
C587   C     0.78457   0.78883   0.00570   0.00000  Uiso   1.00
C588   C     0.81923   0.82169   0.48573   0.00000  Uiso   1.00
C589   C     0.82063   0.84282   0.43832   0.00000  Uiso   1.00
C590   C     0.85292   0.83414   0.01016   0.00000  Uiso   1.00
C591   C     0.89235   0.86046   0.48262   0.00000  Uiso   1.00
C592   C     0.88930   0.88479   0.43924   0.00000  Uiso   1.00
C593   C     0.85341   0.87578   0.41797   0.00000  Uiso   1.00
C594   C     0.84438   0.82611   0.06428   0.00000  Uiso   1.00
C595   C     0.92242   0.85369   0.05746   0.00000  Uiso   1.00
C596   C     0.78978   0.83030   0.41091   0.00000  Uiso   1.00
H597   H     0.80957   0.81448   0.08922   0.00000  Uiso   1.00
H598   H     0.72659   0.79467   0.41555   0.00000  Uiso   1.00
H599   H     0.72099   0.75974   0.49891   0.00000  Uiso   1.00
H600   H     0.85041   0.89538   0.38576   0.00000  Uiso   1.00
C601   C     0.85846   0.97825   0.27530   0.00000  Uiso   1.00
H602   H     0.87596   0.96134   0.29904   0.00000  Uiso   1.00
C603   C     0.85831   0.68769   0.27658   0.00000  Uiso   1.00
H604   H     0.87609   0.70382   0.30060   0.00000  Uiso   1.00
C605   C     0.83398   0.70934   0.24818   0.00000  Uiso   1.00
C606   C     0.81089   0.68910   0.21716   0.00000  Uiso   1.00
H607   H     0.79369   0.70707   0.19397   0.00000  Uiso   1.00
C608   C     0.81222   0.97934   0.21376   0.00000  Uiso   1.00
C609   C     0.83509   0.95748   0.24476   0.00000  Uiso   1.00
C610   C     0.98376   0.80085   0.22699   0.00000  Uiso   1.00
C611   C     0.69812   0.80100   0.22752   0.00000  Uiso   1.00
H612   H     0.72249   0.77548   0.20900   0.00000  Uiso   1.00
N613   N     0.71426   0.83334   0.25002   0.00000  Uiso   1.00
C614   C     0.68336   0.86570   0.27263   0.00000  Uiso   1.00
H615   H     0.69560   0.89166   0.29078   0.00000  Uiso   1.00
C616   C     0.96885   0.86570   0.27248   0.00000  Uiso   1.00
H617   H     0.94510   0.89169   0.28993   0.00000  Uiso   1.00
N618   N     0.95239   0.83331   0.25001   0.00000  Uiso   1.00
N619   N     0.95838   0.86126   0.08127   0.00000  Uiso   1.00
O620   O     0.95536   0.89429   0.11127   0.00000  Uiso   1.00
O621   O     0.99599   0.83692   0.06968   0.00000  Uiso   1.00
C622   C     0.79170   0.95894   0.17590   0.00000  Uiso   1.00
O623   O     0.81092   0.92781   0.15022   0.00000  Uiso   1.00
O624   O     0.75128   0.97649   0.16802   0.00000  Uiso   1.00
H625   H     0.74095   0.96019   0.14087   0.00000  Uiso   1.00
N626   N     0.96935   0.76659   0.20125   0.00000  Uiso   1.00
O627   O     0.97916   0.72851   0.21151   0.00000  Uiso   1.00
O628   O     0.95702   0.77335   0.15921   0.00000  Uiso   1.00
N629   N     0.91634   0.92280   0.42288   0.00000  Uiso   1.00
O630   O     0.92746   0.93629   0.37349   0.00000  Uiso   1.00
O631   O     0.92121   0.94806   0.45945   0.00000  Uiso   1.00
C632   C     0.97985   0.87753   0.46697   0.00000  Uiso   1.00
O633   O     0.99460   0.86697   0.41926   0.00000  Uiso   1.00
O634   O     0.67584   0.90157   0.48722   0.00000  Uiso   1.00
H635   H     0.70835   0.90781   0.45869   0.00000  Uiso   1.00
C636   C     0.78842   0.75539   0.04304   0.00000  Uiso   1.00
O637   O     0.82788   0.74095   0.03900   0.00000  Uiso   1.00
O638   O     0.74664   0.73948   0.08174   0.00000  Uiso   1.00
H639   H     0.75384   0.71688   0.10480   0.00000  Uiso   1.00
O640   O     0.12846   0.22775   0.75001   0.00000  Uiso   1.00
O641   O     0.20490   0.22774   0.75001   0.00000  Uiso   1.00
C642   C     0.16726   0.24660   0.74792   0.00000  Uiso   1.00
O643   O     0.10947   0.16666   0.82681   0.00000  Uiso   1.00
O644   O     0.18591   0.16665   0.82681   0.00000  Uiso   1.00
C645   C     0.13982   0.16765   0.85217   0.00000  Uiso   1.00
Zn646  Zn    0.11562   0.16667   0.75000   0.00000  Uiso   1.00
Zn647  Zn    0.21771   0.16666   0.75000   0.00000  Uiso   1.00
O648   O     0.12843   0.10559   0.75000   0.00000  Uiso   1.00
O649   O     0.20488   0.10558   0.75000   0.00000  Uiso   1.00
O650   O     0.14742   0.16668   0.67319   0.00000  Uiso   1.00
O651   O     0.22387   0.16667   0.67319   0.00000  Uiso   1.00
C652   C     0.16675   0.08673   0.74988   0.00000  Uiso   1.00
C653   C     0.19359   0.16722   0.64775   0.00000  Uiso   1.00
C654   C     0.26416   0.19788   0.50297   0.00000  Uiso   1.00
C655   C     0.21053   0.17057   0.58883   0.00000  Uiso   1.00
C656   C     0.08447   0.13710   0.93595   0.00000  Uiso   1.00
C657   C     0.08170   0.11679   0.98338   0.00000  Uiso   1.00
C658   C     0.11791   0.12216   0.50570   0.00000  Uiso   1.00
C659   C     0.15256   0.15502   0.98573   0.00000  Uiso   1.00
C660   C     0.15396   0.17616   0.93832   0.00000  Uiso   1.00
C661   C     0.18625   0.16747   0.51016   0.00000  Uiso   1.00
C662   C     0.22568   0.19379   0.98262   0.00000  Uiso   1.00
C663   C     0.22264   0.21813   0.93924   0.00000  Uiso   1.00
C664   C     0.18675   0.20911   0.91797   0.00000  Uiso   1.00
C665   C     0.17772   0.15945   0.56428   0.00000  Uiso   1.00
C666   C     0.25575   0.18702   0.55746   0.00000  Uiso   1.00
C667   C     0.12311   0.16363   0.91091   0.00000  Uiso   1.00
H668   H     0.14291   0.14782   0.58922   0.00000  Uiso   1.00
H669   H     0.05993   0.12800   0.91555   0.00000  Uiso   1.00
H670   H     0.05433   0.09308   0.99891   0.00000  Uiso   1.00
H671   H     0.18374   0.22871   0.88576   0.00000  Uiso   1.00
C672   C     0.19179   0.31158   0.77530   0.00000  Uiso   1.00
H673   H     0.20929   0.29467   0.79904   0.00000  Uiso   1.00
C674   C     0.19165   0.02102   0.77658   0.00000  Uiso   1.00
H675   H     0.20942   0.03716   0.80060   0.00000  Uiso   1.00
C676   C     0.16731   0.04268   0.74818   0.00000  Uiso   1.00
C677   C     0.14423   0.02243   0.71716   0.00000  Uiso   1.00
H678   H     0.12703   0.04040   0.69397   0.00000  Uiso   1.00
C679   C     0.14555   0.31267   0.71376   0.00000  Uiso   1.00
C680   C     0.16842   0.29082   0.74476   0.00000  Uiso   1.00
C681   C     0.31710   0.13418   0.72699   0.00000  Uiso   1.00
C682   C     0.03145   0.13433   0.72752   0.00000  Uiso   1.00
H683   H     0.05583   0.10881   0.70900   0.00000  Uiso   1.00
N684   N     0.04760   0.16668   0.75002   0.00000  Uiso   1.00
C685   C     0.01669   0.19903   0.77263   0.00000  Uiso   1.00
H686   H     0.02893   0.22499   0.79078   0.00000  Uiso   1.00
C687   C     0.30219   0.19903   0.77248   0.00000  Uiso   1.00
H688   H     0.27844   0.22502   0.78993   0.00000  Uiso   1.00
N689   N     0.28573   0.16665   0.75001   0.00000  Uiso   1.00
N690   N     0.29172   0.19459   0.58127   0.00000  Uiso   1.00
O691   O     0.28870   0.22762   0.61127   0.00000  Uiso   1.00
O692   O     0.32933   0.17025   0.56968   0.00000  Uiso   1.00
C693   C     0.12503   0.29228   0.67590   0.00000  Uiso   1.00
O694   O     0.14426   0.26114   0.65022   0.00000  Uiso   1.00
O695   O     0.08461   0.30982   0.66802   0.00000  Uiso   1.00
H696   H     0.07429   0.29352   0.64087   0.00000  Uiso   1.00
N697   N     0.30268   0.09992   0.70125   0.00000  Uiso   1.00
O698   O     0.31250   0.06184   0.71151   0.00000  Uiso   1.00
O699   O     0.29035   0.10668   0.65921   0.00000  Uiso   1.00
N700   N     0.24967   0.25613   0.92288   0.00000  Uiso   1.00
O701   O     0.26080   0.26962   0.87349   0.00000  Uiso   1.00
O702   O     0.25454   0.28140   0.95945   0.00000  Uiso   1.00
C703   C     0.31318   0.21086   0.96697   0.00000  Uiso   1.00
O704   O     0.32794   0.20030   0.91926   0.00000  Uiso   1.00
O705   O     0.00918   0.23490   0.98722   0.00000  Uiso   1.00
H706   H     0.04168   0.24115   0.95869   0.00000  Uiso   1.00
C707   C     0.12175   0.08873   0.54304   0.00000  Uiso   1.00
O708   O     0.16122   0.07428   0.53900   0.00000  Uiso   1.00
O709   O     0.07997   0.07281   0.58174   0.00000  Uiso   1.00
H710   H     0.08717   0.05021   0.60480   0.00000  Uiso   1.00
O711   O     0.46179   0.22775   0.75001   0.00000  Uiso   1.00
O712   O     0.53823   0.22774   0.75001   0.00000  Uiso   1.00
C713   C     0.50059   0.24660   0.74792   0.00000  Uiso   1.00
O714   O     0.44280   0.16666   0.82681   0.00000  Uiso   1.00
O715   O     0.51924   0.16665   0.82681   0.00000  Uiso   1.00
C716   C     0.47316   0.16765   0.85217   0.00000  Uiso   1.00
Zn717  Zn    0.44896   0.16667   0.75000   0.00000  Uiso   1.00
Zn718  Zn    0.55104   0.16666   0.75000   0.00000  Uiso   1.00
O719   O     0.46177   0.10559   0.75000   0.00000  Uiso   1.00
O720   O     0.53821   0.10558   0.75000   0.00000  Uiso   1.00
O721   O     0.48076   0.16668   0.67319   0.00000  Uiso   1.00
O722   O     0.55720   0.16667   0.67319   0.00000  Uiso   1.00
C723   C     0.50008   0.08673   0.74988   0.00000  Uiso   1.00
C724   C     0.52692   0.16722   0.64775   0.00000  Uiso   1.00
C725   C     0.59750   0.19788   0.50297   0.00000  Uiso   1.00
C726   C     0.54387   0.17057   0.58883   0.00000  Uiso   1.00
C727   C     0.41780   0.13710   0.93595   0.00000  Uiso   1.00
C728   C     0.41503   0.11679   0.98338   0.00000  Uiso   1.00
C729   C     0.45124   0.12216   0.50570   0.00000  Uiso   1.00
C730   C     0.48589   0.15502   0.98573   0.00000  Uiso   1.00
C731   C     0.48729   0.17616   0.93832   0.00000  Uiso   1.00
C732   C     0.51958   0.16747   0.51016   0.00000  Uiso   1.00
C733   C     0.55901   0.19379   0.98262   0.00000  Uiso   1.00
C734   C     0.55597   0.21813   0.93924   0.00000  Uiso   1.00
C735   C     0.52008   0.20911   0.91797   0.00000  Uiso   1.00
C736   C     0.51105   0.15945   0.56428   0.00000  Uiso   1.00
C737   C     0.58909   0.18702   0.55746   0.00000  Uiso   1.00
C738   C     0.45644   0.16363   0.91091   0.00000  Uiso   1.00
H739   H     0.47624   0.14782   0.58922   0.00000  Uiso   1.00
H740   H     0.39326   0.12800   0.91555   0.00000  Uiso   1.00
H741   H     0.38766   0.09308   0.99891   0.00000  Uiso   1.00
H742   H     0.51707   0.22871   0.88576   0.00000  Uiso   1.00
C743   C     0.52512   0.31158   0.77530   0.00000  Uiso   1.00
H744   H     0.54263   0.29467   0.79904   0.00000  Uiso   1.00
C745   C     0.52498   0.02102   0.77658   0.00000  Uiso   1.00
H746   H     0.54275   0.03716   0.80060   0.00000  Uiso   1.00
C747   C     0.50064   0.04268   0.74818   0.00000  Uiso   1.00
C748   C     0.47756   0.02243   0.71716   0.00000  Uiso   1.00
H749   H     0.46036   0.04040   0.69397   0.00000  Uiso   1.00
C750   C     0.47889   0.31267   0.71376   0.00000  Uiso   1.00
C751   C     0.50176   0.29082   0.74476   0.00000  Uiso   1.00
C752   C     0.65043   0.13418   0.72699   0.00000  Uiso   1.00
C753   C     0.36479   0.13433   0.72752   0.00000  Uiso   1.00
H754   H     0.38916   0.10881   0.70900   0.00000  Uiso   1.00
N755   N     0.38093   0.16668   0.75002   0.00000  Uiso   1.00
C756   C     0.35003   0.19903   0.77263   0.00000  Uiso   1.00
H757   H     0.36227   0.22499   0.79078   0.00000  Uiso   1.00
C758   C     0.63552   0.19903   0.77248   0.00000  Uiso   1.00
H759   H     0.61177   0.22502   0.78993   0.00000  Uiso   1.00
N760   N     0.61906   0.16665   0.75001   0.00000  Uiso   1.00
N761   N     0.62505   0.19459   0.58127   0.00000  Uiso   1.00
O762   O     0.62203   0.22762   0.61127   0.00000  Uiso   1.00
O763   O     0.66266   0.17025   0.56968   0.00000  Uiso   1.00
C764   C     0.45837   0.29228   0.67590   0.00000  Uiso   1.00
O765   O     0.47759   0.26114   0.65022   0.00000  Uiso   1.00
O766   O     0.41795   0.30982   0.66802   0.00000  Uiso   1.00
H767   H     0.40762   0.29352   0.64087   0.00000  Uiso   1.00
N768   N     0.63602   0.09992   0.70125   0.00000  Uiso   1.00
O769   O     0.64583   0.06184   0.71151   0.00000  Uiso   1.00
O770   O     0.62369   0.10668   0.65921   0.00000  Uiso   1.00
N771   N     0.58301   0.25613   0.92288   0.00000  Uiso   1.00
O772   O     0.59413   0.26962   0.87349   0.00000  Uiso   1.00
O773   O     0.58788   0.28140   0.95945   0.00000  Uiso   1.00
C774   C     0.64651   0.21086   0.96697   0.00000  Uiso   1.00
O775   O     0.66127   0.20030   0.91926   0.00000  Uiso   1.00
O776   O     0.34251   0.23490   0.98722   0.00000  Uiso   1.00
H777   H     0.37501   0.24115   0.95869   0.00000  Uiso   1.00
C778   C     0.45509   0.08873   0.54304   0.00000  Uiso   1.00
O779   O     0.49455   0.07428   0.53900   0.00000  Uiso   1.00
O780   O     0.41330   0.07281   0.58174   0.00000  Uiso   1.00
H781   H     0.42051   0.05021   0.60480   0.00000  Uiso   1.00
O782   O     0.79512   0.22775   0.75001   0.00000  Uiso   1.00
O783   O     0.87157   0.22774   0.75001   0.00000  Uiso   1.00
C784   C     0.83393   0.24660   0.74792   0.00000  Uiso   1.00
O785   O     0.77613   0.16666   0.82681   0.00000  Uiso   1.00
O786   O     0.85258   0.16665   0.82681   0.00000  Uiso   1.00
C787   C     0.80649   0.16765   0.85217   0.00000  Uiso   1.00
Zn788  Zn    0.78229   0.16667   0.75000   0.00000  Uiso   1.00
Zn789  Zn    0.88438   0.16666   0.75000   0.00000  Uiso   1.00
O790   O     0.79510   0.10559   0.75000   0.00000  Uiso   1.00
O791   O     0.87154   0.10558   0.75000   0.00000  Uiso   1.00
O792   O     0.81409   0.16668   0.67319   0.00000  Uiso   1.00
O793   O     0.89053   0.16667   0.67319   0.00000  Uiso   1.00
C794   C     0.83342   0.08673   0.74988   0.00000  Uiso   1.00
C795   C     0.86026   0.16722   0.64775   0.00000  Uiso   1.00
C796   C     0.93083   0.19788   0.50297   0.00000  Uiso   1.00
C797   C     0.87720   0.17057   0.58883   0.00000  Uiso   1.00
C798   C     0.75114   0.13710   0.93595   0.00000  Uiso   1.00
C799   C     0.74837   0.11679   0.98338   0.00000  Uiso   1.00
C800   C     0.78457   0.12216   0.50570   0.00000  Uiso   1.00
C801   C     0.81923   0.15502   0.98573   0.00000  Uiso   1.00
C802   C     0.82063   0.17616   0.93832   0.00000  Uiso   1.00
C803   C     0.85292   0.16747   0.51016   0.00000  Uiso   1.00
C804   C     0.89235   0.19379   0.98262   0.00000  Uiso   1.00
C805   C     0.88930   0.21813   0.93924   0.00000  Uiso   1.00
C806   C     0.85341   0.20911   0.91797   0.00000  Uiso   1.00
C807   C     0.84438   0.15945   0.56428   0.00000  Uiso   1.00
C808   C     0.92242   0.18702   0.55746   0.00000  Uiso   1.00
C809   C     0.78978   0.16363   0.91091   0.00000  Uiso   1.00
H810   H     0.80957   0.14782   0.58922   0.00000  Uiso   1.00
H811   H     0.72659   0.12800   0.91555   0.00000  Uiso   1.00
H812   H     0.72099   0.09308   0.99891   0.00000  Uiso   1.00
H813   H     0.85041   0.22871   0.88576   0.00000  Uiso   1.00
C814   C     0.85846   0.31158   0.77530   0.00000  Uiso   1.00
H815   H     0.87596   0.29467   0.79904   0.00000  Uiso   1.00
C816   C     0.85831   0.02102   0.77658   0.00000  Uiso   1.00
H817   H     0.87609   0.03716   0.80060   0.00000  Uiso   1.00
C818   C     0.83398   0.04268   0.74818   0.00000  Uiso   1.00
C819   C     0.81089   0.02243   0.71716   0.00000  Uiso   1.00
H820   H     0.79369   0.04040   0.69397   0.00000  Uiso   1.00
C821   C     0.81222   0.31267   0.71376   0.00000  Uiso   1.00
C822   C     0.83509   0.29082   0.74476   0.00000  Uiso   1.00
C823   C     0.98376   0.13418   0.72699   0.00000  Uiso   1.00
C824   C     0.69812   0.13433   0.72752   0.00000  Uiso   1.00
H825   H     0.72249   0.10881   0.70900   0.00000  Uiso   1.00
N826   N     0.71426   0.16668   0.75002   0.00000  Uiso   1.00
C827   C     0.68336   0.19903   0.77263   0.00000  Uiso   1.00
H828   H     0.69560   0.22499   0.79078   0.00000  Uiso   1.00
C829   C     0.96885   0.19903   0.77248   0.00000  Uiso   1.00
H830   H     0.94510   0.22502   0.78993   0.00000  Uiso   1.00
N831   N     0.95239   0.16665   0.75001   0.00000  Uiso   1.00
N832   N     0.95838   0.19459   0.58127   0.00000  Uiso   1.00
O833   O     0.95536   0.22762   0.61127   0.00000  Uiso   1.00
O834   O     0.99599   0.17025   0.56968   0.00000  Uiso   1.00
C835   C     0.79170   0.29228   0.67590   0.00000  Uiso   1.00
O836   O     0.81092   0.26114   0.65022   0.00000  Uiso   1.00
O837   O     0.75128   0.30982   0.66802   0.00000  Uiso   1.00
H838   H     0.74095   0.29352   0.64087   0.00000  Uiso   1.00
N839   N     0.96935   0.09992   0.70125   0.00000  Uiso   1.00
O840   O     0.97916   0.06184   0.71151   0.00000  Uiso   1.00
O841   O     0.95702   0.10668   0.65921   0.00000  Uiso   1.00
N842   N     0.91634   0.25613   0.92288   0.00000  Uiso   1.00
O843   O     0.92746   0.26962   0.87349   0.00000  Uiso   1.00
O844   O     0.92121   0.28140   0.95945   0.00000  Uiso   1.00
C845   C     0.97985   0.21086   0.96697   0.00000  Uiso   1.00
O846   O     0.99460   0.20030   0.91926   0.00000  Uiso   1.00
O847   O     0.67584   0.23490   0.98722   0.00000  Uiso   1.00
H848   H     0.70835   0.24115   0.95869   0.00000  Uiso   1.00
C849   C     0.78842   0.08873   0.54304   0.00000  Uiso   1.00
O850   O     0.82788   0.07428   0.53900   0.00000  Uiso   1.00
O851   O     0.74664   0.07281   0.58174   0.00000  Uiso   1.00
H852   H     0.75384   0.05021   0.60480   0.00000  Uiso   1.00
O853   O     0.12846   0.56108   0.75001   0.00000  Uiso   1.00
O854   O     0.20490   0.56107   0.75001   0.00000  Uiso   1.00
C855   C     0.16726   0.57993   0.74792   0.00000  Uiso   1.00
O856   O     0.10947   0.50000   0.82681   0.00000  Uiso   1.00
O857   O     0.18591   0.49999   0.82681   0.00000  Uiso   1.00
C858   C     0.13982   0.50098   0.85217   0.00000  Uiso   1.00
Zn859  Zn    0.11562   0.50001   0.75000   0.00000  Uiso   1.00
Zn860  Zn    0.21771   0.49999   0.75000   0.00000  Uiso   1.00
O861   O     0.12843   0.43893   0.75000   0.00000  Uiso   1.00
O862   O     0.20488   0.43892   0.75000   0.00000  Uiso   1.00
O863   O     0.14742   0.50001   0.67319   0.00000  Uiso   1.00
O864   O     0.22387   0.50000   0.67319   0.00000  Uiso   1.00
C865   C     0.16675   0.42006   0.74988   0.00000  Uiso   1.00
C866   C     0.19359   0.50056   0.64775   0.00000  Uiso   1.00
C867   C     0.26416   0.53121   0.50297   0.00000  Uiso   1.00
C868   C     0.21053   0.50391   0.58883   0.00000  Uiso   1.00
C869   C     0.08447   0.47044   0.93595   0.00000  Uiso   1.00
C870   C     0.08170   0.45012   0.98338   0.00000  Uiso   1.00
C871   C     0.11791   0.45549   0.50570   0.00000  Uiso   1.00
C872   C     0.15256   0.48835   0.98573   0.00000  Uiso   1.00
C873   C     0.15396   0.50949   0.93832   0.00000  Uiso   1.00
C874   C     0.18625   0.50080   0.51016   0.00000  Uiso   1.00
C875   C     0.22568   0.52713   0.98262   0.00000  Uiso   1.00
C876   C     0.22264   0.55146   0.93924   0.00000  Uiso   1.00
C877   C     0.18675   0.54245   0.91797   0.00000  Uiso   1.00
C878   C     0.17772   0.49278   0.56428   0.00000  Uiso   1.00
C879   C     0.25575   0.52035   0.55746   0.00000  Uiso   1.00
C880   C     0.12311   0.49696   0.91091   0.00000  Uiso   1.00
H881   H     0.14291   0.48115   0.58922   0.00000  Uiso   1.00
H882   H     0.05993   0.46134   0.91555   0.00000  Uiso   1.00
H883   H     0.05433   0.42641   0.99891   0.00000  Uiso   1.00
H884   H     0.18374   0.56204   0.88576   0.00000  Uiso   1.00
C885   C     0.19179   0.64491   0.77530   0.00000  Uiso   1.00
H886   H     0.20929   0.62801   0.79904   0.00000  Uiso   1.00
C887   C     0.19165   0.35435   0.77658   0.00000  Uiso   1.00
H888   H     0.20942   0.37049   0.80060   0.00000  Uiso   1.00
C889   C     0.16731   0.37601   0.74818   0.00000  Uiso   1.00
C890   C     0.14423   0.35576   0.71716   0.00000  Uiso   1.00
H891   H     0.12703   0.37373   0.69397   0.00000  Uiso   1.00
C892   C     0.14555   0.64600   0.71376   0.00000  Uiso   1.00
C893   C     0.16842   0.62415   0.74476   0.00000  Uiso   1.00
C894   C     0.31710   0.46752   0.72699   0.00000  Uiso   1.00
C895   C     0.03145   0.46766   0.72752   0.00000  Uiso   1.00
H896   H     0.05583   0.44215   0.70900   0.00000  Uiso   1.00
N897   N     0.04760   0.50001   0.75002   0.00000  Uiso   1.00
C898   C     0.01669   0.53236   0.77263   0.00000  Uiso   1.00
H899   H     0.02893   0.55833   0.79078   0.00000  Uiso   1.00
C900   C     0.30219   0.53237   0.77248   0.00000  Uiso   1.00
H901   H     0.27844   0.55836   0.78993   0.00000  Uiso   1.00
N902   N     0.28573   0.49998   0.75001   0.00000  Uiso   1.00
N903   N     0.29172   0.52793   0.58127   0.00000  Uiso   1.00
O904   O     0.28870   0.56096   0.61127   0.00000  Uiso   1.00
O905   O     0.32933   0.50359   0.56968   0.00000  Uiso   1.00
C906   C     0.12503   0.62561   0.67590   0.00000  Uiso   1.00
O907   O     0.14426   0.59448   0.65022   0.00000  Uiso   1.00
O908   O     0.08461   0.64315   0.66802   0.00000  Uiso   1.00
H909   H     0.07429   0.62685   0.64087   0.00000  Uiso   1.00
N910   N     0.30268   0.43326   0.70125   0.00000  Uiso   1.00
O911   O     0.31250   0.39518   0.71151   0.00000  Uiso   1.00
O912   O     0.29035   0.44001   0.65921   0.00000  Uiso   1.00
N913   N     0.24967   0.58947   0.92288   0.00000  Uiso   1.00
O914   O     0.26080   0.60296   0.87349   0.00000  Uiso   1.00
O915   O     0.25454   0.61473   0.95945   0.00000  Uiso   1.00
C916   C     0.31318   0.54420   0.96697   0.00000  Uiso   1.00
O917   O     0.32794   0.53364   0.91926   0.00000  Uiso   1.00
O918   O     0.00918   0.56824   0.98722   0.00000  Uiso   1.00
H919   H     0.04168   0.57448   0.95869   0.00000  Uiso   1.00
C920   C     0.12175   0.42206   0.54304   0.00000  Uiso   1.00
O921   O     0.16122   0.40762   0.53900   0.00000  Uiso   1.00
O922   O     0.07997   0.40615   0.58174   0.00000  Uiso   1.00
H923   H     0.08717   0.38355   0.60480   0.00000  Uiso   1.00
O924   O     0.46179   0.56108   0.75001   0.00000  Uiso   1.00
O925   O     0.53823   0.56107   0.75001   0.00000  Uiso   1.00
C926   C     0.50059   0.57993   0.74792   0.00000  Uiso   1.00
O927   O     0.44280   0.50000   0.82681   0.00000  Uiso   1.00
O928   O     0.51924   0.49999   0.82681   0.00000  Uiso   1.00
C929   C     0.47316   0.50098   0.85217   0.00000  Uiso   1.00
Zn930  Zn    0.44896   0.50001   0.75000   0.00000  Uiso   1.00
Zn931  Zn    0.55104   0.49999   0.75000   0.00000  Uiso   1.00
O932   O     0.46177   0.43893   0.75000   0.00000  Uiso   1.00
O933   O     0.53821   0.43892   0.75000   0.00000  Uiso   1.00
O934   O     0.48076   0.50001   0.67319   0.00000  Uiso   1.00
O935   O     0.55720   0.50000   0.67319   0.00000  Uiso   1.00
C936   C     0.50008   0.42006   0.74988   0.00000  Uiso   1.00
C937   C     0.52692   0.50056   0.64775   0.00000  Uiso   1.00
C938   C     0.59750   0.53121   0.50297   0.00000  Uiso   1.00
C939   C     0.54387   0.50391   0.58883   0.00000  Uiso   1.00
C940   C     0.41780   0.47044   0.93595   0.00000  Uiso   1.00
C941   C     0.41503   0.45012   0.98338   0.00000  Uiso   1.00
C942   C     0.45124   0.45549   0.50570   0.00000  Uiso   1.00
C943   C     0.48589   0.48835   0.98573   0.00000  Uiso   1.00
C944   C     0.48729   0.50949   0.93832   0.00000  Uiso   1.00
C945   C     0.51958   0.50080   0.51016   0.00000  Uiso   1.00
C946   C     0.55901   0.52713   0.98262   0.00000  Uiso   1.00
C947   C     0.55597   0.55146   0.93924   0.00000  Uiso   1.00
C948   C     0.52008   0.54245   0.91797   0.00000  Uiso   1.00
C949   C     0.51105   0.49278   0.56428   0.00000  Uiso   1.00
C950   C     0.58909   0.52035   0.55746   0.00000  Uiso   1.00
C951   C     0.45644   0.49696   0.91091   0.00000  Uiso   1.00
H952   H     0.47624   0.48115   0.58922   0.00000  Uiso   1.00
H953   H     0.39326   0.46134   0.91555   0.00000  Uiso   1.00
H954   H     0.38766   0.42641   0.99891   0.00000  Uiso   1.00
H955   H     0.51707   0.56204   0.88576   0.00000  Uiso   1.00
C956   C     0.52512   0.64491   0.77530   0.00000  Uiso   1.00
H957   H     0.54263   0.62801   0.79904   0.00000  Uiso   1.00
C958   C     0.52498   0.35435   0.77658   0.00000  Uiso   1.00
H959   H     0.54275   0.37049   0.80060   0.00000  Uiso   1.00
C960   C     0.50064   0.37601   0.74818   0.00000  Uiso   1.00
C961   C     0.47756   0.35576   0.71716   0.00000  Uiso   1.00
H962   H     0.46036   0.37373   0.69397   0.00000  Uiso   1.00
C963   C     0.47889   0.64600   0.71376   0.00000  Uiso   1.00
C964   C     0.50176   0.62415   0.74476   0.00000  Uiso   1.00
C965   C     0.65043   0.46752   0.72699   0.00000  Uiso   1.00
C966   C     0.36479   0.46766   0.72752   0.00000  Uiso   1.00
H967   H     0.38916   0.44215   0.70900   0.00000  Uiso   1.00
N968   N     0.38093   0.50001   0.75002   0.00000  Uiso   1.00
C969   C     0.35003   0.53236   0.77263   0.00000  Uiso   1.00
H970   H     0.36227   0.55833   0.79078   0.00000  Uiso   1.00
C971   C     0.63552   0.53237   0.77248   0.00000  Uiso   1.00
H972   H     0.61177   0.55836   0.78993   0.00000  Uiso   1.00
N973   N     0.61906   0.49998   0.75001   0.00000  Uiso   1.00
N974   N     0.62505   0.52793   0.58127   0.00000  Uiso   1.00
O975   O     0.62203   0.56096   0.61127   0.00000  Uiso   1.00
O976   O     0.66266   0.50359   0.56968   0.00000  Uiso   1.00
C977   C     0.45837   0.62561   0.67590   0.00000  Uiso   1.00
O978   O     0.47759   0.59448   0.65022   0.00000  Uiso   1.00
O979   O     0.41795   0.64315   0.66802   0.00000  Uiso   1.00
H980   H     0.40762   0.62685   0.64087   0.00000  Uiso   1.00
N981   N     0.63602   0.43326   0.70125   0.00000  Uiso   1.00
O982   O     0.64583   0.39518   0.71151   0.00000  Uiso   1.00
O983   O     0.62369   0.44001   0.65921   0.00000  Uiso   1.00
N984   N     0.58301   0.58947   0.92288   0.00000  Uiso   1.00
O985   O     0.59413   0.60296   0.87349   0.00000  Uiso   1.00
O986   O     0.58788   0.61473   0.95945   0.00000  Uiso   1.00
C987   C     0.64651   0.54420   0.96697   0.00000  Uiso   1.00
O988   O     0.66127   0.53364   0.91926   0.00000  Uiso   1.00
O989   O     0.34251   0.56824   0.98722   0.00000  Uiso   1.00
H990   H     0.37501   0.57448   0.95869   0.00000  Uiso   1.00
C991   C     0.45509   0.42206   0.54304   0.00000  Uiso   1.00
O992   O     0.49455   0.40762   0.53900   0.00000  Uiso   1.00
O993   O     0.41330   0.40615   0.58174   0.00000  Uiso   1.00
H994   H     0.42051   0.38355   0.60480   0.00000  Uiso   1.00
O995   O     0.79512   0.56108   0.75001   0.00000  Uiso   1.00
O996   O     0.87157   0.56107   0.75001   0.00000  Uiso   1.00
C997   C     0.83393   0.57993   0.74792   0.00000  Uiso   1.00
O998   O     0.77613   0.50000   0.82681   0.00000  Uiso   1.00
O999   O     0.85258   0.49999   0.82681   0.00000  Uiso   1.00
C1000  C     0.80649   0.50098   0.85217   0.00000  Uiso   1.00
Zn1001 Zn    0.78229   0.50001   0.75000   0.00000  Uiso   1.00
Zn1002 Zn    0.88438   0.49999   0.75000   0.00000  Uiso   1.00
O1003  O     0.79510   0.43893   0.75000   0.00000  Uiso   1.00
O1004  O     0.87154   0.43892   0.75000   0.00000  Uiso   1.00
O1005  O     0.81409   0.50001   0.67319   0.00000  Uiso   1.00
O1006  O     0.89053   0.50000   0.67319   0.00000  Uiso   1.00
C1007  C     0.83342   0.42006   0.74988   0.00000  Uiso   1.00
C1008  C     0.86026   0.50056   0.64775   0.00000  Uiso   1.00
C1009  C     0.93083   0.53121   0.50297   0.00000  Uiso   1.00
C1010  C     0.87720   0.50391   0.58883   0.00000  Uiso   1.00
C1011  C     0.75114   0.47044   0.93595   0.00000  Uiso   1.00
C1012  C     0.74837   0.45012   0.98338   0.00000  Uiso   1.00
C1013  C     0.78457   0.45549   0.50570   0.00000  Uiso   1.00
C1014  C     0.81923   0.48835   0.98573   0.00000  Uiso   1.00
C1015  C     0.82063   0.50949   0.93832   0.00000  Uiso   1.00
C1016  C     0.85292   0.50080   0.51016   0.00000  Uiso   1.00
C1017  C     0.89235   0.52713   0.98262   0.00000  Uiso   1.00
C1018  C     0.88930   0.55146   0.93924   0.00000  Uiso   1.00
C1019  C     0.85341   0.54245   0.91797   0.00000  Uiso   1.00
C1020  C     0.84438   0.49278   0.56428   0.00000  Uiso   1.00
C1021  C     0.92242   0.52035   0.55746   0.00000  Uiso   1.00
C1022  C     0.78978   0.49696   0.91091   0.00000  Uiso   1.00
H1023  H     0.80957   0.48115   0.58922   0.00000  Uiso   1.00
H1024  H     0.72659   0.46134   0.91555   0.00000  Uiso   1.00
H1025  H     0.72099   0.42641   0.99891   0.00000  Uiso   1.00
H1026  H     0.85041   0.56204   0.88576   0.00000  Uiso   1.00
C1027  C     0.85846   0.64491   0.77530   0.00000  Uiso   1.00
H1028  H     0.87596   0.62801   0.79904   0.00000  Uiso   1.00
C1029  C     0.85831   0.35435   0.77658   0.00000  Uiso   1.00
H1030  H     0.87609   0.37049   0.80060   0.00000  Uiso   1.00
C1031  C     0.83398   0.37601   0.74818   0.00000  Uiso   1.00
C1032  C     0.81089   0.35576   0.71716   0.00000  Uiso   1.00
H1033  H     0.79369   0.37373   0.69397   0.00000  Uiso   1.00
C1034  C     0.81222   0.64600   0.71376   0.00000  Uiso   1.00
C1035  C     0.83509   0.62415   0.74476   0.00000  Uiso   1.00
C1036  C     0.98376   0.46752   0.72699   0.00000  Uiso   1.00
C1037  C     0.69812   0.46766   0.72752   0.00000  Uiso   1.00
H1038  H     0.72249   0.44215   0.70900   0.00000  Uiso   1.00
N1039  N     0.71426   0.50001   0.75002   0.00000  Uiso   1.00
C1040  C     0.68336   0.53236   0.77263   0.00000  Uiso   1.00
H1041  H     0.69560   0.55833   0.79078   0.00000  Uiso   1.00
C1042  C     0.96885   0.53237   0.77248   0.00000  Uiso   1.00
H1043  H     0.94510   0.55836   0.78993   0.00000  Uiso   1.00
N1044  N     0.95239   0.49998   0.75001   0.00000  Uiso   1.00
N1045  N     0.95838   0.52793   0.58127   0.00000  Uiso   1.00
O1046  O     0.95536   0.56096   0.61127   0.00000  Uiso   1.00
O1047  O     0.99599   0.50359   0.56968   0.00000  Uiso   1.00
C1048  C     0.79170   0.62561   0.67590   0.00000  Uiso   1.00
O1049  O     0.81092   0.59448   0.65022   0.00000  Uiso   1.00
O1050  O     0.75128   0.64315   0.66802   0.00000  Uiso   1.00
H1051  H     0.74095   0.62685   0.64087   0.00000  Uiso   1.00
N1052  N     0.96935   0.43326   0.70125   0.00000  Uiso   1.00
O1053  O     0.97916   0.39518   0.71151   0.00000  Uiso   1.00
O1054  O     0.95702   0.44001   0.65921   0.00000  Uiso   1.00
N1055  N     0.91634   0.58947   0.92288   0.00000  Uiso   1.00
O1056  O     0.92746   0.60296   0.87349   0.00000  Uiso   1.00
O1057  O     0.92121   0.61473   0.95945   0.00000  Uiso   1.00
C1058  C     0.97985   0.54420   0.96697   0.00000  Uiso   1.00
O1059  O     0.99460   0.53364   0.91926   0.00000  Uiso   1.00
O1060  O     0.67584   0.56824   0.98722   0.00000  Uiso   1.00
H1061  H     0.70835   0.57448   0.95869   0.00000  Uiso   1.00
C1062  C     0.78842   0.42206   0.54304   0.00000  Uiso   1.00
O1063  O     0.82788   0.40762   0.53900   0.00000  Uiso   1.00
O1064  O     0.74664   0.40615   0.58174   0.00000  Uiso   1.00
H1065  H     0.75384   0.38355   0.60480   0.00000  Uiso   1.00
O1066  O     0.12846   0.89442   0.75001   0.00000  Uiso   1.00
O1067  O     0.20490   0.89441   0.75001   0.00000  Uiso   1.00
C1068  C     0.16726   0.91327   0.74792   0.00000  Uiso   1.00
O1069  O     0.10947   0.83333   0.82681   0.00000  Uiso   1.00
O1070  O     0.18591   0.83332   0.82681   0.00000  Uiso   1.00
C1071  C     0.13982   0.83432   0.85217   0.00000  Uiso   1.00
Zn1072 Zn    0.11562   0.83334   0.75000   0.00000  Uiso   1.00
Zn1073 Zn    0.21771   0.83333   0.75000   0.00000  Uiso   1.00
O1074  O     0.12843   0.77226   0.75000   0.00000  Uiso   1.00
O1075  O     0.20488   0.77225   0.75000   0.00000  Uiso   1.00
O1076  O     0.14742   0.83335   0.67319   0.00000  Uiso   1.00
O1077  O     0.22387   0.83334   0.67319   0.00000  Uiso   1.00
C1078  C     0.16675   0.75340   0.74988   0.00000  Uiso   1.00
C1079  C     0.19359   0.83389   0.64775   0.00000  Uiso   1.00
C1080  C     0.26416   0.86454   0.50297   0.00000  Uiso   1.00
C1081  C     0.21053   0.83724   0.58883   0.00000  Uiso   1.00
C1082  C     0.08447   0.80377   0.93595   0.00000  Uiso   1.00
C1083  C     0.08170   0.78345   0.98338   0.00000  Uiso   1.00
C1084  C     0.11791   0.78883   0.50570   0.00000  Uiso   1.00
C1085  C     0.15256   0.82169   0.98573   0.00000  Uiso   1.00
C1086  C     0.15396   0.84282   0.93832   0.00000  Uiso   1.00
C1087  C     0.18625   0.83414   0.51016   0.00000  Uiso   1.00
C1088  C     0.22568   0.86046   0.98262   0.00000  Uiso   1.00
C1089  C     0.22264   0.88479   0.93924   0.00000  Uiso   1.00
C1090  C     0.18675   0.87578   0.91797   0.00000  Uiso   1.00
C1091  C     0.17772   0.82611   0.56428   0.00000  Uiso   1.00
C1092  C     0.25575   0.85369   0.55746   0.00000  Uiso   1.00
C1093  C     0.12311   0.83030   0.91091   0.00000  Uiso   1.00
H1094  H     0.14291   0.81448   0.58922   0.00000  Uiso   1.00
H1095  H     0.05993   0.79467   0.91555   0.00000  Uiso   1.00
H1096  H     0.05433   0.75974   0.99891   0.00000  Uiso   1.00
H1097  H     0.18374   0.89538   0.88576   0.00000  Uiso   1.00
C1098  C     0.19179   0.97825   0.77530   0.00000  Uiso   1.00
H1099  H     0.20929   0.96134   0.79904   0.00000  Uiso   1.00
C1100  C     0.19165   0.68769   0.77658   0.00000  Uiso   1.00
H1101  H     0.20942   0.70382   0.80060   0.00000  Uiso   1.00
C1102  C     0.16731   0.70934   0.74818   0.00000  Uiso   1.00
C1103  C     0.14423   0.68910   0.71716   0.00000  Uiso   1.00
H1104  H     0.12703   0.70707   0.69397   0.00000  Uiso   1.00
C1105  C     0.14555   0.97934   0.71376   0.00000  Uiso   1.00
C1106  C     0.16842   0.95748   0.74476   0.00000  Uiso   1.00
C1107  C     0.31710   0.80085   0.72699   0.00000  Uiso   1.00
C1108  C     0.03145   0.80100   0.72752   0.00000  Uiso   1.00
H1109  H     0.05583   0.77548   0.70900   0.00000  Uiso   1.00
N1110  N     0.04760   0.83334   0.75002   0.00000  Uiso   1.00
C1111  C     0.01669   0.86570   0.77263   0.00000  Uiso   1.00
H1112  H     0.02893   0.89166   0.79078   0.00000  Uiso   1.00
C1113  C     0.30219   0.86570   0.77248   0.00000  Uiso   1.00
H1114  H     0.27844   0.89169   0.78993   0.00000  Uiso   1.00
N1115  N     0.28573   0.83331   0.75001   0.00000  Uiso   1.00
N1116  N     0.29172   0.86126   0.58127   0.00000  Uiso   1.00
O1117  O     0.28870   0.89429   0.61127   0.00000  Uiso   1.00
O1118  O     0.32933   0.83692   0.56968   0.00000  Uiso   1.00
C1119  C     0.12503   0.95894   0.67590   0.00000  Uiso   1.00
O1120  O     0.14426   0.92781   0.65022   0.00000  Uiso   1.00
O1121  O     0.08461   0.97649   0.66802   0.00000  Uiso   1.00
H1122  H     0.07429   0.96019   0.64087   0.00000  Uiso   1.00
N1123  N     0.30268   0.76659   0.70125   0.00000  Uiso   1.00
O1124  O     0.31250   0.72851   0.71151   0.00000  Uiso   1.00
O1125  O     0.29035   0.77335   0.65921   0.00000  Uiso   1.00
N1126  N     0.24967   0.92280   0.92288   0.00000  Uiso   1.00
O1127  O     0.26080   0.93629   0.87349   0.00000  Uiso   1.00
O1128  O     0.25454   0.94806   0.95945   0.00000  Uiso   1.00
C1129  C     0.31318   0.87753   0.96697   0.00000  Uiso   1.00
O1130  O     0.32794   0.86697   0.91926   0.00000  Uiso   1.00
O1131  O     0.00918   0.90157   0.98722   0.00000  Uiso   1.00
H1132  H     0.04168   0.90781   0.95869   0.00000  Uiso   1.00
C1133  C     0.12175   0.75539   0.54304   0.00000  Uiso   1.00
O1134  O     0.16122   0.74095   0.53900   0.00000  Uiso   1.00
O1135  O     0.07997   0.73948   0.58174   0.00000  Uiso   1.00
H1136  H     0.08717   0.71688   0.60480   0.00000  Uiso   1.00
O1137  O     0.46179   0.89442   0.75001   0.00000  Uiso   1.00
O1138  O     0.53823   0.89441   0.75001   0.00000  Uiso   1.00
C1139  C     0.50059   0.91327   0.74792   0.00000  Uiso   1.00
O1140  O     0.44280   0.83333   0.82681   0.00000  Uiso   1.00
O1141  O     0.51924   0.83332   0.82681   0.00000  Uiso   1.00
C1142  C     0.47316   0.83432   0.85217   0.00000  Uiso   1.00
Zn1143 Zn    0.44896   0.83334   0.75000   0.00000  Uiso   1.00
Zn1144 Zn    0.55104   0.83333   0.75000   0.00000  Uiso   1.00
O1145  O     0.46177   0.77226   0.75000   0.00000  Uiso   1.00
O1146  O     0.53821   0.77225   0.75000   0.00000  Uiso   1.00
O1147  O     0.48076   0.83335   0.67319   0.00000  Uiso   1.00
O1148  O     0.55720   0.83334   0.67319   0.00000  Uiso   1.00
C1149  C     0.50008   0.75340   0.74988   0.00000  Uiso   1.00
C1150  C     0.52692   0.83389   0.64775   0.00000  Uiso   1.00
C1151  C     0.59750   0.86454   0.50297   0.00000  Uiso   1.00
C1152  C     0.54387   0.83724   0.58883   0.00000  Uiso   1.00
C1153  C     0.41780   0.80377   0.93595   0.00000  Uiso   1.00
C1154  C     0.41503   0.78345   0.98338   0.00000  Uiso   1.00
C1155  C     0.45124   0.78883   0.50570   0.00000  Uiso   1.00
C1156  C     0.48589   0.82169   0.98573   0.00000  Uiso   1.00
C1157  C     0.48729   0.84282   0.93832   0.00000  Uiso   1.00
C1158  C     0.51958   0.83414   0.51016   0.00000  Uiso   1.00
C1159  C     0.55901   0.86046   0.98262   0.00000  Uiso   1.00
C1160  C     0.55597   0.88479   0.93924   0.00000  Uiso   1.00
C1161  C     0.52008   0.87578   0.91797   0.00000  Uiso   1.00
C1162  C     0.51105   0.82611   0.56428   0.00000  Uiso   1.00
C1163  C     0.58909   0.85369   0.55746   0.00000  Uiso   1.00
C1164  C     0.45644   0.83030   0.91091   0.00000  Uiso   1.00
H1165  H     0.47624   0.81448   0.58922   0.00000  Uiso   1.00
H1166  H     0.39326   0.79467   0.91555   0.00000  Uiso   1.00
H1167  H     0.38766   0.75974   0.99891   0.00000  Uiso   1.00
H1168  H     0.51707   0.89538   0.88576   0.00000  Uiso   1.00
C1169  C     0.52512   0.97825   0.77530   0.00000  Uiso   1.00
H1170  H     0.54263   0.96134   0.79904   0.00000  Uiso   1.00
C1171  C     0.52498   0.68769   0.77658   0.00000  Uiso   1.00
H1172  H     0.54275   0.70382   0.80060   0.00000  Uiso   1.00
C1173  C     0.50064   0.70934   0.74818   0.00000  Uiso   1.00
C1174  C     0.47756   0.68910   0.71716   0.00000  Uiso   1.00
H1175  H     0.46036   0.70707   0.69397   0.00000  Uiso   1.00
C1176  C     0.47889   0.97934   0.71376   0.00000  Uiso   1.00
C1177  C     0.50176   0.95748   0.74476   0.00000  Uiso   1.00
C1178  C     0.65043   0.80085   0.72699   0.00000  Uiso   1.00
C1179  C     0.36479   0.80100   0.72752   0.00000  Uiso   1.00
H1180  H     0.38916   0.77548   0.70900   0.00000  Uiso   1.00
N1181  N     0.38093   0.83334   0.75002   0.00000  Uiso   1.00
C1182  C     0.35003   0.86570   0.77263   0.00000  Uiso   1.00
H1183  H     0.36227   0.89166   0.79078   0.00000  Uiso   1.00
C1184  C     0.63552   0.86570   0.77248   0.00000  Uiso   1.00
H1185  H     0.61177   0.89169   0.78993   0.00000  Uiso   1.00
N1186  N     0.61906   0.83331   0.75001   0.00000  Uiso   1.00
N1187  N     0.62505   0.86126   0.58127   0.00000  Uiso   1.00
O1188  O     0.62203   0.89429   0.61127   0.00000  Uiso   1.00
O1189  O     0.66266   0.83692   0.56968   0.00000  Uiso   1.00
C1190  C     0.45837   0.95894   0.67590   0.00000  Uiso   1.00
O1191  O     0.47759   0.92781   0.65022   0.00000  Uiso   1.00
O1192  O     0.41795   0.97649   0.66802   0.00000  Uiso   1.00
H1193  H     0.40762   0.96019   0.64087   0.00000  Uiso   1.00
N1194  N     0.63602   0.76659   0.70125   0.00000  Uiso   1.00
O1195  O     0.64583   0.72851   0.71151   0.00000  Uiso   1.00
O1196  O     0.62369   0.77335   0.65921   0.00000  Uiso   1.00
N1197  N     0.58301   0.92280   0.92288   0.00000  Uiso   1.00
O1198  O     0.59413   0.93629   0.87349   0.00000  Uiso   1.00
O1199  O     0.58788   0.94806   0.95945   0.00000  Uiso   1.00
C1200  C     0.64651   0.87753   0.96697   0.00000  Uiso   1.00
O1201  O     0.66127   0.86697   0.91926   0.00000  Uiso   1.00
O1202  O     0.34251   0.90157   0.98722   0.00000  Uiso   1.00
H1203  H     0.37501   0.90781   0.95869   0.00000  Uiso   1.00
C1204  C     0.45509   0.75539   0.54304   0.00000  Uiso   1.00
O1205  O     0.49455   0.74095   0.53900   0.00000  Uiso   1.00
O1206  O     0.41330   0.73948   0.58174   0.00000  Uiso   1.00
H1207  H     0.42051   0.71688   0.60480   0.00000  Uiso   1.00
O1208  O     0.79512   0.89442   0.75001   0.00000  Uiso   1.00
O1209  O     0.87157   0.89441   0.75001   0.00000  Uiso   1.00
C1210  C     0.83393   0.91327   0.74792   0.00000  Uiso   1.00
O1211  O     0.77613   0.83333   0.82681   0.00000  Uiso   1.00
O1212  O     0.85258   0.83332   0.82681   0.00000  Uiso   1.00
C1213  C     0.80649   0.83432   0.85217   0.00000  Uiso   1.00
Zn1214 Zn    0.78229   0.83334   0.75000   0.00000  Uiso   1.00
Zn1215 Zn    0.88438   0.83333   0.75000   0.00000  Uiso   1.00
O1216  O     0.79510   0.77226   0.75000   0.00000  Uiso   1.00
O1217  O     0.87154   0.77225   0.75000   0.00000  Uiso   1.00
O1218  O     0.81409   0.83335   0.67319   0.00000  Uiso   1.00
O1219  O     0.89053   0.83334   0.67319   0.00000  Uiso   1.00
C1220  C     0.83342   0.75340   0.74988   0.00000  Uiso   1.00
C1221  C     0.86026   0.83389   0.64775   0.00000  Uiso   1.00
C1222  C     0.93083   0.86454   0.50297   0.00000  Uiso   1.00
C1223  C     0.87720   0.83724   0.58883   0.00000  Uiso   1.00
C1224  C     0.75114   0.80377   0.93595   0.00000  Uiso   1.00
C1225  C     0.74837   0.78345   0.98338   0.00000  Uiso   1.00
C1226  C     0.78457   0.78883   0.50570   0.00000  Uiso   1.00
C1227  C     0.81923   0.82169   0.98573   0.00000  Uiso   1.00
C1228  C     0.82063   0.84282   0.93832   0.00000  Uiso   1.00
C1229  C     0.85292   0.83414   0.51016   0.00000  Uiso   1.00
C1230  C     0.89235   0.86046   0.98262   0.00000  Uiso   1.00
C1231  C     0.88930   0.88479   0.93924   0.00000  Uiso   1.00
C1232  C     0.85341   0.87578   0.91797   0.00000  Uiso   1.00
C1233  C     0.84438   0.82611   0.56428   0.00000  Uiso   1.00
C1234  C     0.92242   0.85369   0.55746   0.00000  Uiso   1.00
C1235  C     0.78978   0.83030   0.91091   0.00000  Uiso   1.00
H1236  H     0.80957   0.81448   0.58922   0.00000  Uiso   1.00
H1237  H     0.72659   0.79467   0.91555   0.00000  Uiso   1.00
H1238  H     0.72099   0.75974   0.99891   0.00000  Uiso   1.00
H1239  H     0.85041   0.89538   0.88576   0.00000  Uiso   1.00
C1240  C     0.85846   0.97825   0.77530   0.00000  Uiso   1.00
H1241  H     0.87596   0.96134   0.79904   0.00000  Uiso   1.00
C1242  C     0.85831   0.68769   0.77658   0.00000  Uiso   1.00
H1243  H     0.87609   0.70382   0.80060   0.00000  Uiso   1.00
C1244  C     0.83398   0.70934   0.74818   0.00000  Uiso   1.00
C1245  C     0.81089   0.68910   0.71716   0.00000  Uiso   1.00
H1246  H     0.79369   0.70707   0.69397   0.00000  Uiso   1.00
C1247  C     0.81222   0.97934   0.71376   0.00000  Uiso   1.00
C1248  C     0.83509   0.95748   0.74476   0.00000  Uiso   1.00
C1249  C     0.98376   0.80085   0.72699   0.00000  Uiso   1.00
C1250  C     0.69812   0.80100   0.72752   0.00000  Uiso   1.00
H1251  H     0.72249   0.77548   0.70900   0.00000  Uiso   1.00
N1252  N     0.71426   0.83334   0.75002   0.00000  Uiso   1.00
C1253  C     0.68336   0.86570   0.77263   0.00000  Uiso   1.00
H1254  H     0.69560   0.89166   0.79078   0.00000  Uiso   1.00
C1255  C     0.96885   0.86570   0.77248   0.00000  Uiso   1.00
H1256  H     0.94510   0.89169   0.78993   0.00000  Uiso   1.00
N1257  N     0.95239   0.83331   0.75001   0.00000  Uiso   1.00
N1258  N     0.95838   0.86126   0.58127   0.00000  Uiso   1.00
O1259  O     0.95536   0.89429   0.61127   0.00000  Uiso   1.00
O1260  O     0.99599   0.83692   0.56968   0.00000  Uiso   1.00
C1261  C     0.79170   0.95894   0.67590   0.00000  Uiso   1.00
O1262  O     0.81092   0.92781   0.65022   0.00000  Uiso   1.00
O1263  O     0.75128   0.97649   0.66802   0.00000  Uiso   1.00
H1264  H     0.74095   0.96019   0.64087   0.00000  Uiso   1.00
N1265  N     0.96935   0.76659   0.70125   0.00000  Uiso   1.00
O1266  O     0.97916   0.72851   0.71151   0.00000  Uiso   1.00
O1267  O     0.95702   0.77335   0.65921   0.00000  Uiso   1.00
N1268  N     0.91634   0.92280   0.92288   0.00000  Uiso   1.00
O1269  O     0.92746   0.93629   0.87349   0.00000  Uiso   1.00
O1270  O     0.92121   0.94806   0.95945   0.00000  Uiso   1.00
C1271  C     0.97985   0.87753   0.96697   0.00000  Uiso   1.00
O1272  O     0.99460   0.86697   0.91926   0.00000  Uiso   1.00
O1273  O     0.67584   0.90157   0.98722   0.00000  Uiso   1.00
H1274  H     0.70835   0.90781   0.95869   0.00000  Uiso   1.00
C1275  C     0.78842   0.75539   0.54304   0.00000  Uiso   1.00
O1276  O     0.82788   0.74095   0.53900   0.00000  Uiso   1.00
O1277  O     0.74664   0.73948   0.58174   0.00000  Uiso   1.00
H1278  H     0.75384   0.71688   0.60480   0.00000  Uiso   1.00
loop_
_geom_bond_atom_site_label_1
_geom_bond_atom_site_label_2
_geom_bond_distance
_geom_bond_site_symmetry_2
_ccdc_geom_bond_type
O1     Zn7     1.991   .     S
O1     C3      1.284   .     A
O2     C3      1.282   .     A
O2     Zn8     1.988   .     S
C3     C41     1.416   .     S
O4     Zn7     1.967   .     S
O4     C6      1.293   .     A
O5     Zn8     1.910   .     S
O5     C6      1.293   .     A
C6     C28     1.457   .     S
Zn7    O11     1.910   .     S
Zn7    N45     2.013   .     S
Zn7    O9      1.988   .     S
Zn8    O12     1.967   .     S
Zn8    O10     1.991   .     S
Zn8    N50     2.013   .     S
O9     C13     1.281   .     A
O10    C13     1.283   .     A
O11    C14     1.295   .     A
O12    C14     1.292   .     A
C13    C37     1.409   .     S
C14    C16     1.459   .     S
C15    C27     1.413   .     A
C15    C662    1.424   1_554 S
C15    C703    1.491   1_554 S
C16    C27     1.410   .     A
C16    C26     1.388   .     A
C17    C18     1.386   .     A
C17    H30     1.083   .     S
C17    C28     1.396   .     A
C18    H31     1.084   .     S
C18    C658    1.401   .     S
C19    C68     1.485   .     S
C19    C657    1.401   1_554 S
C19    C659    1.438   1_554 S
C20    C21     1.409   .     A
C20    C658    1.438   .     S
C20    C661    1.420   .     S
C21    C28     1.406   .     A
C21    C25     1.410   .     A
C22    C26     1.383   .     A
C22    C659    1.420   1_554 S
C22    C662    1.421   1_554 S
C23    C24     1.412   .     A
C23    C654    1.424   .     S
C23    C661    1.421   .     S
C24    C25     1.393   .     A
C24    N61     1.440   .     S
C25    H32     1.084   .     S
C26    H29     1.079   .     S
C27    N51     1.432   .     S
C33    C41     1.398   .     A
C33    H34     1.084   .     S
C33    C248    1.368   .     S
C35    H36     1.084   .     S
C35    C37     1.389   .     A
C35    C459    1.368   1_545 S
C37    C38     1.394   .     A
C38    H39     1.085   .     S
C38    C466    1.380   1_545 S
C40    C41     1.413   .     A
C40    C54     1.487   .     S
C40    C251    1.380   .     S
C42    N58     1.429   .     S
C42    N50     1.379   .     A
C42    C114    1.416   .     S
C43    N45     1.359   .     A
C43    H44     1.082   .     S
C43    C184    1.416   1_455 S
N45    C46     1.367   .     A
C46    H47     1.082   .     S
C46    C190    1.417   1_455 S
C48    N50     1.365   .     A
C48    H49     1.079   .     S
C48    C117    1.417   .     S
N51    O53     1.301   .     A
N51    O52     1.301   .     A
C54    O55     1.223   .     D
C54    O56     1.399   .     S
O56    H57     1.014   .     S
N58    O60     1.299   .     A
N58    O59     1.301   .     A
N61    O62     1.301   .     A
N61    O63     1.302   .     A
C64    O65     1.223   .     D
C64    C654    1.491   .     S
C64    O137    1.398   .     S
O66    H67     1.014   .     S
O66    C206    1.398   1_455 S
C68    O70     1.399   .     S
C68    O69     1.223   .     D
O70    H71     1.014   .     S
O72    Zn78    1.991   .     S
O72    C74     1.284   .     A
O73    C74     1.282   .     A
O73    Zn79    1.988   .     S
C74    C112    1.416   .     S
O75    Zn78    1.967   .     S
O75    C77     1.293   .     A
O76    Zn79    1.910   .     S
O76    C77     1.293   .     A
C77    C99     1.457   .     S
Zn78   O82     1.910   .     S
Zn78   N116    2.013   .     S
Zn78   O80     1.988   .     S
Zn79   O83     1.967   .     S
Zn79   O81     1.991   .     S
Zn79   N121    2.013   .     S
O80    C84     1.281   .     A
O81    C84     1.283   .     A
O82    C85     1.295   .     A
O83    C85     1.292   .     A
C84    C108    1.409   .     S
C85    C87     1.459   .     S
C86    C98     1.413   .     A
C86    C733    1.424   1_554 S
C86    C774    1.491   1_554 S
C87    C98     1.410   .     A
C87    C97     1.388   .     A
C88    C89     1.386   .     A
C88    H101    1.083   .     S
C88    C99     1.396   .     A
C89    H102    1.084   .     S
C89    C729    1.401   .     S
C90    C139    1.485   .     S
C90    C728    1.401   1_554 S
C90    C730    1.438   1_554 S
C91    C92     1.409   .     A
C91    C729    1.438   .     S
C91    C732    1.420   .     S
C92    C99     1.406   .     A
C92    C96     1.410   .     A
C93    C97     1.383   .     A
C93    C730    1.420   1_554 S
C93    C733    1.421   1_554 S
C94    C95     1.412   .     A
C94    C725    1.424   .     S
C94    C732    1.421   .     S
C95    C96     1.393   .     A
C95    N132    1.440   .     S
C96    H103    1.084   .     S
C97    H100    1.079   .     S
C98    N122    1.432   .     S
C104   C112    1.398   .     A
C104   H105    1.084   .     S
C104   C319    1.368   .     S
C106   H107    1.084   .     S
C106   C108    1.389   .     A
C106   C530    1.368   1_545 S
C108   C109    1.394   .     A
C109   H110    1.085   .     S
C109   C537    1.380   1_545 S
C111   C112    1.413   .     A
C111   C125    1.487   .     S
C111   C322    1.380   .     S
C113   N129    1.429   .     S
C113   N121    1.379   .     A
C113   C185    1.416   .     S
C114   N116    1.359   .     A
C114   H115    1.082   .     S
N116   C117    1.367   .     A
C117   H118    1.082   .     S
C119   N121    1.365   .     A
C119   H120    1.079   .     S
C119   C188    1.417   .     S
N122   O124    1.301   .     A
N122   O123    1.301   .     A
C125   O126    1.223   .     D
C125   O127    1.399   .     S
O127   H128    1.014   .     S
N129   O131    1.299   .     A
N129   O130    1.301   .     A
N132   O133    1.301   .     A
N132   O134    1.302   .     A
C135   O136    1.223   .     D
C135   C725    1.491   .     S
C135   O208    1.398   .     S
O137   H138    1.014   .     S
C139   O141    1.399   .     S
C139   O140    1.223   .     D
O141   H142    1.014   .     S
O143   Zn149   1.991   .     S
O143   C145    1.284   .     A
O144   C145    1.282   .     A
O144   Zn150   1.988   .     S
C145   C183    1.416   .     S
O146   Zn149   1.967   .     S
O146   C148    1.293   .     A
O147   Zn150   1.910   .     S
O147   C148    1.293   .     A
C148   C170    1.457   .     S
Zn149  O153    1.910   .     S
Zn149  N187    2.013   .     S
Zn149  O151    1.988   .     S
Zn150  O154    1.967   .     S
Zn150  O152    1.991   .     S
Zn150  N192    2.013   .     S
O151   C155    1.281   .     A
O152   C155    1.283   .     A
O153   C156    1.295   .     A
O154   C156    1.292   .     A
C155   C179    1.409   .     S
C156   C158    1.459   .     S
C157   C169    1.413   .     A
C157   C804    1.424   1_554 S
C157   C845    1.491   1_554 S
C158   C169    1.410   .     A
C158   C168    1.388   .     A
C159   C160    1.386   .     A
C159   H172    1.083   .     S
C159   C170    1.396   .     A
C160   H173    1.084   .     S
C160   C800    1.401   .     S
C161   C210    1.485   .     S
C161   C799    1.401   1_554 S
C161   C801    1.438   1_554 S
C162   C163    1.409   .     A
C162   C800    1.438   .     S
C162   C803    1.420   .     S
C163   C170    1.406   .     A
C163   C167    1.410   .     A
C164   C168    1.383   .     A
C164   C801    1.420   1_554 S
C164   C804    1.421   1_554 S
C165   C166    1.412   .     A
C165   C796    1.424   .     S
C165   C803    1.421   .     S
C166   C167    1.393   .     A
C166   N203    1.440   .     S
C167   H174    1.084   .     S
C168   H171    1.079   .     S
C169   N193    1.432   .     S
C175   C183    1.398   .     A
C175   H176    1.084   .     S
C175   C390    1.368   .     S
C177   H178    1.084   .     S
C177   C179    1.389   .     A
C177   C601    1.368   1_545 S
C179   C180    1.394   .     A
C180   H181    1.085   .     S
C180   C608    1.380   1_545 S
C182   C183    1.413   .     A
C182   C196    1.487   .     S
C182   C393    1.380   .     S
C184   N200    1.429   .     S
C184   N192    1.379   .     A
C184   C43     1.416   1_655 S
C185   N187    1.359   .     A
C185   H186    1.082   .     S
N187   C188    1.367   .     A
C188   H189    1.082   .     S
C190   N192    1.365   .     A
C190   H191    1.079   .     S
C190   C46     1.417   1_655 S
N193   O195    1.301   .     A
N193   O194    1.301   .     A
C196   O197    1.223   .     D
C196   O198    1.399   .     S
O198   H199    1.014   .     S
N200   O202    1.299   .     A
N200   O201    1.301   .     A
N203   O204    1.301   .     A
N203   O205    1.302   .     A
C206   O207    1.223   .     D
C206   C796    1.491   .     S
C206   O66     1.398   1_655 S
O208   H209    1.014   .     S
C210   O212    1.399   .     S
C210   O211    1.223   .     D
O212   H213    1.014   .     S
O214   Zn220   1.991   .     S
O214   C216    1.284   .     A
O215   C216    1.282   .     A
O215   Zn221   1.988   .     S
C216   C254    1.416   .     S
O217   Zn220   1.967   .     S
O217   C219    1.293   .     A
O218   Zn221   1.910   .     S
O218   C219    1.293   .     A
C219   C241    1.457   .     S
Zn220  O224    1.910   .     S
Zn220  N258    2.013   .     S
Zn220  O222    1.988   .     S
Zn221  O225    1.967   .     S
Zn221  O223    1.991   .     S
Zn221  N263    2.013   .     S
O222   C226    1.281   .     A
O223   C226    1.283   .     A
O224   C227    1.295   .     A
O225   C227    1.292   .     A
C226   C250    1.409   .     S
C227   C229    1.459   .     S
C228   C240    1.413   .     A
C228   C875    1.424   1_554 S
C228   C916    1.491   1_554 S
C229   C240    1.410   .     A
C229   C239    1.388   .     A
C230   C231    1.386   .     A
C230   H243    1.083   .     S
C230   C241    1.396   .     A
C231   H244    1.084   .     S
C231   C871    1.401   .     S
C232   C281    1.485   .     S
C232   C870    1.401   1_554 S
C232   C872    1.438   1_554 S
C233   C234    1.409   .     A
C233   C871    1.438   .     S
C233   C874    1.420   .     S
C234   C241    1.406   .     A
C234   C238    1.410   .     A
C235   C239    1.383   .     A
C235   C872    1.420   1_554 S
C235   C875    1.421   1_554 S
C236   C237    1.412   .     A
C236   C867    1.424   .     S
C236   C874    1.421   .     S
C237   C238    1.393   .     A
C237   N274    1.440   .     S
C238   H245    1.084   .     S
C239   H242    1.079   .     S
C240   N264    1.432   .     S
C246   C254    1.398   .     A
C246   H247    1.084   .     S
C246   C461    1.368   .     S
C248   H249    1.084   .     S
C248   C250    1.389   .     A
C250   C251    1.394   .     A
C251   H252    1.085   .     S
C253   C254    1.413   .     A
C253   C267    1.487   .     S
C253   C464    1.380   .     S
C255   N271    1.429   .     S
C255   N263    1.379   .     A
C255   C327    1.416   .     S
C256   N258    1.359   .     A
C256   H257    1.082   .     S
C256   C397    1.416   1_455 S
N258   C259    1.367   .     A
C259   H260    1.082   .     S
C259   C403    1.417   1_455 S
C261   N263    1.365   .     A
C261   H262    1.079   .     S
C261   C330    1.417   .     S
N264   O266    1.301   .     A
N264   O265    1.301   .     A
C267   O268    1.223   .     D
C267   O269    1.399   .     S
O269   H270    1.014   .     S
N271   O273    1.299   .     A
N271   O272    1.301   .     A
N274   O275    1.301   .     A
N274   O276    1.302   .     A
C277   O278    1.223   .     D
C277   C867    1.491   .     S
C277   O350    1.398   .     S
O279   H280    1.014   .     S
O279   C419    1.398   1_455 S
C281   O283    1.399   .     S
C281   O282    1.223   .     D
O283   H284    1.014   .     S
O285   Zn291   1.991   .     S
O285   C287    1.284   .     A
O286   C287    1.282   .     A
O286   Zn292   1.988   .     S
C287   C325    1.416   .     S
O288   Zn291   1.967   .     S
O288   C290    1.293   .     A
O289   Zn292   1.910   .     S
O289   C290    1.293   .     A
C290   C312    1.457   .     S
Zn291  O295    1.910   .     S
Zn291  N329    2.013   .     S
Zn291  O293    1.988   .     S
Zn292  O296    1.967   .     S
Zn292  O294    1.991   .     S
Zn292  N334    2.013   .     S
O293   C297    1.281   .     A
O294   C297    1.283   .     A
O295   C298    1.295   .     A
O296   C298    1.292   .     A
C297   C321    1.409   .     S
C298   C300    1.459   .     S
C299   C311    1.413   .     A
C299   C946    1.424   1_554 S
C299   C987    1.491   1_554 S
C300   C311    1.410   .     A
C300   C310    1.388   .     A
C301   C302    1.386   .     A
C301   H314    1.083   .     S
C301   C312    1.396   .     A
C302   H315    1.084   .     S
C302   C942    1.401   .     S
C303   C352    1.485   .     S
C303   C941    1.401   1_554 S
C303   C943    1.438   1_554 S
C304   C305    1.409   .     A
C304   C942    1.438   .     S
C304   C945    1.420   .     S
C305   C312    1.406   .     A
C305   C309    1.410   .     A
C306   C310    1.383   .     A
C306   C943    1.420   1_554 S
C306   C946    1.421   1_554 S
C307   C308    1.412   .     A
C307   C938    1.424   .     S
C307   C945    1.421   .     S
C308   C309    1.393   .     A
C308   N345    1.440   .     S
C309   H316    1.084   .     S
C310   H313    1.079   .     S
C311   N335    1.432   .     S
C317   C325    1.398   .     A
C317   H318    1.084   .     S
C317   C532    1.368   .     S
C319   H320    1.084   .     S
C319   C321    1.389   .     A
C321   C322    1.394   .     A
C322   H323    1.085   .     S
C324   C325    1.413   .     A
C324   C338    1.487   .     S
C324   C535    1.380   .     S
C326   N342    1.429   .     S
C326   N334    1.379   .     A
C326   C398    1.416   .     S
C327   N329    1.359   .     A
C327   H328    1.082   .     S
N329   C330    1.367   .     A
C330   H331    1.082   .     S
C332   N334    1.365   .     A
C332   H333    1.079   .     S
C332   C401    1.417   .     S
N335   O337    1.301   .     A
N335   O336    1.301   .     A
C338   O339    1.223   .     D
C338   O340    1.399   .     S
O340   H341    1.014   .     S
N342   O344    1.299   .     A
N342   O343    1.301   .     A
N345   O346    1.301   .     A
N345   O347    1.302   .     A
C348   O349    1.223   .     D
C348   C938    1.491   .     S
C348   O421    1.398   .     S
O350   H351    1.014   .     S
C352   O354    1.399   .     S
C352   O353    1.223   .     D
O354   H355    1.014   .     S
O356   Zn362   1.991   .     S
O356   C358    1.284   .     A
O357   C358    1.282   .     A
O357   Zn363   1.988   .     S
C358   C396    1.416   .     S
O359   Zn362   1.967   .     S
O359   C361    1.293   .     A
O360   Zn363   1.910   .     S
O360   C361    1.293   .     A
C361   C383    1.457   .     S
Zn362  O366    1.910   .     S
Zn362  N400    2.013   .     S
Zn362  O364    1.988   .     S
Zn363  O367    1.967   .     S
Zn363  O365    1.991   .     S
Zn363  N405    2.013   .     S
O364   C368    1.281   .     A
O365   C368    1.283   .     A
O366   C369    1.295   .     A
O367   C369    1.292   .     A
C368   C392    1.409   .     S
C369   C371    1.459   .     S
C370   C382    1.413   .     A
C370   C1017   1.424   1_554 S
C370   C1058   1.491   1_554 S
C371   C382    1.410   .     A
C371   C381    1.388   .     A
C372   C373    1.386   .     A
C372   H385    1.083   .     S
C372   C383    1.396   .     A
C373   H386    1.084   .     S
C373   C1013   1.401   .     S
C374   C423    1.485   .     S
C374   C1012   1.401   1_554 S
C374   C1014   1.438   1_554 S
C375   C376    1.409   .     A
C375   C1013   1.438   .     S
C375   C1016   1.420   .     S
C376   C383    1.406   .     A
C376   C380    1.410   .     A
C377   C381    1.383   .     A
C377   C1014   1.420   1_554 S
C377   C1017   1.421   1_554 S
C378   C379    1.412   .     A
C378   C1009   1.424   .     S
C378   C1016   1.421   .     S
C379   C380    1.393   .     A
C379   N416    1.440   .     S
C380   H387    1.084   .     S
C381   H384    1.079   .     S
C382   N406    1.432   .     S
C388   C396    1.398   .     A
C388   H389    1.084   .     S
C388   C603    1.368   .     S
C390   H391    1.084   .     S
C390   C392    1.389   .     A
C392   C393    1.394   .     A
C393   H394    1.085   .     S
C395   C396    1.413   .     A
C395   C409    1.487   .     S
C395   C606    1.380   .     S
C397   N413    1.429   .     S
C397   N405    1.379   .     A
C397   C256    1.416   1_655 S
C398   N400    1.359   .     A
C398   H399    1.082   .     S
N400   C401    1.367   .     A
C401   H402    1.082   .     S
C403   N405    1.365   .     A
C403   H404    1.079   .     S
C403   C259    1.417   1_655 S
N406   O408    1.301   .     A
N406   O407    1.301   .     A
C409   O410    1.223   .     D
C409   O411    1.399   .     S
O411   H412    1.014   .     S
N413   O415    1.299   .     A
N413   O414    1.301   .     A
N416   O417    1.301   .     A
N416   O418    1.302   .     A
C419   O420    1.223   .     D
C419   C1009   1.491   .     S
C419   O279    1.398   1_655 S
O421   H422    1.014   .     S
C423   O425    1.399   .     S
C423   O424    1.223   .     D
O425   H426    1.014   .     S
O427   Zn433   1.991   .     S
O427   C429    1.284   .     A
O428   C429    1.282   .     A
O428   Zn434   1.988   .     S
C429   C467    1.416   .     S
O430   Zn433   1.967   .     S
O430   C432    1.293   .     A
O431   Zn434   1.910   .     S
O431   C432    1.293   .     A
C432   C454    1.457   .     S
Zn433  O437    1.910   .     S
Zn433  N471    2.013   .     S
Zn433  O435    1.988   .     S
Zn434  O438    1.967   .     S
Zn434  O436    1.991   .     S
Zn434  N476    2.013   .     S
O435   C439    1.281   .     A
O436   C439    1.283   .     A
O437   C440    1.295   .     A
O438   C440    1.292   .     A
C439   C463    1.409   .     S
C440   C442    1.459   .     S
C441   C453    1.413   .     A
C441   C1088   1.424   1_554 S
C441   C1129   1.491   1_554 S
C442   C453    1.410   .     A
C442   C452    1.388   .     A
C443   C444    1.386   .     A
C443   H456    1.083   .     S
C443   C454    1.396   .     A
C444   H457    1.084   .     S
C444   C1084   1.401   .     S
C445   C494    1.485   .     S
C445   C1083   1.401   1_554 S
C445   C1085   1.438   1_554 S
C446   C447    1.409   .     A
C446   C1084   1.438   .     S
C446   C1087   1.420   .     S
C447   C454    1.406   .     A
C447   C451    1.410   .     A
C448   C452    1.383   .     A
C448   C1085   1.420   1_554 S
C448   C1088   1.421   1_554 S
C449   C450    1.412   .     A
C449   C1080   1.424   .     S
C449   C1087   1.421   .     S
C450   C451    1.393   .     A
C450   N487    1.440   .     S
C451   H458    1.084   .     S
C452   H455    1.079   .     S
C453   N477    1.432   .     S
C459   C467    1.398   .     A
C459   H460    1.084   .     S
C459   C35     1.368   1_565 S
C461   H462    1.084   .     S
C461   C463    1.389   .     A
C463   C464    1.394   .     A
C464   H465    1.085   .     S
C466   C467    1.413   .     A
C466   C480    1.487   .     S
C466   C38     1.380   1_565 S
C468   N484    1.429   .     S
C468   N476    1.379   .     A
C468   C540    1.416   .     S
C469   N471    1.359   .     A
C469   H470    1.082   .     S
C469   C610    1.416   1_455 S
N471   C472    1.367   .     A
C472   H473    1.082   .     S
C472   C616    1.417   1_455 S
C474   N476    1.365   .     A
C474   H475    1.079   .     S
C474   C543    1.417   .     S
N477   O479    1.301   .     A
N477   O478    1.301   .     A
C480   O481    1.223   .     D
C480   O482    1.399   .     S
O482   H483    1.014   .     S
N484   O486    1.299   .     A
N484   O485    1.301   .     A
N487   O488    1.301   .     A
N487   O489    1.302   .     A
C490   O491    1.223   .     D
C490   C1080   1.491   .     S
C490   O563    1.398   .     S
O492   H493    1.014   .     S
O492   C632    1.398   1_455 S
C494   O496    1.399   .     S
C494   O495    1.223   .     D
O496   H497    1.014   .     S
O498   Zn504   1.991   .     S
O498   C500    1.284   .     A
O499   C500    1.282   .     A
O499   Zn505   1.988   .     S
C500   C538    1.416   .     S
O501   Zn504   1.967   .     S
O501   C503    1.293   .     A
O502   Zn505   1.910   .     S
O502   C503    1.293   .     A
C503   C525    1.457   .     S
Zn504  O508    1.910   .     S
Zn504  N542    2.013   .     S
Zn504  O506    1.988   .     S
Zn505  O509    1.967   .     S
Zn505  O507    1.991   .     S
Zn505  N547    2.013   .     S
O506   C510    1.281   .     A
O507   C510    1.283   .     A
O508   C511    1.295   .     A
O509   C511    1.292   .     A
C510   C534    1.409   .     S
C511   C513    1.459   .     S
C512   C524    1.413   .     A
C512   C1159   1.424   1_554 S
C512   C1200   1.491   1_554 S
C513   C524    1.410   .     A
C513   C523    1.388   .     A
C514   C515    1.386   .     A
C514   H527    1.083   .     S
C514   C525    1.396   .     A
C515   H528    1.084   .     S
C515   C1155   1.401   .     S
C516   C565    1.485   .     S
C516   C1154   1.401   1_554 S
C516   C1156   1.438   1_554 S
C517   C518    1.409   .     A
C517   C1155   1.438   .     S
C517   C1158   1.420   .     S
C518   C525    1.406   .     A
C518   C522    1.410   .     A
C519   C523    1.383   .     A
C519   C1156   1.420   1_554 S
C519   C1159   1.421   1_554 S
C520   C521    1.412   .     A
C520   C1151   1.424   .     S
C520   C1158   1.421   .     S
C521   C522    1.393   .     A
C521   N558    1.440   .     S
C522   H529    1.084   .     S
C523   H526    1.079   .     S
C524   N548    1.432   .     S
C530   C538    1.398   .     A
C530   H531    1.084   .     S
C530   C106    1.368   1_565 S
C532   H533    1.084   .     S
C532   C534    1.389   .     A
C534   C535    1.394   .     A
C535   H536    1.085   .     S
C537   C538    1.413   .     A
C537   C551    1.487   .     S
C537   C109    1.380   1_565 S
C539   N555    1.429   .     S
C539   N547    1.379   .     A
C539   C611    1.416   .     S
C540   N542    1.359   .     A
C540   H541    1.082   .     S
N542   C543    1.367   .     A
C543   H544    1.082   .     S
C545   N547    1.365   .     A
C545   H546    1.079   .     S
C545   C614    1.417   .     S
N548   O550    1.301   .     A
N548   O549    1.301   .     A
C551   O552    1.223   .     D
C551   O553    1.399   .     S
O553   H554    1.014   .     S
N555   O557    1.299   .     A
N555   O556    1.301   .     A
N558   O559    1.301   .     A
N558   O560    1.302   .     A
C561   O562    1.223   .     D
C561   C1151   1.491   .     S
C561   O634    1.398   .     S
O563   H564    1.014   .     S
C565   O567    1.399   .     S
C565   O566    1.223   .     D
O567   H568    1.014   .     S
O569   Zn575   1.991   .     S
O569   C571    1.284   .     A
O570   C571    1.282   .     A
O570   Zn576   1.988   .     S
C571   C609    1.416   .     S
O572   Zn575   1.967   .     S
O572   C574    1.293   .     A
O573   Zn576   1.910   .     S
O573   C574    1.293   .     A
C574   C596    1.457   .     S
Zn575  O579    1.910   .     S
Zn575  N613    2.013   .     S
Zn575  O577    1.988   .     S
Zn576  O580    1.967   .     S
Zn576  O578    1.991   .     S
Zn576  N618    2.013   .     S
O577   C581    1.281   .     A
O578   C581    1.283   .     A
O579   C582    1.295   .     A
O580   C582    1.292   .     A
C581   C605    1.409   .     S
C582   C584    1.459   .     S
C583   C595    1.413   .     A
C583   C1230   1.424   1_554 S
C583   C1271   1.491   1_554 S
C584   C595    1.410   .     A
C584   C594    1.388   .     A
C585   C586    1.386   .     A
C585   H598    1.083   .     S
C585   C596    1.396   .     A
C586   H599    1.084   .     S
C586   C1226   1.401   .     S
C587   C636    1.485   .     S
C587   C1225   1.401   1_554 S
C587   C1227   1.438   1_554 S
C588   C589    1.409   .     A
C588   C1226   1.438   .     S
C588   C1229   1.420   .     S
C589   C596    1.406   .     A
C589   C593    1.410   .     A
C590   C594    1.383   .     A
C590   C1227   1.420   1_554 S
C590   C1230   1.421   1_554 S
C591   C592    1.412   .     A
C591   C1222   1.424   .     S
C591   C1229   1.421   .     S
C592   C593    1.393   .     A
C592   N629    1.440   .     S
C593   H600    1.084   .     S
C594   H597    1.079   .     S
C595   N619    1.432   .     S
C601   C609    1.398   .     A
C601   H602    1.084   .     S
C601   C177    1.368   1_565 S
C603   H604    1.084   .     S
C603   C605    1.389   .     A
C605   C606    1.394   .     A
C606   H607    1.085   .     S
C608   C609    1.413   .     A
C608   C622    1.487   .     S
C608   C180    1.380   1_565 S
C610   N626    1.429   .     S
C610   N618    1.379   .     A
C610   C469    1.416   1_655 S
C611   N613    1.359   .     A
C611   H612    1.082   .     S
N613   C614    1.367   .     A
C614   H615    1.082   .     S
C616   N618    1.365   .     A
C616   H617    1.079   .     S
C616   C472    1.417   1_655 S
N619   O621    1.301   .     A
N619   O620    1.301   .     A
C622   O623    1.223   .     D
C622   O624    1.399   .     S
O624   H625    1.014   .     S
N626   O628    1.299   .     A
N626   O627    1.301   .     A
N629   O630    1.301   .     A
N629   O631    1.302   .     A
C632   O633    1.223   .     D
C632   C1222   1.491   .     S
C632   O492    1.398   1_655 S
O634   H635    1.014   .     S
C636   O638    1.399   .     S
C636   O637    1.223   .     D
O638   H639    1.014   .     S
O640   Zn646   1.991   .     S
O640   C642    1.284   .     A
O641   C642    1.282   .     A
O641   Zn647   1.988   .     S
C642   C680    1.416   .     S
O643   Zn646   1.967   .     S
O643   C645    1.293   .     A
O644   Zn647   1.910   .     S
O644   C645    1.293   .     A
C645   C667    1.457   .     S
Zn646  O650    1.910   .     S
Zn646  N684    2.013   .     S
Zn646  O648    1.988   .     S
Zn647  O651    1.967   .     S
Zn647  O649    1.991   .     S
Zn647  N689    2.013   .     S
O648   C652    1.281   .     A
O649   C652    1.283   .     A
O650   C653    1.295   .     A
O651   C653    1.292   .     A
C652   C676    1.409   .     S
C653   C655    1.459   .     S
C654   C666    1.413   .     A
C655   C666    1.410   .     A
C655   C665    1.388   .     A
C656   C657    1.386   .     A
C656   H669    1.083   .     S
C656   C667    1.396   .     A
C657   H670    1.084   .     S
C657   C19     1.401   1_556 S
C658   C707    1.485   .     S
C659   C660    1.409   .     A
C659   C19     1.438   1_556 S
C659   C22     1.420   1_556 S
C660   C667    1.406   .     A
C660   C664    1.410   .     A
C661   C665    1.383   .     A
C662   C663    1.412   .     A
C662   C15     1.424   1_556 S
C662   C22     1.421   1_556 S
C663   C664    1.393   .     A
C663   N700    1.440   .     S
C664   H671    1.084   .     S
C665   H668    1.079   .     S
C666   N690    1.432   .     S
C672   C680    1.398   .     A
C672   H673    1.084   .     S
C672   C887    1.368   .     S
C674   H675    1.084   .     S
C674   C676    1.389   .     A
C674   C1098   1.368   1_545 S
C676   C677    1.394   .     A
C677   H678    1.085   .     S
C677   C1105   1.380   1_545 S
C679   C680    1.413   .     A
C679   C693    1.487   .     S
C679   C890    1.380   .     S
C681   N697    1.429   .     S
C681   N689    1.379   .     A
C681   C753    1.416   .     S
C682   N684    1.359   .     A
C682   H683    1.082   .     S
C682   C823    1.416   1_455 S
N684   C685    1.367   .     A
C685   H686    1.082   .     S
C685   C829    1.417   1_455 S
C687   N689    1.365   .     A
C687   H688    1.079   .     S
C687   C756    1.417   .     S
N690   O692    1.301   .     A
N690   O691    1.301   .     A
C693   O694    1.223   .     D
C693   O695    1.399   .     S
O695   H696    1.014   .     S
N697   O699    1.299   .     A
N697   O698    1.301   .     A
N700   O701    1.301   .     A
N700   O702    1.302   .     A
C703   O704    1.223   .     D
C703   C15     1.491   1_556 S
C703   O776    1.398   .     S
O705   H706    1.014   .     S
O705   C845    1.398   1_455 S
C707   O709    1.399   .     S
C707   O708    1.223   .     D
O709   H710    1.014   .     S
O711   Zn717   1.991   .     S
O711   C713    1.284   .     A
O712   C713    1.282   .     A
O712   Zn718   1.988   .     S
C713   C751    1.416   .     S
O714   Zn717   1.967   .     S
O714   C716    1.293   .     A
O715   Zn718   1.910   .     S
O715   C716    1.293   .     A
C716   C738    1.457   .     S
Zn717  O721    1.910   .     S
Zn717  N755    2.013   .     S
Zn717  O719    1.988   .     S
Zn718  O722    1.967   .     S
Zn718  O720    1.991   .     S
Zn718  N760    2.013   .     S
O719   C723    1.281   .     A
O720   C723    1.283   .     A
O721   C724    1.295   .     A
O722   C724    1.292   .     A
C723   C747    1.409   .     S
C724   C726    1.459   .     S
C725   C737    1.413   .     A
C726   C737    1.410   .     A
C726   C736    1.388   .     A
C727   C728    1.386   .     A
C727   H740    1.083   .     S
C727   C738    1.396   .     A
C728   H741    1.084   .     S
C728   C90     1.401   1_556 S
C729   C778    1.485   .     S
C730   C731    1.409   .     A
C730   C90     1.438   1_556 S
C730   C93     1.420   1_556 S
C731   C738    1.406   .     A
C731   C735    1.410   .     A
C732   C736    1.383   .     A
C733   C734    1.412   .     A
C733   C86     1.424   1_556 S
C733   C93     1.421   1_556 S
C734   C735    1.393   .     A
C734   N771    1.440   .     S
C735   H742    1.084   .     S
C736   H739    1.079   .     S
C737   N761    1.432   .     S
C743   C751    1.398   .     A
C743   H744    1.084   .     S
C743   C958    1.368   .     S
C745   H746    1.084   .     S
C745   C747    1.389   .     A
C745   C1169   1.368   1_545 S
C747   C748    1.394   .     A
C748   H749    1.085   .     S
C748   C1176   1.380   1_545 S
C750   C751    1.413   .     A
C750   C764    1.487   .     S
C750   C961    1.380   .     S
C752   N768    1.429   .     S
C752   N760    1.379   .     A
C752   C824    1.416   .     S
C753   N755    1.359   .     A
C753   H754    1.082   .     S
N755   C756    1.367   .     A
C756   H757    1.082   .     S
C758   N760    1.365   .     A
C758   H759    1.079   .     S
C758   C827    1.417   .     S
N761   O763    1.301   .     A
N761   O762    1.301   .     A
C764   O765    1.223   .     D
C764   O766    1.399   .     S
O766   H767    1.014   .     S
N768   O770    1.299   .     A
N768   O769    1.301   .     A
N771   O772    1.301   .     A
N771   O773    1.302   .     A
C774   O775    1.223   .     D
C774   C86     1.491   1_556 S
C774   O847    1.398   .     S
O776   H777    1.014   .     S
C778   O780    1.399   .     S
C778   O779    1.223   .     D
O780   H781    1.014   .     S
O782   Zn788   1.991   .     S
O782   C784    1.284   .     A
O783   C784    1.282   .     A
O783   Zn789   1.988   .     S
C784   C822    1.416   .     S
O785   Zn788   1.967   .     S
O785   C787    1.293   .     A
O786   Zn789   1.910   .     S
O786   C787    1.293   .     A
C787   C809    1.457   .     S
Zn788  O792    1.910   .     S
Zn788  N826    2.013   .     S
Zn788  O790    1.988   .     S
Zn789  O793    1.967   .     S
Zn789  O791    1.991   .     S
Zn789  N831    2.013   .     S
O790   C794    1.281   .     A
O791   C794    1.283   .     A
O792   C795    1.295   .     A
O793   C795    1.292   .     A
C794   C818    1.409   .     S
C795   C797    1.459   .     S
C796   C808    1.413   .     A
C797   C808    1.410   .     A
C797   C807    1.388   .     A
C798   C799    1.386   .     A
C798   H811    1.083   .     S
C798   C809    1.396   .     A
C799   H812    1.084   .     S
C799   C161    1.401   1_556 S
C800   C849    1.485   .     S
C801   C802    1.409   .     A
C801   C161    1.438   1_556 S
C801   C164    1.420   1_556 S
C802   C809    1.406   .     A
C802   C806    1.410   .     A
C803   C807    1.383   .     A
C804   C805    1.412   .     A
C804   C157    1.424   1_556 S
C804   C164    1.421   1_556 S
C805   C806    1.393   .     A
C805   N842    1.440   .     S
C806   H813    1.084   .     S
C807   H810    1.079   .     S
C808   N832    1.432   .     S
C814   C822    1.398   .     A
C814   H815    1.084   .     S
C814   C1029   1.368   .     S
C816   H817    1.084   .     S
C816   C818    1.389   .     A
C816   C1240   1.368   1_545 S
C818   C819    1.394   .     A
C819   H820    1.085   .     S
C819   C1247   1.380   1_545 S
C821   C822    1.413   .     A
C821   C835    1.487   .     S
C821   C1032   1.380   .     S
C823   N839    1.429   .     S
C823   N831    1.379   .     A
C823   C682    1.416   1_655 S
C824   N826    1.359   .     A
C824   H825    1.082   .     S
N826   C827    1.367   .     A
C827   H828    1.082   .     S
C829   N831    1.365   .     A
C829   H830    1.079   .     S
C829   C685    1.417   1_655 S
N832   O834    1.301   .     A
N832   O833    1.301   .     A
C835   O836    1.223   .     D
C835   O837    1.399   .     S
O837   H838    1.014   .     S
N839   O841    1.299   .     A
N839   O840    1.301   .     A
N842   O843    1.301   .     A
N842   O844    1.302   .     A
C845   O846    1.223   .     D
C845   C157    1.491   1_556 S
C845   O705    1.398   1_655 S
O847   H848    1.014   .     S
C849   O851    1.399   .     S
C849   O850    1.223   .     D
O851   H852    1.014   .     S
O853   Zn859   1.991   .     S
O853   C855    1.284   .     A
O854   C855    1.282   .     A
O854   Zn860   1.988   .     S
C855   C893    1.416   .     S
O856   Zn859   1.967   .     S
O856   C858    1.293   .     A
O857   Zn860   1.910   .     S
O857   C858    1.293   .     A
C858   C880    1.457   .     S
Zn859  O863    1.910   .     S
Zn859  N897    2.013   .     S
Zn859  O861    1.988   .     S
Zn860  O864    1.967   .     S
Zn860  O862    1.991   .     S
Zn860  N902    2.013   .     S
O861   C865    1.281   .     A
O862   C865    1.283   .     A
O863   C866    1.295   .     A
O864   C866    1.292   .     A
C865   C889    1.409   .     S
C866   C868    1.459   .     S
C867   C879    1.413   .     A
C868   C879    1.410   .     A
C868   C878    1.388   .     A
C869   C870    1.386   .     A
C869   H882    1.083   .     S
C869   C880    1.396   .     A
C870   H883    1.084   .     S
C870   C232    1.401   1_556 S
C871   C920    1.485   .     S
C872   C873    1.409   .     A
C872   C232    1.438   1_556 S
C872   C235    1.420   1_556 S
C873   C880    1.406   .     A
C873   C877    1.410   .     A
C874   C878    1.383   .     A
C875   C876    1.412   .     A
C875   C228    1.424   1_556 S
C875   C235    1.421   1_556 S
C876   C877    1.393   .     A
C876   N913    1.440   .     S
C877   H884    1.084   .     S
C878   H881    1.079   .     S
C879   N903    1.432   .     S
C885   C893    1.398   .     A
C885   H886    1.084   .     S
C885   C1100   1.368   .     S
C887   H888    1.084   .     S
C887   C889    1.389   .     A
C889   C890    1.394   .     A
C890   H891    1.085   .     S
C892   C893    1.413   .     A
C892   C906    1.487   .     S
C892   C1103   1.380   .     S
C894   N910    1.429   .     S
C894   N902    1.379   .     A
C894   C966    1.416   .     S
C895   N897    1.359   .     A
C895   H896    1.082   .     S
C895   C1036   1.416   1_455 S
N897   C898    1.367   .     A
C898   H899    1.082   .     S
C898   C1042   1.417   1_455 S
C900   N902    1.365   .     A
C900   H901    1.079   .     S
C900   C969    1.417   .     S
N903   O905    1.301   .     A
N903   O904    1.301   .     A
C906   O907    1.223   .     D
C906   O908    1.399   .     S
O908   H909    1.014   .     S
N910   O912    1.299   .     A
N910   O911    1.301   .     A
N913   O914    1.301   .     A
N913   O915    1.302   .     A
C916   O917    1.223   .     D
C916   C228    1.491   1_556 S
C916   O989    1.398   .     S
O918   H919    1.014   .     S
O918   C1058   1.398   1_455 S
C920   O922    1.399   .     S
C920   O921    1.223   .     D
O922   H923    1.014   .     S
O924   Zn930   1.991   .     S
O924   C926    1.284   .     A
O925   C926    1.282   .     A
O925   Zn931   1.988   .     S
C926   C964    1.416   .     S
O927   Zn930   1.967   .     S
O927   C929    1.293   .     A
O928   Zn931   1.910   .     S
O928   C929    1.293   .     A
C929   C951    1.457   .     S
Zn930  O934    1.910   .     S
Zn930  N968    2.013   .     S
Zn930  O932    1.988   .     S
Zn931  O935    1.967   .     S
Zn931  O933    1.991   .     S
Zn931  N973    2.013   .     S
O932   C936    1.281   .     A
O933   C936    1.283   .     A
O934   C937    1.295   .     A
O935   C937    1.292   .     A
C936   C960    1.409   .     S
C937   C939    1.459   .     S
C938   C950    1.413   .     A
C939   C950    1.410   .     A
C939   C949    1.388   .     A
C940   C941    1.386   .     A
C940   H953    1.083   .     S
C940   C951    1.396   .     A
C941   H954    1.084   .     S
C941   C303    1.401   1_556 S
C942   C991    1.485   .     S
C943   C944    1.409   .     A
C943   C303    1.438   1_556 S
C943   C306    1.420   1_556 S
C944   C951    1.406   .     A
C944   C948    1.410   .     A
C945   C949    1.383   .     A
C946   C947    1.412   .     A
C946   C299    1.424   1_556 S
C946   C306    1.421   1_556 S
C947   C948    1.393   .     A
C947   N984    1.440   .     S
C948   H955    1.084   .     S
C949   H952    1.079   .     S
C950   N974    1.432   .     S
C956   C964    1.398   .     A
C956   H957    1.084   .     S
C956   C1171   1.368   .     S
C958   H959    1.084   .     S
C958   C960    1.389   .     A
C960   C961    1.394   .     A
C961   H962    1.085   .     S
C963   C964    1.413   .     A
C963   C977    1.487   .     S
C963   C1174   1.380   .     S
C965   N981    1.429   .     S
C965   N973    1.379   .     A
C965   C1037   1.416   .     S
C966   N968    1.359   .     A
C966   H967    1.082   .     S
N968   C969    1.367   .     A
C969   H970    1.082   .     S
C971   N973    1.365   .     A
C971   H972    1.079   .     S
C971   C1040   1.417   .     S
N974   O976    1.301   .     A
N974   O975    1.301   .     A
C977   O978    1.223   .     D
C977   O979    1.399   .     S
O979   H980    1.014   .     S
N981   O983    1.299   .     A
N981   O982    1.301   .     A
N984   O985    1.301   .     A
N984   O986    1.302   .     A
C987   O988    1.223   .     D
C987   C299    1.491   1_556 S
C987   O1060   1.398   .     S
O989   H990    1.014   .     S
C991   O993    1.399   .     S
C991   O992    1.223   .     D
O993   H994    1.014   .     S
O995   Zn1001  1.991   .     S
O995   C997    1.284   .     A
O996   C997    1.282   .     A
O996   Zn1002  1.988   .     S
C997   C1035   1.416   .     S
O998   Zn1001  1.967   .     S
O998   C1000   1.293   .     A
O999   Zn1002  1.910   .     S
O999   C1000   1.293   .     A
C1000  C1022   1.457   .     S
Zn1001 O1005   1.910   .     S
Zn1001 N1039   2.013   .     S
Zn1001 O1003   1.988   .     S
Zn1002 O1006   1.967   .     S
Zn1002 O1004   1.991   .     S
Zn1002 N1044   2.013   .     S
O1003  C1007   1.281   .     A
O1004  C1007   1.283   .     A
O1005  C1008   1.295   .     A
O1006  C1008   1.292   .     A
C1007  C1031   1.409   .     S
C1008  C1010   1.459   .     S
C1009  C1021   1.413   .     A
C1010  C1021   1.410   .     A
C1010  C1020   1.388   .     A
C1011  C1012   1.386   .     A
C1011  H1024   1.083   .     S
C1011  C1022   1.396   .     A
C1012  H1025   1.084   .     S
C1012  C374    1.401   1_556 S
C1013  C1062   1.485   .     S
C1014  C1015   1.409   .     A
C1014  C374    1.438   1_556 S
C1014  C377    1.420   1_556 S
C1015  C1022   1.406   .     A
C1015  C1019   1.410   .     A
C1016  C1020   1.383   .     A
C1017  C1018   1.412   .     A
C1017  C370    1.424   1_556 S
C1017  C377    1.421   1_556 S
C1018  C1019   1.393   .     A
C1018  N1055   1.440   .     S
C1019  H1026   1.084   .     S
C1020  H1023   1.079   .     S
C1021  N1045   1.432   .     S
C1027  C1035   1.398   .     A
C1027  H1028   1.084   .     S
C1027  C1242   1.368   .     S
C1029  H1030   1.084   .     S
C1029  C1031   1.389   .     A
C1031  C1032   1.394   .     A
C1032  H1033   1.085   .     S
C1034  C1035   1.413   .     A
C1034  C1048   1.487   .     S
C1034  C1245   1.380   .     S
C1036  N1052   1.429   .     S
C1036  N1044   1.379   .     A
C1036  C895    1.416   1_655 S
C1037  N1039   1.359   .     A
C1037  H1038   1.082   .     S
N1039  C1040   1.367   .     A
C1040  H1041   1.082   .     S
C1042  N1044   1.365   .     A
C1042  H1043   1.079   .     S
C1042  C898    1.417   1_655 S
N1045  O1047   1.301   .     A
N1045  O1046   1.301   .     A
C1048  O1049   1.223   .     D
C1048  O1050   1.399   .     S
O1050  H1051   1.014   .     S
N1052  O1054   1.299   .     A
N1052  O1053   1.301   .     A
N1055  O1056   1.301   .     A
N1055  O1057   1.302   .     A
C1058  O1059   1.223   .     D
C1058  C370    1.491   1_556 S
C1058  O918    1.398   1_655 S
O1060  H1061   1.014   .     S
C1062  O1064   1.399   .     S
C1062  O1063   1.223   .     D
O1064  H1065   1.014   .     S
O1066  Zn1072  1.991   .     S
O1066  C1068   1.284   .     A
O1067  C1068   1.282   .     A
O1067  Zn1073  1.988   .     S
C1068  C1106   1.416   .     S
O1069  Zn1072  1.967   .     S
O1069  C1071   1.293   .     A
O1070  Zn1073  1.910   .     S
O1070  C1071   1.293   .     A
C1071  C1093   1.457   .     S
Zn1072 O1076   1.910   .     S
Zn1072 N1110   2.013   .     S
Zn1072 O1074   1.988   .     S
Zn1073 O1077   1.967   .     S
Zn1073 O1075   1.991   .     S
Zn1073 N1115   2.013   .     S
O1074  C1078   1.281   .     A
O1075  C1078   1.283   .     A
O1076  C1079   1.295   .     A
O1077  C1079   1.292   .     A
C1078  C1102   1.409   .     S
C1079  C1081   1.459   .     S
C1080  C1092   1.413   .     A
C1081  C1092   1.410   .     A
C1081  C1091   1.388   .     A
C1082  C1083   1.386   .     A
C1082  H1095   1.083   .     S
C1082  C1093   1.396   .     A
C1083  H1096   1.084   .     S
C1083  C445    1.401   1_556 S
C1084  C1133   1.485   .     S
C1085  C1086   1.409   .     A
C1085  C445    1.438   1_556 S
C1085  C448    1.420   1_556 S
C1086  C1093   1.406   .     A
C1086  C1090   1.410   .     A
C1087  C1091   1.383   .     A
C1088  C1089   1.412   .     A
C1088  C441    1.424   1_556 S
C1088  C448    1.421   1_556 S
C1089  C1090   1.393   .     A
C1089  N1126   1.440   .     S
C1090  H1097   1.084   .     S
C1091  H1094   1.079   .     S
C1092  N1116   1.432   .     S
C1098  C1106   1.398   .     A
C1098  H1099   1.084   .     S
C1098  C674    1.368   1_565 S
C1100  H1101   1.084   .     S
C1100  C1102   1.389   .     A
C1102  C1103   1.394   .     A
C1103  H1104   1.085   .     S
C1105  C1106   1.413   .     A
C1105  C1119   1.487   .     S
C1105  C677    1.380   1_565 S
C1107  N1123   1.429   .     S
C1107  N1115   1.379   .     A
C1107  C1179   1.416   .     S
C1108  N1110   1.359   .     A
C1108  H1109   1.082   .     S
C1108  C1249   1.416   1_455 S
N1110  C1111   1.367   .     A
C1111  H1112   1.082   .     S
C1111  C1255   1.417   1_455 S
C1113  N1115   1.365   .     A
C1113  H1114   1.079   .     S
C1113  C1182   1.417   .     S
N1116  O1118   1.301   .     A
N1116  O1117   1.301   .     A
C1119  O1120   1.223   .     D
C1119  O1121   1.399   .     S
O1121  H1122   1.014   .     S
N1123  O1125   1.299   .     A
N1123  O1124   1.301   .     A
N1126  O1127   1.301   .     A
N1126  O1128   1.302   .     A
C1129  O1130   1.223   .     D
C1129  C441    1.491   1_556 S
C1129  O1202   1.398   .     S
O1131  H1132   1.014   .     S
O1131  C1271   1.398   1_455 S
C1133  O1135   1.399   .     S
C1133  O1134   1.223   .     D
O1135  H1136   1.014   .     S
O1137  Zn1143  1.991   .     S
O1137  C1139   1.284   .     A
O1138  C1139   1.282   .     A
O1138  Zn1144  1.988   .     S
C1139  C1177   1.416   .     S
O1140  Zn1143  1.967   .     S
O1140  C1142   1.293   .     A
O1141  Zn1144  1.910   .     S
O1141  C1142   1.293   .     A
C1142  C1164   1.457   .     S
Zn1143 O1147   1.910   .     S
Zn1143 N1181   2.013   .     S
Zn1143 O1145   1.988   .     S
Zn1144 O1148   1.967   .     S
Zn1144 O1146   1.991   .     S
Zn1144 N1186   2.013   .     S
O1145  C1149   1.281   .     A
O1146  C1149   1.283   .     A
O1147  C1150   1.295   .     A
O1148  C1150   1.292   .     A
C1149  C1173   1.409   .     S
C1150  C1152   1.459   .     S
C1151  C1163   1.413   .     A
C1152  C1163   1.410   .     A
C1152  C1162   1.388   .     A
C1153  C1154   1.386   .     A
C1153  H1166   1.083   .     S
C1153  C1164   1.396   .     A
C1154  H1167   1.084   .     S
C1154  C516    1.401   1_556 S
C1155  C1204   1.485   .     S
C1156  C1157   1.409   .     A
C1156  C516    1.438   1_556 S
C1156  C519    1.420   1_556 S
C1157  C1164   1.406   .     A
C1157  C1161   1.410   .     A
C1158  C1162   1.383   .     A
C1159  C1160   1.412   .     A
C1159  C512    1.424   1_556 S
C1159  C519    1.421   1_556 S
C1160  C1161   1.393   .     A
C1160  N1197   1.440   .     S
C1161  H1168   1.084   .     S
C1162  H1165   1.079   .     S
C1163  N1187   1.432   .     S
C1169  C1177   1.398   .     A
C1169  H1170   1.084   .     S
C1169  C745    1.368   1_565 S
C1171  H1172   1.084   .     S
C1171  C1173   1.389   .     A
C1173  C1174   1.394   .     A
C1174  H1175   1.085   .     S
C1176  C1177   1.413   .     A
C1176  C1190   1.487   .     S
C1176  C748    1.380   1_565 S
C1178  N1194   1.429   .     S
C1178  N1186   1.379   .     A
C1178  C1250   1.416   .     S
C1179  N1181   1.359   .     A
C1179  H1180   1.082   .     S
N1181  C1182   1.367   .     A
C1182  H1183   1.082   .     S
C1184  N1186   1.365   .     A
C1184  H1185   1.079   .     S
C1184  C1253   1.417   .     S
N1187  O1189   1.301   .     A
N1187  O1188   1.301   .     A
C1190  O1191   1.223   .     D
C1190  O1192   1.399   .     S
O1192  H1193   1.014   .     S
N1194  O1196   1.299   .     A
N1194  O1195   1.301   .     A
N1197  O1198   1.301   .     A
N1197  O1199   1.302   .     A
C1200  O1201   1.223   .     D
C1200  C512    1.491   1_556 S
C1200  O1273   1.398   .     S
O1202  H1203   1.014   .     S
C1204  O1206   1.399   .     S
C1204  O1205   1.223   .     D
O1206  H1207   1.014   .     S
O1208  Zn1214  1.991   .     S
O1208  C1210   1.284   .     A
O1209  C1210   1.282   .     A
O1209  Zn1215  1.988   .     S
C1210  C1248   1.416   .     S
O1211  Zn1214  1.967   .     S
O1211  C1213   1.293   .     A
O1212  Zn1215  1.910   .     S
O1212  C1213   1.293   .     A
C1213  C1235   1.457   .     S
Zn1214 O1218   1.910   .     S
Zn1214 N1252   2.013   .     S
Zn1214 O1216   1.988   .     S
Zn1215 O1219   1.967   .     S
Zn1215 O1217   1.991   .     S
Zn1215 N1257   2.013   .     S
O1216  C1220   1.281   .     A
O1217  C1220   1.283   .     A
O1218  C1221   1.295   .     A
O1219  C1221   1.292   .     A
C1220  C1244   1.409   .     S
C1221  C1223   1.459   .     S
C1222  C1234   1.413   .     A
C1223  C1234   1.410   .     A
C1223  C1233   1.388   .     A
C1224  C1225   1.386   .     A
C1224  H1237   1.083   .     S
C1224  C1235   1.396   .     A
C1225  H1238   1.084   .     S
C1225  C587    1.401   1_556 S
C1226  C1275   1.485   .     S
C1227  C1228   1.409   .     A
C1227  C587    1.438   1_556 S
C1227  C590    1.420   1_556 S
C1228  C1235   1.406   .     A
C1228  C1232   1.410   .     A
C1229  C1233   1.383   .     A
C1230  C1231   1.412   .     A
C1230  C583    1.424   1_556 S
C1230  C590    1.421   1_556 S
C1231  C1232   1.393   .     A
C1231  N1268   1.440   .     S
C1232  H1239   1.084   .     S
C1233  H1236   1.079   .     S
C1234  N1258   1.432   .     S
C1240  C1248   1.398   .     A
C1240  H1241   1.084   .     S
C1240  C816    1.368   1_565 S
C1242  H1243   1.084   .     S
C1242  C1244   1.389   .     A
C1244  C1245   1.394   .     A
C1245  H1246   1.085   .     S
C1247  C1248   1.413   .     A
C1247  C1261   1.487   .     S
C1247  C819    1.380   1_565 S
C1249  N1265   1.429   .     S
C1249  N1257   1.379   .     A
C1249  C1108   1.416   1_655 S
C1250  N1252   1.359   .     A
C1250  H1251   1.082   .     S
N1252  C1253   1.367   .     A
C1253  H1254   1.082   .     S
C1255  N1257   1.365   .     A
C1255  H1256   1.079   .     S
C1255  C1111   1.417   1_655 S
N1258  O1260   1.301   .     A
N1258  O1259   1.301   .     A
C1261  O1262   1.223   .     D
C1261  O1263   1.399   .     S
O1263  H1264   1.014   .     S
N1265  O1267   1.299   .     A
N1265  O1266   1.301   .     A
N1268  O1269   1.301   .     A
N1268  O1270   1.302   .     A
C1271  O1272   1.223   .     D
C1271  C583    1.491   1_556 S
C1271  O1131   1.398   1_655 S
O1273  H1274   1.014   .     S
C1275  O1277   1.399   .     S
C1275  O1276   1.223   .     D
O1277  H1278   1.014   .     S
