data_str_m3_o1_o5_pcu_sym.103
_audit_creation_date              2020-01-03
_audit_creation_method            'Materials Studio'
_symmetry_space_group_name_H-M    'P1'
_symmetry_Int_Tables_number       1
_symmetry_cell_setting            triclinic
loop_
_symmetry_equiv_pos_as_xyz
  x,y,z
_cell_length_a                    31.9952
_cell_length_b                    30.2225
_cell_length_c                    26.5614
_cell_angle_alpha                 91.5223
_cell_angle_beta                  93.1207
_cell_angle_gamma                 88.9939
loop_
_atom_site_label
_atom_site_type_symbol
_atom_site_fract_x
_atom_site_fract_y
_atom_site_fract_z
_atom_site_U_iso_or_equiv
_atom_site_adp_type
_atom_site_occupancy
C1     C     0.08686   0.16692   0.16652   0.00000  Uiso   1.00
C2     C     0.24642   0.16645   0.16708   0.00000  Uiso   1.00
C3     C     0.16647   0.16631   0.07315   0.00000  Uiso   1.00
C4     C     0.16673   0.16703   0.26018   0.00000  Uiso   1.00
C5     C     0.16644   0.16613   0.02186   0.00000  Uiso   1.00
C6     C     0.16652   0.16717   0.31145   0.00000  Uiso   1.00
C7     C     0.02039   0.13646   0.13580   0.00000  Uiso   1.00
C8     C     0.31266   0.19698   0.19828   0.00000  Uiso   1.00
C9     C     0.31083   0.13623   0.13594   0.00000  Uiso   1.00
C10    C     0.02232   0.19711   0.19816   0.00000  Uiso   1.00
C11    C     0.29062   0.16630   0.16735   0.00000  Uiso   1.00
C12    C     0.04255   0.16715   0.16654   0.00000  Uiso   1.00
C13    C     0.19307   0.02411   0.19966   0.00000  Uiso   1.00
C14    C     0.14113   0.30935   0.13354   0.00000  Uiso   1.00
C15    C     0.14560   0.02276   0.12900   0.00000  Uiso   1.00
C16    C     0.19138   0.30979   0.20146   0.00000  Uiso   1.00
H17    H     0.03602   0.11315   0.11144   0.00000  Uiso   1.00
H18    H     0.29668   0.22012   0.22282   0.00000  Uiso   1.00
H19    H     0.29345   0.11313   0.11131   0.00000  Uiso   1.00
H20    H     0.03976   0.21969   0.22325   0.00000  Uiso   1.00
N21    N     0.16667   0.28573   0.16667   0.00000  Uiso   1.00
N22    N     0.16667   0.04760   0.16667   0.00000  Uiso   1.00
O23    O     0.10559   0.20487   0.16666   0.00000  Uiso   1.00
O24    O     0.22774   0.12846   0.16667   0.00000  Uiso   1.00
O25    O     0.22774   0.20487   0.16667   0.00000  Uiso   1.00
O26    O     0.10559   0.12846   0.16666   0.00000  Uiso   1.00
O27    O     0.16667   0.20488   0.09511   0.00000  Uiso   1.00
O28    O     0.16666   0.12845   0.23822   0.00000  Uiso   1.00
O29    O     0.16666   0.20488   0.23822   0.00000  Uiso   1.00
O30    O     0.16667   0.12845   0.09511   0.00000  Uiso   1.00
Zn31   Zn    0.16667   0.21771   0.16667   0.00000  Uiso   1.00
Zn32   Zn    0.16667   0.11563   0.16667   0.00000  Uiso   1.00
C33    C     0.23006   0.04734   0.22659   0.00000  Uiso   1.00
C34    C     0.26814   0.04786   0.19341   0.00000  Uiso   1.00
C35    C     0.29389   0.00513   0.19260   0.00000  Uiso   1.00
H36    H     0.30616   0.33051   0.23125   0.00000  Uiso   1.00
H37    H     0.27532   0.31073   0.17544   0.00000  Uiso   1.00
H38    H     0.32076   0.00994   0.16891   0.00000  Uiso   1.00
H39    H     0.25776   0.05491   0.15381   0.00000  Uiso   1.00
H40    H     0.28923   0.07467   0.20792   0.00000  Uiso   1.00
H41    H     0.22184   0.08153   0.23623   0.00000  Uiso   1.00
H42    H     0.23892   0.03428   0.26426   0.00000  Uiso   1.00
C43    C     0.10285   0.28775   0.10815   0.00000  Uiso   1.00
C44    C     0.06312   0.29553   0.13809   0.00000  Uiso   1.00
C45    C     0.07106   0.30242   0.19535   0.00000  Uiso   1.00
H46    H     0.09286   0.27695   0.21140   0.00000  Uiso   1.00
H47    H     0.08429   0.00232   0.20404   0.00000  Uiso   1.00
H48    H     0.04126   0.30033   0.21440   0.00000  Uiso   1.00
H49    H     0.04593   0.32507   0.12350   0.00000  Uiso   1.00
H50    H     0.04206   0.26698   0.13078   0.00000  Uiso   1.00
H51    H     0.09606   0.29956   0.06942   0.00000  Uiso   1.00
H52    H     0.10832   0.25233   0.10147   0.00000  Uiso   1.00
C53    C     0.14120   0.03896   0.07527   0.00000  Uiso   1.00
C54    C     0.09951   0.06275   0.06181   0.00000  Uiso   1.00
C55    C     0.09285   0.06792   0.00487   0.00000  Uiso   1.00
H56    H     0.11946   0.08554   0.32320   0.00000  Uiso   1.00
H57    H     0.09002   0.03493   0.31895   0.00000  Uiso   1.00
H58    H     0.06361   0.08728   0.32975   0.00000  Uiso   1.00
H59    H     0.07302   0.04401   0.07513   0.00000  Uiso   1.00
H60    H     0.09890   0.09592   0.07995   0.00000  Uiso   1.00
H61    H     0.16877   0.05812   0.06662   0.00000  Uiso   1.00
H62    H     0.14460   0.01049   0.04840   0.00000  Uiso   1.00
C63    C     0.21389   0.28663   0.24547   0.00000  Uiso   1.00
C64    C     0.18965   0.29302   0.29364   0.00000  Uiso   1.00
C65    C     0.21441   0.27473   0.00614   0.00000  Uiso   1.00
H66    H     0.22317   0.23947   0.33269   0.00000  Uiso   1.00
H67    H     0.24334   0.29405   0.01418   0.00000  Uiso   1.00
H68    H     0.19512   0.27730   0.03963   0.00000  Uiso   1.00
H69    H     0.18317   0.32878   0.30102   0.00000  Uiso   1.00
H70    H     0.15899   0.27633   0.28894   0.00000  Uiso   1.00
H71    H     0.21982   0.25170   0.23704   0.00000  Uiso   1.00
H72    H     0.24606   0.29820   0.25291   0.00000  Uiso   1.00
C73    C     0.42020   0.16692   0.16652   0.00000  Uiso   1.00
C74    C     0.57975   0.16645   0.16708   0.00000  Uiso   1.00
C75    C     0.49980   0.16631   0.07315   0.00000  Uiso   1.00
C76    C     0.50006   0.16703   0.26018   0.00000  Uiso   1.00
C77    C     0.49977   0.16613   0.02186   0.00000  Uiso   1.00
C78    C     0.49986   0.16717   0.31145   0.00000  Uiso   1.00
C79    C     0.35372   0.13646   0.13580   0.00000  Uiso   1.00
C80    C     0.64599   0.19698   0.19828   0.00000  Uiso   1.00
C81    C     0.64416   0.13623   0.13594   0.00000  Uiso   1.00
C82    C     0.35565   0.19711   0.19816   0.00000  Uiso   1.00
C83    C     0.62395   0.16630   0.16735   0.00000  Uiso   1.00
C84    C     0.37589   0.16715   0.16654   0.00000  Uiso   1.00
C85    C     0.52641   0.02411   0.19966   0.00000  Uiso   1.00
C86    C     0.47447   0.30935   0.13354   0.00000  Uiso   1.00
C87    C     0.47893   0.02276   0.12900   0.00000  Uiso   1.00
C88    C     0.52471   0.30979   0.20146   0.00000  Uiso   1.00
H89    H     0.36935   0.11315   0.11144   0.00000  Uiso   1.00
H90    H     0.63001   0.22012   0.22282   0.00000  Uiso   1.00
H91    H     0.62679   0.11313   0.11131   0.00000  Uiso   1.00
H92    H     0.37309   0.21969   0.22325   0.00000  Uiso   1.00
N93    N     0.50000   0.28573   0.16667   0.00000  Uiso   1.00
N94    N     0.50000   0.04760   0.16667   0.00000  Uiso   1.00
O95    O     0.43892   0.20487   0.16666   0.00000  Uiso   1.00
O96    O     0.56108   0.12846   0.16667   0.00000  Uiso   1.00
O97    O     0.56108   0.20487   0.16667   0.00000  Uiso   1.00
O98    O     0.43892   0.12846   0.16666   0.00000  Uiso   1.00
O99    O     0.50000   0.20488   0.09511   0.00000  Uiso   1.00
O100   O     0.50000   0.12845   0.23822   0.00000  Uiso   1.00
O101   O     0.50000   0.20488   0.23822   0.00000  Uiso   1.00
O102   O     0.50000   0.12845   0.09511   0.00000  Uiso   1.00
Zn103  Zn    0.50000   0.21771   0.16667   0.00000  Uiso   1.00
Zn104  Zn    0.50000   0.11563   0.16667   0.00000  Uiso   1.00
C105   C     0.56340   0.04734   0.22659   0.00000  Uiso   1.00
C106   C     0.60147   0.04786   0.19341   0.00000  Uiso   1.00
C107   C     0.62722   0.00513   0.19260   0.00000  Uiso   1.00
H108   H     0.63949   0.33051   0.23125   0.00000  Uiso   1.00
H109   H     0.60866   0.31073   0.17544   0.00000  Uiso   1.00
H110   H     0.65409   0.00994   0.16891   0.00000  Uiso   1.00
H111   H     0.59110   0.05491   0.15381   0.00000  Uiso   1.00
H112   H     0.62256   0.07467   0.20792   0.00000  Uiso   1.00
H113   H     0.55517   0.08153   0.23623   0.00000  Uiso   1.00
H114   H     0.57225   0.03428   0.26426   0.00000  Uiso   1.00
C115   C     0.43619   0.28775   0.10815   0.00000  Uiso   1.00
C116   C     0.39646   0.29553   0.13809   0.00000  Uiso   1.00
C117   C     0.40439   0.30242   0.19535   0.00000  Uiso   1.00
H118   H     0.42619   0.27695   0.21140   0.00000  Uiso   1.00
H119   H     0.41763   0.00232   0.20404   0.00000  Uiso   1.00
H120   H     0.37460   0.30033   0.21440   0.00000  Uiso   1.00
H121   H     0.37926   0.32507   0.12350   0.00000  Uiso   1.00
H122   H     0.37539   0.26698   0.13078   0.00000  Uiso   1.00
H123   H     0.42939   0.29956   0.06942   0.00000  Uiso   1.00
H124   H     0.44165   0.25233   0.10147   0.00000  Uiso   1.00
C125   C     0.47453   0.03896   0.07527   0.00000  Uiso   1.00
C126   C     0.43284   0.06275   0.06181   0.00000  Uiso   1.00
C127   C     0.42619   0.06792   0.00487   0.00000  Uiso   1.00
H128   H     0.45280   0.08554   0.32320   0.00000  Uiso   1.00
H129   H     0.42336   0.03493   0.31895   0.00000  Uiso   1.00
H130   H     0.39694   0.08728   0.32975   0.00000  Uiso   1.00
H131   H     0.40635   0.04401   0.07513   0.00000  Uiso   1.00
H132   H     0.43223   0.09592   0.07995   0.00000  Uiso   1.00
H133   H     0.50210   0.05812   0.06662   0.00000  Uiso   1.00
H134   H     0.47793   0.01049   0.04840   0.00000  Uiso   1.00
C135   C     0.54722   0.28663   0.24547   0.00000  Uiso   1.00
C136   C     0.52298   0.29302   0.29364   0.00000  Uiso   1.00
C137   C     0.54774   0.27473   0.00614   0.00000  Uiso   1.00
H138   H     0.55651   0.23947   0.33269   0.00000  Uiso   1.00
H139   H     0.57667   0.29405   0.01418   0.00000  Uiso   1.00
H140   H     0.52846   0.27730   0.03963   0.00000  Uiso   1.00
H141   H     0.51650   0.32878   0.30102   0.00000  Uiso   1.00
H142   H     0.49232   0.27633   0.28894   0.00000  Uiso   1.00
H143   H     0.55315   0.25170   0.23704   0.00000  Uiso   1.00
H144   H     0.57940   0.29820   0.25291   0.00000  Uiso   1.00
C145   C     0.75353   0.16692   0.16652   0.00000  Uiso   1.00
C146   C     0.91308   0.16645   0.16708   0.00000  Uiso   1.00
C147   C     0.83314   0.16631   0.07315   0.00000  Uiso   1.00
C148   C     0.83339   0.16703   0.26018   0.00000  Uiso   1.00
C149   C     0.83310   0.16613   0.02186   0.00000  Uiso   1.00
C150   C     0.83319   0.16717   0.31145   0.00000  Uiso   1.00
C151   C     0.68706   0.13646   0.13580   0.00000  Uiso   1.00
C152   C     0.97932   0.19698   0.19828   0.00000  Uiso   1.00
C153   C     0.97749   0.13623   0.13594   0.00000  Uiso   1.00
C154   C     0.68899   0.19711   0.19816   0.00000  Uiso   1.00
C155   C     0.95729   0.16630   0.16735   0.00000  Uiso   1.00
C156   C     0.70922   0.16715   0.16654   0.00000  Uiso   1.00
C157   C     0.85974   0.02411   0.19966   0.00000  Uiso   1.00
C158   C     0.80780   0.30935   0.13354   0.00000  Uiso   1.00
C159   C     0.81226   0.02276   0.12900   0.00000  Uiso   1.00
C160   C     0.85805   0.30979   0.20146   0.00000  Uiso   1.00
H161   H     0.70269   0.11315   0.11144   0.00000  Uiso   1.00
H162   H     0.96334   0.22012   0.22282   0.00000  Uiso   1.00
H163   H     0.96012   0.11313   0.11131   0.00000  Uiso   1.00
H164   H     0.70642   0.21969   0.22325   0.00000  Uiso   1.00
N165   N     0.83333   0.28573   0.16667   0.00000  Uiso   1.00
N166   N     0.83333   0.04760   0.16667   0.00000  Uiso   1.00
O167   O     0.77226   0.20487   0.16666   0.00000  Uiso   1.00
O168   O     0.89441   0.12846   0.16667   0.00000  Uiso   1.00
O169   O     0.89441   0.20487   0.16667   0.00000  Uiso   1.00
O170   O     0.77226   0.12846   0.16666   0.00000  Uiso   1.00
O171   O     0.83334   0.20488   0.09511   0.00000  Uiso   1.00
O172   O     0.83333   0.12845   0.23822   0.00000  Uiso   1.00
O173   O     0.83333   0.20488   0.23822   0.00000  Uiso   1.00
O174   O     0.83334   0.12845   0.09511   0.00000  Uiso   1.00
Zn175  Zn    0.83333   0.21771   0.16667   0.00000  Uiso   1.00
Zn176  Zn    0.83333   0.11563   0.16667   0.00000  Uiso   1.00
C177   C     0.89673   0.04734   0.22659   0.00000  Uiso   1.00
C178   C     0.93481   0.04786   0.19341   0.00000  Uiso   1.00
C179   C     0.96055   0.00513   0.19260   0.00000  Uiso   1.00
H180   H     0.97283   0.33051   0.23125   0.00000  Uiso   1.00
H181   H     0.94199   0.31073   0.17544   0.00000  Uiso   1.00
H182   H     0.98743   0.00994   0.16891   0.00000  Uiso   1.00
H183   H     0.92443   0.05491   0.15381   0.00000  Uiso   1.00
H184   H     0.95590   0.07467   0.20792   0.00000  Uiso   1.00
H185   H     0.88851   0.08153   0.23623   0.00000  Uiso   1.00
H186   H     0.90559   0.03428   0.26426   0.00000  Uiso   1.00
C187   C     0.76952   0.28775   0.10815   0.00000  Uiso   1.00
C188   C     0.72979   0.29553   0.13809   0.00000  Uiso   1.00
C189   C     0.73773   0.30242   0.19535   0.00000  Uiso   1.00
H190   H     0.75952   0.27695   0.21140   0.00000  Uiso   1.00
H191   H     0.75096   0.00232   0.20404   0.00000  Uiso   1.00
H192   H     0.70793   0.30033   0.21440   0.00000  Uiso   1.00
H193   H     0.71260   0.32507   0.12350   0.00000  Uiso   1.00
H194   H     0.70873   0.26698   0.13078   0.00000  Uiso   1.00
H195   H     0.76273   0.29956   0.06942   0.00000  Uiso   1.00
H196   H     0.77498   0.25233   0.10147   0.00000  Uiso   1.00
C197   C     0.80786   0.03896   0.07527   0.00000  Uiso   1.00
C198   C     0.76618   0.06275   0.06181   0.00000  Uiso   1.00
C199   C     0.75952   0.06792   0.00487   0.00000  Uiso   1.00
H200   H     0.78613   0.08554   0.32320   0.00000  Uiso   1.00
H201   H     0.75669   0.03493   0.31895   0.00000  Uiso   1.00
H202   H     0.73027   0.08728   0.32975   0.00000  Uiso   1.00
H203   H     0.73968   0.04401   0.07513   0.00000  Uiso   1.00
H204   H     0.76556   0.09592   0.07995   0.00000  Uiso   1.00
H205   H     0.83543   0.05812   0.06662   0.00000  Uiso   1.00
H206   H     0.81126   0.01049   0.04840   0.00000  Uiso   1.00
C207   C     0.88056   0.28663   0.24547   0.00000  Uiso   1.00
C208   C     0.85631   0.29302   0.29364   0.00000  Uiso   1.00
C209   C     0.88108   0.27473   0.00614   0.00000  Uiso   1.00
H210   H     0.88984   0.23947   0.33269   0.00000  Uiso   1.00
H211   H     0.91000   0.29405   0.01418   0.00000  Uiso   1.00
H212   H     0.86179   0.27730   0.03963   0.00000  Uiso   1.00
H213   H     0.84984   0.32878   0.30102   0.00000  Uiso   1.00
H214   H     0.82565   0.27633   0.28894   0.00000  Uiso   1.00
H215   H     0.88649   0.25170   0.23704   0.00000  Uiso   1.00
H216   H     0.91273   0.29820   0.25291   0.00000  Uiso   1.00
C217   C     0.08686   0.50025   0.16652   0.00000  Uiso   1.00
C218   C     0.24642   0.49978   0.16708   0.00000  Uiso   1.00
C219   C     0.16647   0.49964   0.07315   0.00000  Uiso   1.00
C220   C     0.16673   0.50036   0.26018   0.00000  Uiso   1.00
C221   C     0.16644   0.49946   0.02186   0.00000  Uiso   1.00
C222   C     0.16652   0.50051   0.31145   0.00000  Uiso   1.00
C223   C     0.02039   0.46979   0.13580   0.00000  Uiso   1.00
C224   C     0.31266   0.53031   0.19828   0.00000  Uiso   1.00
C225   C     0.31083   0.46956   0.13594   0.00000  Uiso   1.00
C226   C     0.02232   0.53044   0.19816   0.00000  Uiso   1.00
C227   C     0.29062   0.49964   0.16735   0.00000  Uiso   1.00
C228   C     0.04255   0.50048   0.16654   0.00000  Uiso   1.00
C229   C     0.19307   0.35744   0.19966   0.00000  Uiso   1.00
C230   C     0.14113   0.64269   0.13354   0.00000  Uiso   1.00
C231   C     0.14560   0.35609   0.12900   0.00000  Uiso   1.00
C232   C     0.19138   0.64312   0.20146   0.00000  Uiso   1.00
H233   H     0.03602   0.44648   0.11144   0.00000  Uiso   1.00
H234   H     0.29668   0.55345   0.22282   0.00000  Uiso   1.00
H235   H     0.29345   0.44646   0.11131   0.00000  Uiso   1.00
H236   H     0.03976   0.55302   0.22325   0.00000  Uiso   1.00
N237   N     0.16667   0.61907   0.16667   0.00000  Uiso   1.00
N238   N     0.16667   0.38093   0.16667   0.00000  Uiso   1.00
O239   O     0.10559   0.53821   0.16666   0.00000  Uiso   1.00
O240   O     0.22774   0.46179   0.16667   0.00000  Uiso   1.00
O241   O     0.22774   0.53821   0.16667   0.00000  Uiso   1.00
O242   O     0.10559   0.46179   0.16666   0.00000  Uiso   1.00
O243   O     0.16667   0.53821   0.09511   0.00000  Uiso   1.00
O244   O     0.16666   0.46179   0.23822   0.00000  Uiso   1.00
O245   O     0.16666   0.53821   0.23822   0.00000  Uiso   1.00
O246   O     0.16667   0.46179   0.09511   0.00000  Uiso   1.00
Zn247  Zn    0.16667   0.55104   0.16667   0.00000  Uiso   1.00
Zn248  Zn    0.16667   0.44896   0.16667   0.00000  Uiso   1.00
C249   C     0.23006   0.38067   0.22659   0.00000  Uiso   1.00
C250   C     0.26814   0.38119   0.19341   0.00000  Uiso   1.00
C251   C     0.29389   0.33846   0.19260   0.00000  Uiso   1.00
H252   H     0.30616   0.66384   0.23125   0.00000  Uiso   1.00
H253   H     0.27532   0.64406   0.17544   0.00000  Uiso   1.00
H254   H     0.32076   0.34327   0.16891   0.00000  Uiso   1.00
H255   H     0.25776   0.38824   0.15381   0.00000  Uiso   1.00
H256   H     0.28923   0.40800   0.20792   0.00000  Uiso   1.00
H257   H     0.22184   0.41486   0.23623   0.00000  Uiso   1.00
H258   H     0.23892   0.36761   0.26426   0.00000  Uiso   1.00
C259   C     0.10285   0.62108   0.10815   0.00000  Uiso   1.00
C260   C     0.06312   0.62887   0.13809   0.00000  Uiso   1.00
C261   C     0.07106   0.63575   0.19535   0.00000  Uiso   1.00
H262   H     0.09286   0.61029   0.21140   0.00000  Uiso   1.00
H263   H     0.08429   0.33565   0.20404   0.00000  Uiso   1.00
H264   H     0.04126   0.63366   0.21440   0.00000  Uiso   1.00
H265   H     0.04593   0.65840   0.12350   0.00000  Uiso   1.00
H266   H     0.04206   0.60031   0.13078   0.00000  Uiso   1.00
H267   H     0.09606   0.63289   0.06942   0.00000  Uiso   1.00
H268   H     0.10832   0.58567   0.10147   0.00000  Uiso   1.00
C269   C     0.14120   0.37229   0.07527   0.00000  Uiso   1.00
C270   C     0.09951   0.39608   0.06181   0.00000  Uiso   1.00
C271   C     0.09285   0.40125   0.00487   0.00000  Uiso   1.00
H272   H     0.11946   0.41887   0.32320   0.00000  Uiso   1.00
H273   H     0.09002   0.36826   0.31895   0.00000  Uiso   1.00
H274   H     0.06361   0.42061   0.32975   0.00000  Uiso   1.00
H275   H     0.07302   0.37734   0.07513   0.00000  Uiso   1.00
H276   H     0.09890   0.42926   0.07995   0.00000  Uiso   1.00
H277   H     0.16877   0.39145   0.06662   0.00000  Uiso   1.00
H278   H     0.14460   0.34382   0.04840   0.00000  Uiso   1.00
C279   C     0.21389   0.61996   0.24547   0.00000  Uiso   1.00
C280   C     0.18965   0.62635   0.29364   0.00000  Uiso   1.00
C281   C     0.21441   0.60807   0.00614   0.00000  Uiso   1.00
H282   H     0.22317   0.57281   0.33269   0.00000  Uiso   1.00
H283   H     0.24334   0.62739   0.01418   0.00000  Uiso   1.00
H284   H     0.19512   0.61063   0.03963   0.00000  Uiso   1.00
H285   H     0.18317   0.66211   0.30102   0.00000  Uiso   1.00
H286   H     0.15899   0.60967   0.28894   0.00000  Uiso   1.00
H287   H     0.21982   0.58503   0.23704   0.00000  Uiso   1.00
H288   H     0.24606   0.63153   0.25291   0.00000  Uiso   1.00
C289   C     0.42020   0.50025   0.16652   0.00000  Uiso   1.00
C290   C     0.57975   0.49978   0.16708   0.00000  Uiso   1.00
C291   C     0.49980   0.49964   0.07315   0.00000  Uiso   1.00
C292   C     0.50006   0.50036   0.26018   0.00000  Uiso   1.00
C293   C     0.49977   0.49946   0.02186   0.00000  Uiso   1.00
C294   C     0.49986   0.50051   0.31145   0.00000  Uiso   1.00
C295   C     0.35372   0.46979   0.13580   0.00000  Uiso   1.00
C296   C     0.64599   0.53031   0.19828   0.00000  Uiso   1.00
C297   C     0.64416   0.46956   0.13594   0.00000  Uiso   1.00
C298   C     0.35565   0.53044   0.19816   0.00000  Uiso   1.00
C299   C     0.62395   0.49964   0.16735   0.00000  Uiso   1.00
C300   C     0.37589   0.50048   0.16654   0.00000  Uiso   1.00
C301   C     0.52641   0.35744   0.19966   0.00000  Uiso   1.00
C302   C     0.47447   0.64269   0.13354   0.00000  Uiso   1.00
C303   C     0.47893   0.35609   0.12900   0.00000  Uiso   1.00
C304   C     0.52471   0.64312   0.20146   0.00000  Uiso   1.00
H305   H     0.36935   0.44648   0.11144   0.00000  Uiso   1.00
H306   H     0.63001   0.55345   0.22282   0.00000  Uiso   1.00
H307   H     0.62679   0.44646   0.11131   0.00000  Uiso   1.00
H308   H     0.37309   0.55302   0.22325   0.00000  Uiso   1.00
N309   N     0.50000   0.61907   0.16667   0.00000  Uiso   1.00
N310   N     0.50000   0.38093   0.16667   0.00000  Uiso   1.00
O311   O     0.43892   0.53821   0.16666   0.00000  Uiso   1.00
O312   O     0.56108   0.46179   0.16667   0.00000  Uiso   1.00
O313   O     0.56108   0.53821   0.16667   0.00000  Uiso   1.00
O314   O     0.43892   0.46179   0.16666   0.00000  Uiso   1.00
O315   O     0.50000   0.53821   0.09511   0.00000  Uiso   1.00
O316   O     0.50000   0.46179   0.23822   0.00000  Uiso   1.00
O317   O     0.50000   0.53821   0.23822   0.00000  Uiso   1.00
O318   O     0.50000   0.46179   0.09511   0.00000  Uiso   1.00
Zn319  Zn    0.50000   0.55104   0.16667   0.00000  Uiso   1.00
Zn320  Zn    0.50000   0.44896   0.16667   0.00000  Uiso   1.00
C321   C     0.56340   0.38067   0.22659   0.00000  Uiso   1.00
C322   C     0.60147   0.38119   0.19341   0.00000  Uiso   1.00
C323   C     0.62722   0.33846   0.19260   0.00000  Uiso   1.00
H324   H     0.63949   0.66384   0.23125   0.00000  Uiso   1.00
H325   H     0.60866   0.64406   0.17544   0.00000  Uiso   1.00
H326   H     0.65409   0.34327   0.16891   0.00000  Uiso   1.00
H327   H     0.59110   0.38824   0.15381   0.00000  Uiso   1.00
H328   H     0.62256   0.40800   0.20792   0.00000  Uiso   1.00
H329   H     0.55517   0.41486   0.23623   0.00000  Uiso   1.00
H330   H     0.57225   0.36761   0.26426   0.00000  Uiso   1.00
C331   C     0.43619   0.62108   0.10815   0.00000  Uiso   1.00
C332   C     0.39646   0.62887   0.13809   0.00000  Uiso   1.00
C333   C     0.40439   0.63575   0.19535   0.00000  Uiso   1.00
H334   H     0.42619   0.61029   0.21140   0.00000  Uiso   1.00
H335   H     0.41763   0.33565   0.20404   0.00000  Uiso   1.00
H336   H     0.37460   0.63366   0.21440   0.00000  Uiso   1.00
H337   H     0.37926   0.65840   0.12350   0.00000  Uiso   1.00
H338   H     0.37539   0.60031   0.13078   0.00000  Uiso   1.00
H339   H     0.42939   0.63289   0.06942   0.00000  Uiso   1.00
H340   H     0.44165   0.58567   0.10147   0.00000  Uiso   1.00
C341   C     0.47453   0.37229   0.07527   0.00000  Uiso   1.00
C342   C     0.43284   0.39608   0.06181   0.00000  Uiso   1.00
C343   C     0.42619   0.40125   0.00487   0.00000  Uiso   1.00
H344   H     0.45280   0.41887   0.32320   0.00000  Uiso   1.00
H345   H     0.42336   0.36826   0.31895   0.00000  Uiso   1.00
H346   H     0.39694   0.42061   0.32975   0.00000  Uiso   1.00
H347   H     0.40635   0.37734   0.07513   0.00000  Uiso   1.00
H348   H     0.43223   0.42926   0.07995   0.00000  Uiso   1.00
H349   H     0.50210   0.39145   0.06662   0.00000  Uiso   1.00
H350   H     0.47793   0.34382   0.04840   0.00000  Uiso   1.00
C351   C     0.54722   0.61996   0.24547   0.00000  Uiso   1.00
C352   C     0.52298   0.62635   0.29364   0.00000  Uiso   1.00
C353   C     0.54774   0.60807   0.00614   0.00000  Uiso   1.00
H354   H     0.55651   0.57281   0.33269   0.00000  Uiso   1.00
H355   H     0.57667   0.62739   0.01418   0.00000  Uiso   1.00
H356   H     0.52846   0.61063   0.03963   0.00000  Uiso   1.00
H357   H     0.51650   0.66211   0.30102   0.00000  Uiso   1.00
H358   H     0.49232   0.60967   0.28894   0.00000  Uiso   1.00
H359   H     0.55315   0.58503   0.23704   0.00000  Uiso   1.00
H360   H     0.57940   0.63153   0.25291   0.00000  Uiso   1.00
C361   C     0.75353   0.50025   0.16652   0.00000  Uiso   1.00
C362   C     0.91308   0.49978   0.16708   0.00000  Uiso   1.00
C363   C     0.83314   0.49964   0.07315   0.00000  Uiso   1.00
C364   C     0.83339   0.50036   0.26018   0.00000  Uiso   1.00
C365   C     0.83310   0.49946   0.02186   0.00000  Uiso   1.00
C366   C     0.83319   0.50051   0.31145   0.00000  Uiso   1.00
C367   C     0.68706   0.46979   0.13580   0.00000  Uiso   1.00
C368   C     0.97932   0.53031   0.19828   0.00000  Uiso   1.00
C369   C     0.97749   0.46956   0.13594   0.00000  Uiso   1.00
C370   C     0.68899   0.53044   0.19816   0.00000  Uiso   1.00
C371   C     0.95729   0.49964   0.16735   0.00000  Uiso   1.00
C372   C     0.70922   0.50048   0.16654   0.00000  Uiso   1.00
C373   C     0.85974   0.35744   0.19966   0.00000  Uiso   1.00
C374   C     0.80780   0.64269   0.13354   0.00000  Uiso   1.00
C375   C     0.81226   0.35609   0.12900   0.00000  Uiso   1.00
C376   C     0.85805   0.64312   0.20146   0.00000  Uiso   1.00
H377   H     0.70269   0.44648   0.11144   0.00000  Uiso   1.00
H378   H     0.96334   0.55345   0.22282   0.00000  Uiso   1.00
H379   H     0.96012   0.44646   0.11131   0.00000  Uiso   1.00
H380   H     0.70642   0.55302   0.22325   0.00000  Uiso   1.00
N381   N     0.83333   0.61907   0.16667   0.00000  Uiso   1.00
N382   N     0.83333   0.38093   0.16667   0.00000  Uiso   1.00
O383   O     0.77226   0.53821   0.16666   0.00000  Uiso   1.00
O384   O     0.89441   0.46179   0.16667   0.00000  Uiso   1.00
O385   O     0.89441   0.53821   0.16667   0.00000  Uiso   1.00
O386   O     0.77226   0.46179   0.16666   0.00000  Uiso   1.00
O387   O     0.83334   0.53821   0.09511   0.00000  Uiso   1.00
O388   O     0.83333   0.46179   0.23822   0.00000  Uiso   1.00
O389   O     0.83333   0.53821   0.23822   0.00000  Uiso   1.00
O390   O     0.83334   0.46179   0.09511   0.00000  Uiso   1.00
Zn391  Zn    0.83333   0.55104   0.16667   0.00000  Uiso   1.00
Zn392  Zn    0.83333   0.44896   0.16667   0.00000  Uiso   1.00
C393   C     0.89673   0.38067   0.22659   0.00000  Uiso   1.00
C394   C     0.93481   0.38119   0.19341   0.00000  Uiso   1.00
C395   C     0.96055   0.33846   0.19260   0.00000  Uiso   1.00
H396   H     0.97283   0.66384   0.23125   0.00000  Uiso   1.00
H397   H     0.94199   0.64406   0.17544   0.00000  Uiso   1.00
H398   H     0.98743   0.34327   0.16891   0.00000  Uiso   1.00
H399   H     0.92443   0.38824   0.15381   0.00000  Uiso   1.00
H400   H     0.95590   0.40800   0.20792   0.00000  Uiso   1.00
H401   H     0.88851   0.41486   0.23623   0.00000  Uiso   1.00
H402   H     0.90559   0.36761   0.26426   0.00000  Uiso   1.00
C403   C     0.76952   0.62108   0.10815   0.00000  Uiso   1.00
C404   C     0.72979   0.62887   0.13809   0.00000  Uiso   1.00
C405   C     0.73773   0.63575   0.19535   0.00000  Uiso   1.00
H406   H     0.75952   0.61029   0.21140   0.00000  Uiso   1.00
H407   H     0.75096   0.33565   0.20404   0.00000  Uiso   1.00
H408   H     0.70793   0.63366   0.21440   0.00000  Uiso   1.00
H409   H     0.71260   0.65840   0.12350   0.00000  Uiso   1.00
H410   H     0.70873   0.60031   0.13078   0.00000  Uiso   1.00
H411   H     0.76273   0.63289   0.06942   0.00000  Uiso   1.00
H412   H     0.77498   0.58567   0.10147   0.00000  Uiso   1.00
C413   C     0.80786   0.37229   0.07527   0.00000  Uiso   1.00
C414   C     0.76618   0.39608   0.06181   0.00000  Uiso   1.00
C415   C     0.75952   0.40125   0.00487   0.00000  Uiso   1.00
H416   H     0.78613   0.41887   0.32320   0.00000  Uiso   1.00
H417   H     0.75669   0.36826   0.31895   0.00000  Uiso   1.00
H418   H     0.73027   0.42061   0.32975   0.00000  Uiso   1.00
H419   H     0.73968   0.37734   0.07513   0.00000  Uiso   1.00
H420   H     0.76556   0.42926   0.07995   0.00000  Uiso   1.00
H421   H     0.83543   0.39145   0.06662   0.00000  Uiso   1.00
H422   H     0.81126   0.34382   0.04840   0.00000  Uiso   1.00
C423   C     0.88056   0.61996   0.24547   0.00000  Uiso   1.00
C424   C     0.85631   0.62635   0.29364   0.00000  Uiso   1.00
C425   C     0.88108   0.60807   0.00614   0.00000  Uiso   1.00
H426   H     0.88984   0.57281   0.33269   0.00000  Uiso   1.00
H427   H     0.91000   0.62739   0.01418   0.00000  Uiso   1.00
H428   H     0.86179   0.61063   0.03963   0.00000  Uiso   1.00
H429   H     0.84984   0.66211   0.30102   0.00000  Uiso   1.00
H430   H     0.82565   0.60967   0.28894   0.00000  Uiso   1.00
H431   H     0.88649   0.58503   0.23704   0.00000  Uiso   1.00
H432   H     0.91273   0.63153   0.25291   0.00000  Uiso   1.00
C433   C     0.08686   0.83359   0.16652   0.00000  Uiso   1.00
C434   C     0.24642   0.83311   0.16708   0.00000  Uiso   1.00
C435   C     0.16647   0.83297   0.07315   0.00000  Uiso   1.00
C436   C     0.16673   0.83369   0.26018   0.00000  Uiso   1.00
C437   C     0.16644   0.83280   0.02186   0.00000  Uiso   1.00
C438   C     0.16652   0.83384   0.31145   0.00000  Uiso   1.00
C439   C     0.02039   0.80313   0.13580   0.00000  Uiso   1.00
C440   C     0.31266   0.86364   0.19828   0.00000  Uiso   1.00
C441   C     0.31083   0.80289   0.13594   0.00000  Uiso   1.00
C442   C     0.02232   0.86378   0.19816   0.00000  Uiso   1.00
C443   C     0.29062   0.83297   0.16735   0.00000  Uiso   1.00
C444   C     0.04255   0.83382   0.16654   0.00000  Uiso   1.00
C445   C     0.19307   0.69078   0.19966   0.00000  Uiso   1.00
C446   C     0.14113   0.97602   0.13354   0.00000  Uiso   1.00
C447   C     0.14560   0.68942   0.12900   0.00000  Uiso   1.00
C448   C     0.19138   0.97645   0.20146   0.00000  Uiso   1.00
H449   H     0.03602   0.77982   0.11144   0.00000  Uiso   1.00
H450   H     0.29668   0.88678   0.22282   0.00000  Uiso   1.00
H451   H     0.29345   0.77980   0.11131   0.00000  Uiso   1.00
H452   H     0.03976   0.88635   0.22325   0.00000  Uiso   1.00
N453   N     0.16667   0.95240   0.16667   0.00000  Uiso   1.00
N454   N     0.16667   0.71427   0.16667   0.00000  Uiso   1.00
O455   O     0.10559   0.87154   0.16666   0.00000  Uiso   1.00
O456   O     0.22774   0.79513   0.16667   0.00000  Uiso   1.00
O457   O     0.22774   0.87154   0.16667   0.00000  Uiso   1.00
O458   O     0.10559   0.79513   0.16666   0.00000  Uiso   1.00
O459   O     0.16667   0.87155   0.09511   0.00000  Uiso   1.00
O460   O     0.16666   0.79512   0.23822   0.00000  Uiso   1.00
O461   O     0.16666   0.87155   0.23822   0.00000  Uiso   1.00
O462   O     0.16667   0.79512   0.09511   0.00000  Uiso   1.00
Zn463  Zn    0.16667   0.88437   0.16667   0.00000  Uiso   1.00
Zn464  Zn    0.16667   0.78229   0.16667   0.00000  Uiso   1.00
C465   C     0.23006   0.71400   0.22659   0.00000  Uiso   1.00
C466   C     0.26814   0.71453   0.19341   0.00000  Uiso   1.00
C467   C     0.29389   0.67179   0.19260   0.00000  Uiso   1.00
H468   H     0.30616   0.99717   0.23125   0.00000  Uiso   1.00
H469   H     0.27532   0.97739   0.17544   0.00000  Uiso   1.00
H470   H     0.32076   0.67660   0.16891   0.00000  Uiso   1.00
H471   H     0.25776   0.72157   0.15381   0.00000  Uiso   1.00
H472   H     0.28923   0.74134   0.20792   0.00000  Uiso   1.00
H473   H     0.22184   0.74820   0.23623   0.00000  Uiso   1.00
H474   H     0.23892   0.70094   0.26426   0.00000  Uiso   1.00
C475   C     0.10285   0.95442   0.10815   0.00000  Uiso   1.00
C476   C     0.06312   0.96220   0.13809   0.00000  Uiso   1.00
C477   C     0.07106   0.96908   0.19535   0.00000  Uiso   1.00
H478   H     0.09286   0.94362   0.21140   0.00000  Uiso   1.00
H479   H     0.08429   0.66899   0.20404   0.00000  Uiso   1.00
H480   H     0.04126   0.96699   0.21440   0.00000  Uiso   1.00
H481   H     0.04593   0.99174   0.12350   0.00000  Uiso   1.00
H482   H     0.04206   0.93365   0.13078   0.00000  Uiso   1.00
H483   H     0.09606   0.96622   0.06942   0.00000  Uiso   1.00
H484   H     0.10832   0.91900   0.10147   0.00000  Uiso   1.00
C485   C     0.14120   0.70562   0.07527   0.00000  Uiso   1.00
C486   C     0.09951   0.72941   0.06181   0.00000  Uiso   1.00
C487   C     0.09285   0.73459   0.00487   0.00000  Uiso   1.00
H488   H     0.11946   0.75220   0.32320   0.00000  Uiso   1.00
H489   H     0.09002   0.70159   0.31895   0.00000  Uiso   1.00
H490   H     0.06361   0.75394   0.32975   0.00000  Uiso   1.00
H491   H     0.07302   0.71067   0.07513   0.00000  Uiso   1.00
H492   H     0.09890   0.76259   0.07995   0.00000  Uiso   1.00
H493   H     0.16877   0.72479   0.06662   0.00000  Uiso   1.00
H494   H     0.14460   0.67716   0.04840   0.00000  Uiso   1.00
C495   C     0.21389   0.95330   0.24547   0.00000  Uiso   1.00
C496   C     0.18965   0.95968   0.29364   0.00000  Uiso   1.00
C497   C     0.21441   0.94140   0.00614   0.00000  Uiso   1.00
H498   H     0.22317   0.90614   0.33269   0.00000  Uiso   1.00
H499   H     0.24334   0.96072   0.01418   0.00000  Uiso   1.00
H500   H     0.19512   0.94397   0.03963   0.00000  Uiso   1.00
H501   H     0.18317   0.99545   0.30102   0.00000  Uiso   1.00
H502   H     0.15899   0.94300   0.28894   0.00000  Uiso   1.00
H503   H     0.21982   0.91836   0.23704   0.00000  Uiso   1.00
H504   H     0.24606   0.96487   0.25291   0.00000  Uiso   1.00
C505   C     0.42020   0.83359   0.16652   0.00000  Uiso   1.00
C506   C     0.57975   0.83311   0.16708   0.00000  Uiso   1.00
C507   C     0.49980   0.83297   0.07315   0.00000  Uiso   1.00
C508   C     0.50006   0.83369   0.26018   0.00000  Uiso   1.00
C509   C     0.49977   0.83280   0.02186   0.00000  Uiso   1.00
C510   C     0.49986   0.83384   0.31145   0.00000  Uiso   1.00
C511   C     0.35372   0.80313   0.13580   0.00000  Uiso   1.00
C512   C     0.64599   0.86364   0.19828   0.00000  Uiso   1.00
C513   C     0.64416   0.80289   0.13594   0.00000  Uiso   1.00
C514   C     0.35565   0.86378   0.19816   0.00000  Uiso   1.00
C515   C     0.62395   0.83297   0.16735   0.00000  Uiso   1.00
C516   C     0.37589   0.83382   0.16654   0.00000  Uiso   1.00
C517   C     0.52641   0.69078   0.19966   0.00000  Uiso   1.00
C518   C     0.47447   0.97602   0.13354   0.00000  Uiso   1.00
C519   C     0.47893   0.68942   0.12900   0.00000  Uiso   1.00
C520   C     0.52471   0.97645   0.20146   0.00000  Uiso   1.00
H521   H     0.36935   0.77982   0.11144   0.00000  Uiso   1.00
H522   H     0.63001   0.88678   0.22282   0.00000  Uiso   1.00
H523   H     0.62679   0.77980   0.11131   0.00000  Uiso   1.00
H524   H     0.37309   0.88635   0.22325   0.00000  Uiso   1.00
N525   N     0.50000   0.95240   0.16667   0.00000  Uiso   1.00
N526   N     0.50000   0.71427   0.16667   0.00000  Uiso   1.00
O527   O     0.43892   0.87154   0.16666   0.00000  Uiso   1.00
O528   O     0.56108   0.79513   0.16667   0.00000  Uiso   1.00
O529   O     0.56108   0.87154   0.16667   0.00000  Uiso   1.00
O530   O     0.43892   0.79513   0.16666   0.00000  Uiso   1.00
O531   O     0.50000   0.87155   0.09511   0.00000  Uiso   1.00
O532   O     0.50000   0.79512   0.23822   0.00000  Uiso   1.00
O533   O     0.50000   0.87155   0.23822   0.00000  Uiso   1.00
O534   O     0.50000   0.79512   0.09511   0.00000  Uiso   1.00
Zn535  Zn    0.50000   0.88437   0.16667   0.00000  Uiso   1.00
Zn536  Zn    0.50000   0.78229   0.16667   0.00000  Uiso   1.00
C537   C     0.56340   0.71400   0.22659   0.00000  Uiso   1.00
C538   C     0.60147   0.71453   0.19341   0.00000  Uiso   1.00
C539   C     0.62722   0.67179   0.19260   0.00000  Uiso   1.00
H540   H     0.63949   0.99717   0.23125   0.00000  Uiso   1.00
H541   H     0.60866   0.97739   0.17544   0.00000  Uiso   1.00
H542   H     0.65409   0.67660   0.16891   0.00000  Uiso   1.00
H543   H     0.59110   0.72157   0.15381   0.00000  Uiso   1.00
H544   H     0.62256   0.74134   0.20792   0.00000  Uiso   1.00
H545   H     0.55517   0.74820   0.23623   0.00000  Uiso   1.00
H546   H     0.57225   0.70094   0.26426   0.00000  Uiso   1.00
C547   C     0.43619   0.95442   0.10815   0.00000  Uiso   1.00
C548   C     0.39646   0.96220   0.13809   0.00000  Uiso   1.00
C549   C     0.40439   0.96908   0.19535   0.00000  Uiso   1.00
H550   H     0.42619   0.94362   0.21140   0.00000  Uiso   1.00
H551   H     0.41763   0.66899   0.20404   0.00000  Uiso   1.00
H552   H     0.37460   0.96699   0.21440   0.00000  Uiso   1.00
H553   H     0.37926   0.99174   0.12350   0.00000  Uiso   1.00
H554   H     0.37539   0.93365   0.13078   0.00000  Uiso   1.00
H555   H     0.42939   0.96622   0.06942   0.00000  Uiso   1.00
H556   H     0.44165   0.91900   0.10147   0.00000  Uiso   1.00
C557   C     0.47453   0.70562   0.07527   0.00000  Uiso   1.00
C558   C     0.43284   0.72941   0.06181   0.00000  Uiso   1.00
C559   C     0.42619   0.73459   0.00487   0.00000  Uiso   1.00
H560   H     0.45280   0.75220   0.32320   0.00000  Uiso   1.00
H561   H     0.42336   0.70159   0.31895   0.00000  Uiso   1.00
H562   H     0.39694   0.75394   0.32975   0.00000  Uiso   1.00
H563   H     0.40635   0.71067   0.07513   0.00000  Uiso   1.00
H564   H     0.43223   0.76259   0.07995   0.00000  Uiso   1.00
H565   H     0.50210   0.72479   0.06662   0.00000  Uiso   1.00
H566   H     0.47793   0.67716   0.04840   0.00000  Uiso   1.00
C567   C     0.54722   0.95330   0.24547   0.00000  Uiso   1.00
C568   C     0.52298   0.95968   0.29364   0.00000  Uiso   1.00
C569   C     0.54774   0.94140   0.00614   0.00000  Uiso   1.00
H570   H     0.55651   0.90614   0.33269   0.00000  Uiso   1.00
H571   H     0.57667   0.96072   0.01418   0.00000  Uiso   1.00
H572   H     0.52846   0.94397   0.03963   0.00000  Uiso   1.00
H573   H     0.51650   0.99545   0.30102   0.00000  Uiso   1.00
H574   H     0.49232   0.94300   0.28894   0.00000  Uiso   1.00
H575   H     0.55315   0.91836   0.23704   0.00000  Uiso   1.00
H576   H     0.57940   0.96487   0.25291   0.00000  Uiso   1.00
C577   C     0.75353   0.83359   0.16652   0.00000  Uiso   1.00
C578   C     0.91308   0.83311   0.16708   0.00000  Uiso   1.00
C579   C     0.83314   0.83297   0.07315   0.00000  Uiso   1.00
C580   C     0.83339   0.83369   0.26018   0.00000  Uiso   1.00
C581   C     0.83310   0.83280   0.02186   0.00000  Uiso   1.00
C582   C     0.83319   0.83384   0.31145   0.00000  Uiso   1.00
C583   C     0.68706   0.80313   0.13580   0.00000  Uiso   1.00
C584   C     0.97932   0.86364   0.19828   0.00000  Uiso   1.00
C585   C     0.97749   0.80289   0.13594   0.00000  Uiso   1.00
C586   C     0.68899   0.86378   0.19816   0.00000  Uiso   1.00
C587   C     0.95729   0.83297   0.16735   0.00000  Uiso   1.00
C588   C     0.70922   0.83382   0.16654   0.00000  Uiso   1.00
C589   C     0.85974   0.69078   0.19966   0.00000  Uiso   1.00
C590   C     0.80780   0.97602   0.13354   0.00000  Uiso   1.00
C591   C     0.81226   0.68942   0.12900   0.00000  Uiso   1.00
C592   C     0.85805   0.97645   0.20146   0.00000  Uiso   1.00
H593   H     0.70269   0.77982   0.11144   0.00000  Uiso   1.00
H594   H     0.96334   0.88678   0.22282   0.00000  Uiso   1.00
H595   H     0.96012   0.77980   0.11131   0.00000  Uiso   1.00
H596   H     0.70642   0.88635   0.22325   0.00000  Uiso   1.00
N597   N     0.83333   0.95240   0.16667   0.00000  Uiso   1.00
N598   N     0.83333   0.71427   0.16667   0.00000  Uiso   1.00
O599   O     0.77226   0.87154   0.16666   0.00000  Uiso   1.00
O600   O     0.89441   0.79513   0.16667   0.00000  Uiso   1.00
O601   O     0.89441   0.87154   0.16667   0.00000  Uiso   1.00
O602   O     0.77226   0.79513   0.16666   0.00000  Uiso   1.00
O603   O     0.83334   0.87155   0.09511   0.00000  Uiso   1.00
O604   O     0.83333   0.79512   0.23822   0.00000  Uiso   1.00
O605   O     0.83333   0.87155   0.23822   0.00000  Uiso   1.00
O606   O     0.83334   0.79512   0.09511   0.00000  Uiso   1.00
Zn607  Zn    0.83333   0.88437   0.16667   0.00000  Uiso   1.00
Zn608  Zn    0.83333   0.78229   0.16667   0.00000  Uiso   1.00
C609   C     0.89673   0.71400   0.22659   0.00000  Uiso   1.00
C610   C     0.93481   0.71453   0.19341   0.00000  Uiso   1.00
C611   C     0.96055   0.67179   0.19260   0.00000  Uiso   1.00
H612   H     0.97283   0.99717   0.23125   0.00000  Uiso   1.00
H613   H     0.94199   0.97739   0.17544   0.00000  Uiso   1.00
H614   H     0.98743   0.67660   0.16891   0.00000  Uiso   1.00
H615   H     0.92443   0.72157   0.15381   0.00000  Uiso   1.00
H616   H     0.95590   0.74134   0.20792   0.00000  Uiso   1.00
H617   H     0.88851   0.74820   0.23623   0.00000  Uiso   1.00
H618   H     0.90559   0.70094   0.26426   0.00000  Uiso   1.00
C619   C     0.76952   0.95442   0.10815   0.00000  Uiso   1.00
C620   C     0.72979   0.96220   0.13809   0.00000  Uiso   1.00
C621   C     0.73773   0.96908   0.19535   0.00000  Uiso   1.00
H622   H     0.75952   0.94362   0.21140   0.00000  Uiso   1.00
H623   H     0.75096   0.66899   0.20404   0.00000  Uiso   1.00
H624   H     0.70793   0.96699   0.21440   0.00000  Uiso   1.00
H625   H     0.71260   0.99174   0.12350   0.00000  Uiso   1.00
H626   H     0.70873   0.93365   0.13078   0.00000  Uiso   1.00
H627   H     0.76273   0.96622   0.06942   0.00000  Uiso   1.00
H628   H     0.77498   0.91900   0.10147   0.00000  Uiso   1.00
C629   C     0.80786   0.70562   0.07527   0.00000  Uiso   1.00
C630   C     0.76618   0.72941   0.06181   0.00000  Uiso   1.00
C631   C     0.75952   0.73459   0.00487   0.00000  Uiso   1.00
H632   H     0.78613   0.75220   0.32320   0.00000  Uiso   1.00
H633   H     0.75669   0.70159   0.31895   0.00000  Uiso   1.00
H634   H     0.73027   0.75394   0.32975   0.00000  Uiso   1.00
H635   H     0.73968   0.71067   0.07513   0.00000  Uiso   1.00
H636   H     0.76556   0.76259   0.07995   0.00000  Uiso   1.00
H637   H     0.83543   0.72479   0.06662   0.00000  Uiso   1.00
H638   H     0.81126   0.67716   0.04840   0.00000  Uiso   1.00
C639   C     0.88056   0.95330   0.24547   0.00000  Uiso   1.00
C640   C     0.85631   0.95968   0.29364   0.00000  Uiso   1.00
C641   C     0.88108   0.94140   0.00614   0.00000  Uiso   1.00
H642   H     0.88984   0.90614   0.33269   0.00000  Uiso   1.00
H643   H     0.91000   0.96072   0.01418   0.00000  Uiso   1.00
H644   H     0.86179   0.94397   0.03963   0.00000  Uiso   1.00
H645   H     0.84984   0.99545   0.30102   0.00000  Uiso   1.00
H646   H     0.82565   0.94300   0.28894   0.00000  Uiso   1.00
H647   H     0.88649   0.91836   0.23704   0.00000  Uiso   1.00
H648   H     0.91273   0.96487   0.25291   0.00000  Uiso   1.00
C649   C     0.08686   0.16692   0.49986   0.00000  Uiso   1.00
C650   C     0.24642   0.16645   0.50041   0.00000  Uiso   1.00
C651   C     0.16647   0.16631   0.40648   0.00000  Uiso   1.00
C652   C     0.16673   0.16703   0.59351   0.00000  Uiso   1.00
C653   C     0.16644   0.16613   0.35520   0.00000  Uiso   1.00
C654   C     0.16652   0.16717   0.64478   0.00000  Uiso   1.00
C655   C     0.02039   0.13646   0.46913   0.00000  Uiso   1.00
C656   C     0.31266   0.19698   0.53161   0.00000  Uiso   1.00
C657   C     0.31083   0.13623   0.46927   0.00000  Uiso   1.00
C658   C     0.02232   0.19711   0.53149   0.00000  Uiso   1.00
C659   C     0.29062   0.16630   0.50068   0.00000  Uiso   1.00
C660   C     0.04255   0.16715   0.49987   0.00000  Uiso   1.00
C661   C     0.19307   0.02411   0.53300   0.00000  Uiso   1.00
C662   C     0.14113   0.30935   0.46687   0.00000  Uiso   1.00
C663   C     0.14560   0.02276   0.46234   0.00000  Uiso   1.00
C664   C     0.19138   0.30979   0.53479   0.00000  Uiso   1.00
H665   H     0.03602   0.11315   0.44477   0.00000  Uiso   1.00
H666   H     0.29668   0.22012   0.55616   0.00000  Uiso   1.00
H667   H     0.29345   0.11313   0.44464   0.00000  Uiso   1.00
H668   H     0.03976   0.21969   0.55659   0.00000  Uiso   1.00
N669   N     0.16667   0.28573   0.50000   0.00000  Uiso   1.00
N670   N     0.16667   0.04760   0.50000   0.00000  Uiso   1.00
O671   O     0.10559   0.20487   0.50000   0.00000  Uiso   1.00
O672   O     0.22774   0.12846   0.50000   0.00000  Uiso   1.00
O673   O     0.22774   0.20487   0.50000   0.00000  Uiso   1.00
O674   O     0.10559   0.12846   0.50000   0.00000  Uiso   1.00
O675   O     0.16667   0.20488   0.42845   0.00000  Uiso   1.00
O676   O     0.16666   0.12845   0.57155   0.00000  Uiso   1.00
O677   O     0.16666   0.20488   0.57155   0.00000  Uiso   1.00
O678   O     0.16667   0.12845   0.42845   0.00000  Uiso   1.00
Zn679  Zn    0.16667   0.21771   0.50000   0.00000  Uiso   1.00
Zn680  Zn    0.16667   0.11563   0.50000   0.00000  Uiso   1.00
C681   C     0.23006   0.04734   0.55992   0.00000  Uiso   1.00
C682   C     0.26814   0.04786   0.52674   0.00000  Uiso   1.00
C683   C     0.29389   0.00513   0.52593   0.00000  Uiso   1.00
H684   H     0.30616   0.33051   0.56458   0.00000  Uiso   1.00
H685   H     0.27532   0.31073   0.50877   0.00000  Uiso   1.00
H686   H     0.32076   0.00994   0.50224   0.00000  Uiso   1.00
H687   H     0.25776   0.05491   0.48714   0.00000  Uiso   1.00
H688   H     0.28923   0.07467   0.54126   0.00000  Uiso   1.00
H689   H     0.22184   0.08153   0.56956   0.00000  Uiso   1.00
H690   H     0.23892   0.03428   0.59759   0.00000  Uiso   1.00
C691   C     0.10285   0.28775   0.44149   0.00000  Uiso   1.00
C692   C     0.06312   0.29553   0.47143   0.00000  Uiso   1.00
C693   C     0.07106   0.30242   0.52869   0.00000  Uiso   1.00
H694   H     0.09286   0.27695   0.54474   0.00000  Uiso   1.00
H695   H     0.08429   0.00232   0.53738   0.00000  Uiso   1.00
H696   H     0.04126   0.30033   0.54773   0.00000  Uiso   1.00
H697   H     0.04593   0.32507   0.45683   0.00000  Uiso   1.00
H698   H     0.04206   0.26698   0.46411   0.00000  Uiso   1.00
H699   H     0.09606   0.29956   0.40275   0.00000  Uiso   1.00
H700   H     0.10832   0.25233   0.43480   0.00000  Uiso   1.00
C701   C     0.14120   0.03896   0.40860   0.00000  Uiso   1.00
C702   C     0.09951   0.06275   0.39514   0.00000  Uiso   1.00
C703   C     0.09285   0.06792   0.33820   0.00000  Uiso   1.00
H704   H     0.11946   0.08554   0.65653   0.00000  Uiso   1.00
H705   H     0.09002   0.03493   0.65228   0.00000  Uiso   1.00
H706   H     0.06361   0.08728   0.66308   0.00000  Uiso   1.00
H707   H     0.07302   0.04401   0.40846   0.00000  Uiso   1.00
H708   H     0.09890   0.09592   0.41329   0.00000  Uiso   1.00
H709   H     0.16877   0.05812   0.39995   0.00000  Uiso   1.00
H710   H     0.14460   0.01049   0.38173   0.00000  Uiso   1.00
C711   C     0.21389   0.28663   0.57880   0.00000  Uiso   1.00
C712   C     0.18965   0.29302   0.62697   0.00000  Uiso   1.00
C713   C     0.21441   0.27473   0.33948   0.00000  Uiso   1.00
H714   H     0.22317   0.23947   0.66603   0.00000  Uiso   1.00
H715   H     0.24334   0.29405   0.34751   0.00000  Uiso   1.00
H716   H     0.19512   0.27730   0.37297   0.00000  Uiso   1.00
H717   H     0.18317   0.32878   0.63435   0.00000  Uiso   1.00
H718   H     0.15899   0.27633   0.62227   0.00000  Uiso   1.00
H719   H     0.21982   0.25170   0.57037   0.00000  Uiso   1.00
H720   H     0.24606   0.29820   0.58624   0.00000  Uiso   1.00
C721   C     0.42020   0.16692   0.49986   0.00000  Uiso   1.00
C722   C     0.57975   0.16645   0.50041   0.00000  Uiso   1.00
C723   C     0.49980   0.16631   0.40648   0.00000  Uiso   1.00
C724   C     0.50006   0.16703   0.59351   0.00000  Uiso   1.00
C725   C     0.49977   0.16613   0.35520   0.00000  Uiso   1.00
C726   C     0.49986   0.16717   0.64478   0.00000  Uiso   1.00
C727   C     0.35372   0.13646   0.46913   0.00000  Uiso   1.00
C728   C     0.64599   0.19698   0.53161   0.00000  Uiso   1.00
C729   C     0.64416   0.13623   0.46927   0.00000  Uiso   1.00
C730   C     0.35565   0.19711   0.53149   0.00000  Uiso   1.00
C731   C     0.62395   0.16630   0.50068   0.00000  Uiso   1.00
C732   C     0.37589   0.16715   0.49987   0.00000  Uiso   1.00
C733   C     0.52641   0.02411   0.53300   0.00000  Uiso   1.00
C734   C     0.47447   0.30935   0.46687   0.00000  Uiso   1.00
C735   C     0.47893   0.02276   0.46234   0.00000  Uiso   1.00
C736   C     0.52471   0.30979   0.53479   0.00000  Uiso   1.00
H737   H     0.36935   0.11315   0.44477   0.00000  Uiso   1.00
H738   H     0.63001   0.22012   0.55616   0.00000  Uiso   1.00
H739   H     0.62679   0.11313   0.44464   0.00000  Uiso   1.00
H740   H     0.37309   0.21969   0.55659   0.00000  Uiso   1.00
N741   N     0.50000   0.28573   0.50000   0.00000  Uiso   1.00
N742   N     0.50000   0.04760   0.50000   0.00000  Uiso   1.00
O743   O     0.43892   0.20487   0.50000   0.00000  Uiso   1.00
O744   O     0.56108   0.12846   0.50000   0.00000  Uiso   1.00
O745   O     0.56108   0.20487   0.50000   0.00000  Uiso   1.00
O746   O     0.43892   0.12846   0.50000   0.00000  Uiso   1.00
O747   O     0.50000   0.20488   0.42845   0.00000  Uiso   1.00
O748   O     0.50000   0.12845   0.57155   0.00000  Uiso   1.00
O749   O     0.50000   0.20488   0.57155   0.00000  Uiso   1.00
O750   O     0.50000   0.12845   0.42845   0.00000  Uiso   1.00
Zn751  Zn    0.50000   0.21771   0.50000   0.00000  Uiso   1.00
Zn752  Zn    0.50000   0.11563   0.50000   0.00000  Uiso   1.00
C753   C     0.56340   0.04734   0.55992   0.00000  Uiso   1.00
C754   C     0.60147   0.04786   0.52674   0.00000  Uiso   1.00
C755   C     0.62722   0.00513   0.52593   0.00000  Uiso   1.00
H756   H     0.63949   0.33051   0.56458   0.00000  Uiso   1.00
H757   H     0.60866   0.31073   0.50877   0.00000  Uiso   1.00
H758   H     0.65409   0.00994   0.50224   0.00000  Uiso   1.00
H759   H     0.59110   0.05491   0.48714   0.00000  Uiso   1.00
H760   H     0.62256   0.07467   0.54126   0.00000  Uiso   1.00
H761   H     0.55517   0.08153   0.56956   0.00000  Uiso   1.00
H762   H     0.57225   0.03428   0.59759   0.00000  Uiso   1.00
C763   C     0.43619   0.28775   0.44149   0.00000  Uiso   1.00
C764   C     0.39646   0.29553   0.47143   0.00000  Uiso   1.00
C765   C     0.40439   0.30242   0.52869   0.00000  Uiso   1.00
H766   H     0.42619   0.27695   0.54474   0.00000  Uiso   1.00
H767   H     0.41763   0.00232   0.53738   0.00000  Uiso   1.00
H768   H     0.37460   0.30033   0.54773   0.00000  Uiso   1.00
H769   H     0.37926   0.32507   0.45683   0.00000  Uiso   1.00
H770   H     0.37539   0.26698   0.46411   0.00000  Uiso   1.00
H771   H     0.42939   0.29956   0.40275   0.00000  Uiso   1.00
H772   H     0.44165   0.25233   0.43480   0.00000  Uiso   1.00
C773   C     0.47453   0.03896   0.40860   0.00000  Uiso   1.00
C774   C     0.43284   0.06275   0.39514   0.00000  Uiso   1.00
C775   C     0.42619   0.06792   0.33820   0.00000  Uiso   1.00
H776   H     0.45280   0.08554   0.65653   0.00000  Uiso   1.00
H777   H     0.42336   0.03493   0.65228   0.00000  Uiso   1.00
H778   H     0.39694   0.08728   0.66308   0.00000  Uiso   1.00
H779   H     0.40635   0.04401   0.40846   0.00000  Uiso   1.00
H780   H     0.43223   0.09592   0.41329   0.00000  Uiso   1.00
H781   H     0.50210   0.05812   0.39995   0.00000  Uiso   1.00
H782   H     0.47793   0.01049   0.38173   0.00000  Uiso   1.00
C783   C     0.54722   0.28663   0.57880   0.00000  Uiso   1.00
C784   C     0.52298   0.29302   0.62697   0.00000  Uiso   1.00
C785   C     0.54774   0.27473   0.33948   0.00000  Uiso   1.00
H786   H     0.55651   0.23947   0.66603   0.00000  Uiso   1.00
H787   H     0.57667   0.29405   0.34751   0.00000  Uiso   1.00
H788   H     0.52846   0.27730   0.37297   0.00000  Uiso   1.00
H789   H     0.51650   0.32878   0.63435   0.00000  Uiso   1.00
H790   H     0.49232   0.27633   0.62227   0.00000  Uiso   1.00
H791   H     0.55315   0.25170   0.57037   0.00000  Uiso   1.00
H792   H     0.57940   0.29820   0.58624   0.00000  Uiso   1.00
C793   C     0.75353   0.16692   0.49986   0.00000  Uiso   1.00
C794   C     0.91308   0.16645   0.50041   0.00000  Uiso   1.00
C795   C     0.83314   0.16631   0.40648   0.00000  Uiso   1.00
C796   C     0.83339   0.16703   0.59351   0.00000  Uiso   1.00
C797   C     0.83310   0.16613   0.35520   0.00000  Uiso   1.00
C798   C     0.83319   0.16717   0.64478   0.00000  Uiso   1.00
C799   C     0.68706   0.13646   0.46913   0.00000  Uiso   1.00
C800   C     0.97932   0.19698   0.53161   0.00000  Uiso   1.00
C801   C     0.97749   0.13623   0.46927   0.00000  Uiso   1.00
C802   C     0.68899   0.19711   0.53149   0.00000  Uiso   1.00
C803   C     0.95729   0.16630   0.50068   0.00000  Uiso   1.00
C804   C     0.70922   0.16715   0.49987   0.00000  Uiso   1.00
C805   C     0.85974   0.02411   0.53300   0.00000  Uiso   1.00
C806   C     0.80780   0.30935   0.46687   0.00000  Uiso   1.00
C807   C     0.81226   0.02276   0.46234   0.00000  Uiso   1.00
C808   C     0.85805   0.30979   0.53479   0.00000  Uiso   1.00
H809   H     0.70269   0.11315   0.44477   0.00000  Uiso   1.00
H810   H     0.96334   0.22012   0.55616   0.00000  Uiso   1.00
H811   H     0.96012   0.11313   0.44464   0.00000  Uiso   1.00
H812   H     0.70642   0.21969   0.55659   0.00000  Uiso   1.00
N813   N     0.83333   0.28573   0.50000   0.00000  Uiso   1.00
N814   N     0.83333   0.04760   0.50000   0.00000  Uiso   1.00
O815   O     0.77226   0.20487   0.50000   0.00000  Uiso   1.00
O816   O     0.89441   0.12846   0.50000   0.00000  Uiso   1.00
O817   O     0.89441   0.20487   0.50000   0.00000  Uiso   1.00
O818   O     0.77226   0.12846   0.50000   0.00000  Uiso   1.00
O819   O     0.83334   0.20488   0.42845   0.00000  Uiso   1.00
O820   O     0.83333   0.12845   0.57155   0.00000  Uiso   1.00
O821   O     0.83333   0.20488   0.57155   0.00000  Uiso   1.00
O822   O     0.83334   0.12845   0.42845   0.00000  Uiso   1.00
Zn823  Zn    0.83333   0.21771   0.50000   0.00000  Uiso   1.00
Zn824  Zn    0.83333   0.11563   0.50000   0.00000  Uiso   1.00
C825   C     0.89673   0.04734   0.55992   0.00000  Uiso   1.00
C826   C     0.93481   0.04786   0.52674   0.00000  Uiso   1.00
C827   C     0.96055   0.00513   0.52593   0.00000  Uiso   1.00
H828   H     0.97283   0.33051   0.56458   0.00000  Uiso   1.00
H829   H     0.94199   0.31073   0.50877   0.00000  Uiso   1.00
H830   H     0.98743   0.00994   0.50224   0.00000  Uiso   1.00
H831   H     0.92443   0.05491   0.48714   0.00000  Uiso   1.00
H832   H     0.95590   0.07467   0.54126   0.00000  Uiso   1.00
H833   H     0.88851   0.08153   0.56956   0.00000  Uiso   1.00
H834   H     0.90559   0.03428   0.59759   0.00000  Uiso   1.00
C835   C     0.76952   0.28775   0.44149   0.00000  Uiso   1.00
C836   C     0.72979   0.29553   0.47143   0.00000  Uiso   1.00
C837   C     0.73773   0.30242   0.52869   0.00000  Uiso   1.00
H838   H     0.75952   0.27695   0.54474   0.00000  Uiso   1.00
H839   H     0.75096   0.00232   0.53738   0.00000  Uiso   1.00
H840   H     0.70793   0.30033   0.54773   0.00000  Uiso   1.00
H841   H     0.71260   0.32507   0.45683   0.00000  Uiso   1.00
H842   H     0.70873   0.26698   0.46411   0.00000  Uiso   1.00
H843   H     0.76273   0.29956   0.40275   0.00000  Uiso   1.00
H844   H     0.77498   0.25233   0.43480   0.00000  Uiso   1.00
C845   C     0.80786   0.03896   0.40860   0.00000  Uiso   1.00
C846   C     0.76618   0.06275   0.39514   0.00000  Uiso   1.00
C847   C     0.75952   0.06792   0.33820   0.00000  Uiso   1.00
H848   H     0.78613   0.08554   0.65653   0.00000  Uiso   1.00
H849   H     0.75669   0.03493   0.65228   0.00000  Uiso   1.00
H850   H     0.73027   0.08728   0.66308   0.00000  Uiso   1.00
H851   H     0.73968   0.04401   0.40846   0.00000  Uiso   1.00
H852   H     0.76556   0.09592   0.41329   0.00000  Uiso   1.00
H853   H     0.83543   0.05812   0.39995   0.00000  Uiso   1.00
H854   H     0.81126   0.01049   0.38173   0.00000  Uiso   1.00
C855   C     0.88056   0.28663   0.57880   0.00000  Uiso   1.00
C856   C     0.85631   0.29302   0.62697   0.00000  Uiso   1.00
C857   C     0.88108   0.27473   0.33948   0.00000  Uiso   1.00
H858   H     0.88984   0.23947   0.66603   0.00000  Uiso   1.00
H859   H     0.91000   0.29405   0.34751   0.00000  Uiso   1.00
H860   H     0.86179   0.27730   0.37297   0.00000  Uiso   1.00
H861   H     0.84984   0.32878   0.63435   0.00000  Uiso   1.00
H862   H     0.82565   0.27633   0.62227   0.00000  Uiso   1.00
H863   H     0.88649   0.25170   0.57037   0.00000  Uiso   1.00
H864   H     0.91273   0.29820   0.58624   0.00000  Uiso   1.00
C865   C     0.08686   0.50025   0.49986   0.00000  Uiso   1.00
C866   C     0.24642   0.49978   0.50041   0.00000  Uiso   1.00
C867   C     0.16647   0.49964   0.40648   0.00000  Uiso   1.00
C868   C     0.16673   0.50036   0.59351   0.00000  Uiso   1.00
C869   C     0.16644   0.49946   0.35520   0.00000  Uiso   1.00
C870   C     0.16652   0.50051   0.64478   0.00000  Uiso   1.00
C871   C     0.02039   0.46979   0.46913   0.00000  Uiso   1.00
C872   C     0.31266   0.53031   0.53161   0.00000  Uiso   1.00
C873   C     0.31083   0.46956   0.46927   0.00000  Uiso   1.00
C874   C     0.02232   0.53044   0.53149   0.00000  Uiso   1.00
C875   C     0.29062   0.49964   0.50068   0.00000  Uiso   1.00
C876   C     0.04255   0.50048   0.49987   0.00000  Uiso   1.00
C877   C     0.19307   0.35744   0.53300   0.00000  Uiso   1.00
C878   C     0.14113   0.64269   0.46687   0.00000  Uiso   1.00
C879   C     0.14560   0.35609   0.46234   0.00000  Uiso   1.00
C880   C     0.19138   0.64312   0.53479   0.00000  Uiso   1.00
H881   H     0.03602   0.44648   0.44477   0.00000  Uiso   1.00
H882   H     0.29668   0.55345   0.55616   0.00000  Uiso   1.00
H883   H     0.29345   0.44646   0.44464   0.00000  Uiso   1.00
H884   H     0.03976   0.55302   0.55659   0.00000  Uiso   1.00
N885   N     0.16667   0.61907   0.50000   0.00000  Uiso   1.00
N886   N     0.16667   0.38093   0.50000   0.00000  Uiso   1.00
O887   O     0.10559   0.53821   0.50000   0.00000  Uiso   1.00
O888   O     0.22774   0.46179   0.50000   0.00000  Uiso   1.00
O889   O     0.22774   0.53821   0.50000   0.00000  Uiso   1.00
O890   O     0.10559   0.46179   0.50000   0.00000  Uiso   1.00
O891   O     0.16667   0.53821   0.42845   0.00000  Uiso   1.00
O892   O     0.16666   0.46179   0.57155   0.00000  Uiso   1.00
O893   O     0.16666   0.53821   0.57155   0.00000  Uiso   1.00
O894   O     0.16667   0.46179   0.42845   0.00000  Uiso   1.00
Zn895  Zn    0.16667   0.55104   0.50000   0.00000  Uiso   1.00
Zn896  Zn    0.16667   0.44896   0.50000   0.00000  Uiso   1.00
C897   C     0.23006   0.38067   0.55992   0.00000  Uiso   1.00
C898   C     0.26814   0.38119   0.52674   0.00000  Uiso   1.00
C899   C     0.29389   0.33846   0.52593   0.00000  Uiso   1.00
H900   H     0.30616   0.66384   0.56458   0.00000  Uiso   1.00
H901   H     0.27532   0.64406   0.50877   0.00000  Uiso   1.00
H902   H     0.32076   0.34327   0.50224   0.00000  Uiso   1.00
H903   H     0.25776   0.38824   0.48714   0.00000  Uiso   1.00
H904   H     0.28923   0.40800   0.54126   0.00000  Uiso   1.00
H905   H     0.22184   0.41486   0.56956   0.00000  Uiso   1.00
H906   H     0.23892   0.36761   0.59759   0.00000  Uiso   1.00
C907   C     0.10285   0.62108   0.44149   0.00000  Uiso   1.00
C908   C     0.06312   0.62887   0.47143   0.00000  Uiso   1.00
C909   C     0.07106   0.63575   0.52869   0.00000  Uiso   1.00
H910   H     0.09286   0.61029   0.54474   0.00000  Uiso   1.00
H911   H     0.08429   0.33565   0.53738   0.00000  Uiso   1.00
H912   H     0.04126   0.63366   0.54773   0.00000  Uiso   1.00
H913   H     0.04593   0.65840   0.45683   0.00000  Uiso   1.00
H914   H     0.04206   0.60031   0.46411   0.00000  Uiso   1.00
H915   H     0.09606   0.63289   0.40275   0.00000  Uiso   1.00
H916   H     0.10832   0.58567   0.43480   0.00000  Uiso   1.00
C917   C     0.14120   0.37229   0.40860   0.00000  Uiso   1.00
C918   C     0.09951   0.39608   0.39514   0.00000  Uiso   1.00
C919   C     0.09285   0.40125   0.33820   0.00000  Uiso   1.00
H920   H     0.11946   0.41887   0.65653   0.00000  Uiso   1.00
H921   H     0.09002   0.36826   0.65228   0.00000  Uiso   1.00
H922   H     0.06361   0.42061   0.66308   0.00000  Uiso   1.00
H923   H     0.07302   0.37734   0.40846   0.00000  Uiso   1.00
H924   H     0.09890   0.42926   0.41329   0.00000  Uiso   1.00
H925   H     0.16877   0.39145   0.39995   0.00000  Uiso   1.00
H926   H     0.14460   0.34382   0.38173   0.00000  Uiso   1.00
C927   C     0.21389   0.61996   0.57880   0.00000  Uiso   1.00
C928   C     0.18965   0.62635   0.62697   0.00000  Uiso   1.00
C929   C     0.21441   0.60807   0.33948   0.00000  Uiso   1.00
H930   H     0.22317   0.57281   0.66603   0.00000  Uiso   1.00
H931   H     0.24334   0.62739   0.34751   0.00000  Uiso   1.00
H932   H     0.19512   0.61063   0.37297   0.00000  Uiso   1.00
H933   H     0.18317   0.66211   0.63435   0.00000  Uiso   1.00
H934   H     0.15899   0.60967   0.62227   0.00000  Uiso   1.00
H935   H     0.21982   0.58503   0.57037   0.00000  Uiso   1.00
H936   H     0.24606   0.63153   0.58624   0.00000  Uiso   1.00
C937   C     0.42020   0.50025   0.49986   0.00000  Uiso   1.00
C938   C     0.57975   0.49978   0.50041   0.00000  Uiso   1.00
C939   C     0.49980   0.49964   0.40648   0.00000  Uiso   1.00
C940   C     0.50006   0.50036   0.59351   0.00000  Uiso   1.00
C941   C     0.49977   0.49946   0.35520   0.00000  Uiso   1.00
C942   C     0.49986   0.50051   0.64478   0.00000  Uiso   1.00
C943   C     0.35372   0.46979   0.46913   0.00000  Uiso   1.00
C944   C     0.64599   0.53031   0.53161   0.00000  Uiso   1.00
C945   C     0.64416   0.46956   0.46927   0.00000  Uiso   1.00
C946   C     0.35565   0.53044   0.53149   0.00000  Uiso   1.00
C947   C     0.62395   0.49964   0.50068   0.00000  Uiso   1.00
C948   C     0.37589   0.50048   0.49987   0.00000  Uiso   1.00
C949   C     0.52641   0.35744   0.53300   0.00000  Uiso   1.00
C950   C     0.47447   0.64269   0.46687   0.00000  Uiso   1.00
C951   C     0.47893   0.35609   0.46234   0.00000  Uiso   1.00
C952   C     0.52471   0.64312   0.53479   0.00000  Uiso   1.00
H953   H     0.36935   0.44648   0.44477   0.00000  Uiso   1.00
H954   H     0.63001   0.55345   0.55616   0.00000  Uiso   1.00
H955   H     0.62679   0.44646   0.44464   0.00000  Uiso   1.00
H956   H     0.37309   0.55302   0.55659   0.00000  Uiso   1.00
N957   N     0.50000   0.61907   0.50000   0.00000  Uiso   1.00
N958   N     0.50000   0.38093   0.50000   0.00000  Uiso   1.00
O959   O     0.43892   0.53821   0.50000   0.00000  Uiso   1.00
O960   O     0.56108   0.46179   0.50000   0.00000  Uiso   1.00
O961   O     0.56108   0.53821   0.50000   0.00000  Uiso   1.00
O962   O     0.43892   0.46179   0.50000   0.00000  Uiso   1.00
O963   O     0.50000   0.53821   0.42845   0.00000  Uiso   1.00
O964   O     0.50000   0.46179   0.57155   0.00000  Uiso   1.00
O965   O     0.50000   0.53821   0.57155   0.00000  Uiso   1.00
O966   O     0.50000   0.46179   0.42845   0.00000  Uiso   1.00
Zn967  Zn    0.50000   0.55104   0.50000   0.00000  Uiso   1.00
Zn968  Zn    0.50000   0.44896   0.50000   0.00000  Uiso   1.00
C969   C     0.56340   0.38067   0.55992   0.00000  Uiso   1.00
C970   C     0.60147   0.38119   0.52674   0.00000  Uiso   1.00
C971   C     0.62722   0.33846   0.52593   0.00000  Uiso   1.00
H972   H     0.63949   0.66384   0.56458   0.00000  Uiso   1.00
H973   H     0.60866   0.64406   0.50877   0.00000  Uiso   1.00
H974   H     0.65409   0.34327   0.50224   0.00000  Uiso   1.00
H975   H     0.59110   0.38824   0.48714   0.00000  Uiso   1.00
H976   H     0.62256   0.40800   0.54126   0.00000  Uiso   1.00
H977   H     0.55517   0.41486   0.56956   0.00000  Uiso   1.00
H978   H     0.57225   0.36761   0.59759   0.00000  Uiso   1.00
C979   C     0.43619   0.62108   0.44149   0.00000  Uiso   1.00
C980   C     0.39646   0.62887   0.47143   0.00000  Uiso   1.00
C981   C     0.40439   0.63575   0.52869   0.00000  Uiso   1.00
H982   H     0.42619   0.61029   0.54474   0.00000  Uiso   1.00
H983   H     0.41763   0.33565   0.53738   0.00000  Uiso   1.00
H984   H     0.37460   0.63366   0.54773   0.00000  Uiso   1.00
H985   H     0.37926   0.65840   0.45683   0.00000  Uiso   1.00
H986   H     0.37539   0.60031   0.46411   0.00000  Uiso   1.00
H987   H     0.42939   0.63289   0.40275   0.00000  Uiso   1.00
H988   H     0.44165   0.58567   0.43480   0.00000  Uiso   1.00
C989   C     0.47453   0.37229   0.40860   0.00000  Uiso   1.00
C990   C     0.43284   0.39608   0.39514   0.00000  Uiso   1.00
C991   C     0.42619   0.40125   0.33820   0.00000  Uiso   1.00
H992   H     0.45280   0.41887   0.65653   0.00000  Uiso   1.00
H993   H     0.42336   0.36826   0.65228   0.00000  Uiso   1.00
H994   H     0.39694   0.42061   0.66308   0.00000  Uiso   1.00
H995   H     0.40635   0.37734   0.40846   0.00000  Uiso   1.00
H996   H     0.43223   0.42926   0.41329   0.00000  Uiso   1.00
H997   H     0.50210   0.39145   0.39995   0.00000  Uiso   1.00
H998   H     0.47793   0.34382   0.38173   0.00000  Uiso   1.00
C999   C     0.54722   0.61996   0.57880   0.00000  Uiso   1.00
C1000  C     0.52298   0.62635   0.62697   0.00000  Uiso   1.00
C1001  C     0.54774   0.60807   0.33948   0.00000  Uiso   1.00
H1002  H     0.55651   0.57281   0.66603   0.00000  Uiso   1.00
H1003  H     0.57667   0.62739   0.34751   0.00000  Uiso   1.00
H1004  H     0.52846   0.61063   0.37297   0.00000  Uiso   1.00
H1005  H     0.51650   0.66211   0.63435   0.00000  Uiso   1.00
H1006  H     0.49232   0.60967   0.62227   0.00000  Uiso   1.00
H1007  H     0.55315   0.58503   0.57037   0.00000  Uiso   1.00
H1008  H     0.57940   0.63153   0.58624   0.00000  Uiso   1.00
C1009  C     0.75353   0.50025   0.49986   0.00000  Uiso   1.00
C1010  C     0.91308   0.49978   0.50041   0.00000  Uiso   1.00
C1011  C     0.83314   0.49964   0.40648   0.00000  Uiso   1.00
C1012  C     0.83339   0.50036   0.59351   0.00000  Uiso   1.00
C1013  C     0.83310   0.49946   0.35520   0.00000  Uiso   1.00
C1014  C     0.83319   0.50051   0.64478   0.00000  Uiso   1.00
C1015  C     0.68706   0.46979   0.46913   0.00000  Uiso   1.00
C1016  C     0.97932   0.53031   0.53161   0.00000  Uiso   1.00
C1017  C     0.97749   0.46956   0.46927   0.00000  Uiso   1.00
C1018  C     0.68899   0.53044   0.53149   0.00000  Uiso   1.00
C1019  C     0.95729   0.49964   0.50068   0.00000  Uiso   1.00
C1020  C     0.70922   0.50048   0.49987   0.00000  Uiso   1.00
C1021  C     0.85974   0.35744   0.53300   0.00000  Uiso   1.00
C1022  C     0.80780   0.64269   0.46687   0.00000  Uiso   1.00
C1023  C     0.81226   0.35609   0.46234   0.00000  Uiso   1.00
C1024  C     0.85805   0.64312   0.53479   0.00000  Uiso   1.00
H1025  H     0.70269   0.44648   0.44477   0.00000  Uiso   1.00
H1026  H     0.96334   0.55345   0.55616   0.00000  Uiso   1.00
H1027  H     0.96012   0.44646   0.44464   0.00000  Uiso   1.00
H1028  H     0.70642   0.55302   0.55659   0.00000  Uiso   1.00
N1029  N     0.83333   0.61907   0.50000   0.00000  Uiso   1.00
N1030  N     0.83333   0.38093   0.50000   0.00000  Uiso   1.00
O1031  O     0.77226   0.53821   0.50000   0.00000  Uiso   1.00
O1032  O     0.89441   0.46179   0.50000   0.00000  Uiso   1.00
O1033  O     0.89441   0.53821   0.50000   0.00000  Uiso   1.00
O1034  O     0.77226   0.46179   0.50000   0.00000  Uiso   1.00
O1035  O     0.83334   0.53821   0.42845   0.00000  Uiso   1.00
O1036  O     0.83333   0.46179   0.57155   0.00000  Uiso   1.00
O1037  O     0.83333   0.53821   0.57155   0.00000  Uiso   1.00
O1038  O     0.83334   0.46179   0.42845   0.00000  Uiso   1.00
Zn1039 Zn    0.83333   0.55104   0.50000   0.00000  Uiso   1.00
Zn1040 Zn    0.83333   0.44896   0.50000   0.00000  Uiso   1.00
C1041  C     0.89673   0.38067   0.55992   0.00000  Uiso   1.00
C1042  C     0.93481   0.38119   0.52674   0.00000  Uiso   1.00
C1043  C     0.96055   0.33846   0.52593   0.00000  Uiso   1.00
H1044  H     0.97283   0.66384   0.56458   0.00000  Uiso   1.00
H1045  H     0.94199   0.64406   0.50877   0.00000  Uiso   1.00
H1046  H     0.98743   0.34327   0.50224   0.00000  Uiso   1.00
H1047  H     0.92443   0.38824   0.48714   0.00000  Uiso   1.00
H1048  H     0.95590   0.40800   0.54126   0.00000  Uiso   1.00
H1049  H     0.88851   0.41486   0.56956   0.00000  Uiso   1.00
H1050  H     0.90559   0.36761   0.59759   0.00000  Uiso   1.00
C1051  C     0.76952   0.62108   0.44149   0.00000  Uiso   1.00
C1052  C     0.72979   0.62887   0.47143   0.00000  Uiso   1.00
C1053  C     0.73773   0.63575   0.52869   0.00000  Uiso   1.00
H1054  H     0.75952   0.61029   0.54474   0.00000  Uiso   1.00
H1055  H     0.75096   0.33565   0.53738   0.00000  Uiso   1.00
H1056  H     0.70793   0.63366   0.54773   0.00000  Uiso   1.00
H1057  H     0.71260   0.65840   0.45683   0.00000  Uiso   1.00
H1058  H     0.70873   0.60031   0.46411   0.00000  Uiso   1.00
H1059  H     0.76273   0.63289   0.40275   0.00000  Uiso   1.00
H1060  H     0.77498   0.58567   0.43480   0.00000  Uiso   1.00
C1061  C     0.80786   0.37229   0.40860   0.00000  Uiso   1.00
C1062  C     0.76618   0.39608   0.39514   0.00000  Uiso   1.00
C1063  C     0.75952   0.40125   0.33820   0.00000  Uiso   1.00
H1064  H     0.78613   0.41887   0.65653   0.00000  Uiso   1.00
H1065  H     0.75669   0.36826   0.65228   0.00000  Uiso   1.00
H1066  H     0.73027   0.42061   0.66308   0.00000  Uiso   1.00
H1067  H     0.73968   0.37734   0.40846   0.00000  Uiso   1.00
H1068  H     0.76556   0.42926   0.41329   0.00000  Uiso   1.00
H1069  H     0.83543   0.39145   0.39995   0.00000  Uiso   1.00
H1070  H     0.81126   0.34382   0.38173   0.00000  Uiso   1.00
C1071  C     0.88056   0.61996   0.57880   0.00000  Uiso   1.00
C1072  C     0.85631   0.62635   0.62697   0.00000  Uiso   1.00
C1073  C     0.88108   0.60807   0.33948   0.00000  Uiso   1.00
H1074  H     0.88984   0.57281   0.66603   0.00000  Uiso   1.00
H1075  H     0.91000   0.62739   0.34751   0.00000  Uiso   1.00
H1076  H     0.86179   0.61063   0.37297   0.00000  Uiso   1.00
H1077  H     0.84984   0.66211   0.63435   0.00000  Uiso   1.00
H1078  H     0.82565   0.60967   0.62227   0.00000  Uiso   1.00
H1079  H     0.88649   0.58503   0.57037   0.00000  Uiso   1.00
H1080  H     0.91273   0.63153   0.58624   0.00000  Uiso   1.00
C1081  C     0.08686   0.83359   0.49986   0.00000  Uiso   1.00
C1082  C     0.24642   0.83311   0.50041   0.00000  Uiso   1.00
C1083  C     0.16647   0.83297   0.40648   0.00000  Uiso   1.00
C1084  C     0.16673   0.83369   0.59351   0.00000  Uiso   1.00
C1085  C     0.16644   0.83280   0.35520   0.00000  Uiso   1.00
C1086  C     0.16652   0.83384   0.64478   0.00000  Uiso   1.00
C1087  C     0.02039   0.80313   0.46913   0.00000  Uiso   1.00
C1088  C     0.31266   0.86364   0.53161   0.00000  Uiso   1.00
C1089  C     0.31083   0.80289   0.46927   0.00000  Uiso   1.00
C1090  C     0.02232   0.86378   0.53149   0.00000  Uiso   1.00
C1091  C     0.29062   0.83297   0.50068   0.00000  Uiso   1.00
C1092  C     0.04255   0.83382   0.49987   0.00000  Uiso   1.00
C1093  C     0.19307   0.69078   0.53300   0.00000  Uiso   1.00
C1094  C     0.14113   0.97602   0.46687   0.00000  Uiso   1.00
C1095  C     0.14560   0.68942   0.46234   0.00000  Uiso   1.00
C1096  C     0.19138   0.97645   0.53479   0.00000  Uiso   1.00
H1097  H     0.03602   0.77982   0.44477   0.00000  Uiso   1.00
H1098  H     0.29668   0.88678   0.55616   0.00000  Uiso   1.00
H1099  H     0.29345   0.77980   0.44464   0.00000  Uiso   1.00
H1100  H     0.03976   0.88635   0.55659   0.00000  Uiso   1.00
N1101  N     0.16667   0.95240   0.50000   0.00000  Uiso   1.00
N1102  N     0.16667   0.71427   0.50000   0.00000  Uiso   1.00
O1103  O     0.10559   0.87154   0.50000   0.00000  Uiso   1.00
O1104  O     0.22774   0.79513   0.50000   0.00000  Uiso   1.00
O1105  O     0.22774   0.87154   0.50000   0.00000  Uiso   1.00
O1106  O     0.10559   0.79513   0.50000   0.00000  Uiso   1.00
O1107  O     0.16667   0.87155   0.42845   0.00000  Uiso   1.00
O1108  O     0.16666   0.79512   0.57155   0.00000  Uiso   1.00
O1109  O     0.16666   0.87155   0.57155   0.00000  Uiso   1.00
O1110  O     0.16667   0.79512   0.42845   0.00000  Uiso   1.00
Zn1111 Zn    0.16667   0.88437   0.50000   0.00000  Uiso   1.00
Zn1112 Zn    0.16667   0.78229   0.50000   0.00000  Uiso   1.00
C1113  C     0.23006   0.71400   0.55992   0.00000  Uiso   1.00
C1114  C     0.26814   0.71453   0.52674   0.00000  Uiso   1.00
C1115  C     0.29389   0.67179   0.52593   0.00000  Uiso   1.00
H1116  H     0.30616   0.99717   0.56458   0.00000  Uiso   1.00
H1117  H     0.27532   0.97739   0.50877   0.00000  Uiso   1.00
H1118  H     0.32076   0.67660   0.50224   0.00000  Uiso   1.00
H1119  H     0.25776   0.72157   0.48714   0.00000  Uiso   1.00
H1120  H     0.28923   0.74134   0.54126   0.00000  Uiso   1.00
H1121  H     0.22184   0.74820   0.56956   0.00000  Uiso   1.00
H1122  H     0.23892   0.70094   0.59759   0.00000  Uiso   1.00
C1123  C     0.10285   0.95442   0.44149   0.00000  Uiso   1.00
C1124  C     0.06312   0.96220   0.47143   0.00000  Uiso   1.00
C1125  C     0.07106   0.96908   0.52869   0.00000  Uiso   1.00
H1126  H     0.09286   0.94362   0.54474   0.00000  Uiso   1.00
H1127  H     0.08429   0.66899   0.53738   0.00000  Uiso   1.00
H1128  H     0.04126   0.96699   0.54773   0.00000  Uiso   1.00
H1129  H     0.04593   0.99174   0.45683   0.00000  Uiso   1.00
H1130  H     0.04206   0.93365   0.46411   0.00000  Uiso   1.00
H1131  H     0.09606   0.96622   0.40275   0.00000  Uiso   1.00
H1132  H     0.10832   0.91900   0.43480   0.00000  Uiso   1.00
C1133  C     0.14120   0.70562   0.40860   0.00000  Uiso   1.00
C1134  C     0.09951   0.72941   0.39514   0.00000  Uiso   1.00
C1135  C     0.09285   0.73459   0.33820   0.00000  Uiso   1.00
H1136  H     0.11946   0.75220   0.65653   0.00000  Uiso   1.00
H1137  H     0.09002   0.70159   0.65228   0.00000  Uiso   1.00
H1138  H     0.06361   0.75394   0.66308   0.00000  Uiso   1.00
H1139  H     0.07302   0.71067   0.40846   0.00000  Uiso   1.00
H1140  H     0.09890   0.76259   0.41329   0.00000  Uiso   1.00
H1141  H     0.16877   0.72479   0.39995   0.00000  Uiso   1.00
H1142  H     0.14460   0.67716   0.38173   0.00000  Uiso   1.00
C1143  C     0.21389   0.95330   0.57880   0.00000  Uiso   1.00
C1144  C     0.18965   0.95968   0.62697   0.00000  Uiso   1.00
C1145  C     0.21441   0.94140   0.33948   0.00000  Uiso   1.00
H1146  H     0.22317   0.90614   0.66603   0.00000  Uiso   1.00
H1147  H     0.24334   0.96072   0.34751   0.00000  Uiso   1.00
H1148  H     0.19512   0.94397   0.37297   0.00000  Uiso   1.00
H1149  H     0.18317   0.99545   0.63435   0.00000  Uiso   1.00
H1150  H     0.15899   0.94300   0.62227   0.00000  Uiso   1.00
H1151  H     0.21982   0.91836   0.57037   0.00000  Uiso   1.00
H1152  H     0.24606   0.96487   0.58624   0.00000  Uiso   1.00
C1153  C     0.42020   0.83359   0.49986   0.00000  Uiso   1.00
C1154  C     0.57975   0.83311   0.50041   0.00000  Uiso   1.00
C1155  C     0.49980   0.83297   0.40648   0.00000  Uiso   1.00
C1156  C     0.50006   0.83369   0.59351   0.00000  Uiso   1.00
C1157  C     0.49977   0.83280   0.35520   0.00000  Uiso   1.00
C1158  C     0.49986   0.83384   0.64478   0.00000  Uiso   1.00
C1159  C     0.35372   0.80313   0.46913   0.00000  Uiso   1.00
C1160  C     0.64599   0.86364   0.53161   0.00000  Uiso   1.00
C1161  C     0.64416   0.80289   0.46927   0.00000  Uiso   1.00
C1162  C     0.35565   0.86378   0.53149   0.00000  Uiso   1.00
C1163  C     0.62395   0.83297   0.50068   0.00000  Uiso   1.00
C1164  C     0.37589   0.83382   0.49987   0.00000  Uiso   1.00
C1165  C     0.52641   0.69078   0.53300   0.00000  Uiso   1.00
C1166  C     0.47447   0.97602   0.46687   0.00000  Uiso   1.00
C1167  C     0.47893   0.68942   0.46234   0.00000  Uiso   1.00
C1168  C     0.52471   0.97645   0.53479   0.00000  Uiso   1.00
H1169  H     0.36935   0.77982   0.44477   0.00000  Uiso   1.00
H1170  H     0.63001   0.88678   0.55616   0.00000  Uiso   1.00
H1171  H     0.62679   0.77980   0.44464   0.00000  Uiso   1.00
H1172  H     0.37309   0.88635   0.55659   0.00000  Uiso   1.00
N1173  N     0.50000   0.95240   0.50000   0.00000  Uiso   1.00
N1174  N     0.50000   0.71427   0.50000   0.00000  Uiso   1.00
O1175  O     0.43892   0.87154   0.50000   0.00000  Uiso   1.00
O1176  O     0.56108   0.79513   0.50000   0.00000  Uiso   1.00
O1177  O     0.56108   0.87154   0.50000   0.00000  Uiso   1.00
O1178  O     0.43892   0.79513   0.50000   0.00000  Uiso   1.00
O1179  O     0.50000   0.87155   0.42845   0.00000  Uiso   1.00
O1180  O     0.50000   0.79512   0.57155   0.00000  Uiso   1.00
O1181  O     0.50000   0.87155   0.57155   0.00000  Uiso   1.00
O1182  O     0.50000   0.79512   0.42845   0.00000  Uiso   1.00
Zn1183 Zn    0.50000   0.88437   0.50000   0.00000  Uiso   1.00
Zn1184 Zn    0.50000   0.78229   0.50000   0.00000  Uiso   1.00
C1185  C     0.56340   0.71400   0.55992   0.00000  Uiso   1.00
C1186  C     0.60147   0.71453   0.52674   0.00000  Uiso   1.00
C1187  C     0.62722   0.67179   0.52593   0.00000  Uiso   1.00
H1188  H     0.63949   0.99717   0.56458   0.00000  Uiso   1.00
H1189  H     0.60866   0.97739   0.50877   0.00000  Uiso   1.00
H1190  H     0.65409   0.67660   0.50224   0.00000  Uiso   1.00
H1191  H     0.59110   0.72157   0.48714   0.00000  Uiso   1.00
H1192  H     0.62256   0.74134   0.54126   0.00000  Uiso   1.00
H1193  H     0.55517   0.74820   0.56956   0.00000  Uiso   1.00
H1194  H     0.57225   0.70094   0.59759   0.00000  Uiso   1.00
C1195  C     0.43619   0.95442   0.44149   0.00000  Uiso   1.00
C1196  C     0.39646   0.96220   0.47143   0.00000  Uiso   1.00
C1197  C     0.40439   0.96908   0.52869   0.00000  Uiso   1.00
H1198  H     0.42619   0.94362   0.54474   0.00000  Uiso   1.00
H1199  H     0.41763   0.66899   0.53738   0.00000  Uiso   1.00
H1200  H     0.37460   0.96699   0.54773   0.00000  Uiso   1.00
H1201  H     0.37926   0.99174   0.45683   0.00000  Uiso   1.00
H1202  H     0.37539   0.93365   0.46411   0.00000  Uiso   1.00
H1203  H     0.42939   0.96622   0.40275   0.00000  Uiso   1.00
H1204  H     0.44165   0.91900   0.43480   0.00000  Uiso   1.00
C1205  C     0.47453   0.70562   0.40860   0.00000  Uiso   1.00
C1206  C     0.43284   0.72941   0.39514   0.00000  Uiso   1.00
C1207  C     0.42619   0.73459   0.33820   0.00000  Uiso   1.00
H1208  H     0.45280   0.75220   0.65653   0.00000  Uiso   1.00
H1209  H     0.42336   0.70159   0.65228   0.00000  Uiso   1.00
H1210  H     0.39694   0.75394   0.66308   0.00000  Uiso   1.00
H1211  H     0.40635   0.71067   0.40846   0.00000  Uiso   1.00
H1212  H     0.43223   0.76259   0.41329   0.00000  Uiso   1.00
H1213  H     0.50210   0.72479   0.39995   0.00000  Uiso   1.00
H1214  H     0.47793   0.67716   0.38173   0.00000  Uiso   1.00
C1215  C     0.54722   0.95330   0.57880   0.00000  Uiso   1.00
C1216  C     0.52298   0.95968   0.62697   0.00000  Uiso   1.00
C1217  C     0.54774   0.94140   0.33948   0.00000  Uiso   1.00
H1218  H     0.55651   0.90614   0.66603   0.00000  Uiso   1.00
H1219  H     0.57667   0.96072   0.34751   0.00000  Uiso   1.00
H1220  H     0.52846   0.94397   0.37297   0.00000  Uiso   1.00
H1221  H     0.51650   0.99545   0.63435   0.00000  Uiso   1.00
H1222  H     0.49232   0.94300   0.62227   0.00000  Uiso   1.00
H1223  H     0.55315   0.91836   0.57037   0.00000  Uiso   1.00
H1224  H     0.57940   0.96487   0.58624   0.00000  Uiso   1.00
C1225  C     0.75353   0.83359   0.49986   0.00000  Uiso   1.00
C1226  C     0.91308   0.83311   0.50041   0.00000  Uiso   1.00
C1227  C     0.83314   0.83297   0.40648   0.00000  Uiso   1.00
C1228  C     0.83339   0.83369   0.59351   0.00000  Uiso   1.00
C1229  C     0.83310   0.83280   0.35520   0.00000  Uiso   1.00
C1230  C     0.83319   0.83384   0.64478   0.00000  Uiso   1.00
C1231  C     0.68706   0.80313   0.46913   0.00000  Uiso   1.00
C1232  C     0.97932   0.86364   0.53161   0.00000  Uiso   1.00
C1233  C     0.97749   0.80289   0.46927   0.00000  Uiso   1.00
C1234  C     0.68899   0.86378   0.53149   0.00000  Uiso   1.00
C1235  C     0.95729   0.83297   0.50068   0.00000  Uiso   1.00
C1236  C     0.70922   0.83382   0.49987   0.00000  Uiso   1.00
C1237  C     0.85974   0.69078   0.53300   0.00000  Uiso   1.00
C1238  C     0.80780   0.97602   0.46687   0.00000  Uiso   1.00
C1239  C     0.81226   0.68942   0.46234   0.00000  Uiso   1.00
C1240  C     0.85805   0.97645   0.53479   0.00000  Uiso   1.00
H1241  H     0.70269   0.77982   0.44477   0.00000  Uiso   1.00
H1242  H     0.96334   0.88678   0.55616   0.00000  Uiso   1.00
H1243  H     0.96012   0.77980   0.44464   0.00000  Uiso   1.00
H1244  H     0.70642   0.88635   0.55659   0.00000  Uiso   1.00
N1245  N     0.83333   0.95240   0.50000   0.00000  Uiso   1.00
N1246  N     0.83333   0.71427   0.50000   0.00000  Uiso   1.00
O1247  O     0.77226   0.87154   0.50000   0.00000  Uiso   1.00
O1248  O     0.89441   0.79513   0.50000   0.00000  Uiso   1.00
O1249  O     0.89441   0.87154   0.50000   0.00000  Uiso   1.00
O1250  O     0.77226   0.79513   0.50000   0.00000  Uiso   1.00
O1251  O     0.83334   0.87155   0.42845   0.00000  Uiso   1.00
O1252  O     0.83333   0.79512   0.57155   0.00000  Uiso   1.00
O1253  O     0.83333   0.87155   0.57155   0.00000  Uiso   1.00
O1254  O     0.83334   0.79512   0.42845   0.00000  Uiso   1.00
Zn1255 Zn    0.83333   0.88437   0.50000   0.00000  Uiso   1.00
Zn1256 Zn    0.83333   0.78229   0.50000   0.00000  Uiso   1.00
C1257  C     0.89673   0.71400   0.55992   0.00000  Uiso   1.00
C1258  C     0.93481   0.71453   0.52674   0.00000  Uiso   1.00
C1259  C     0.96055   0.67179   0.52593   0.00000  Uiso   1.00
H1260  H     0.97283   0.99717   0.56458   0.00000  Uiso   1.00
H1261  H     0.94199   0.97739   0.50877   0.00000  Uiso   1.00
H1262  H     0.98743   0.67660   0.50224   0.00000  Uiso   1.00
H1263  H     0.92443   0.72157   0.48714   0.00000  Uiso   1.00
H1264  H     0.95590   0.74134   0.54126   0.00000  Uiso   1.00
H1265  H     0.88851   0.74820   0.56956   0.00000  Uiso   1.00
H1266  H     0.90559   0.70094   0.59759   0.00000  Uiso   1.00
C1267  C     0.76952   0.95442   0.44149   0.00000  Uiso   1.00
C1268  C     0.72979   0.96220   0.47143   0.00000  Uiso   1.00
C1269  C     0.73773   0.96908   0.52869   0.00000  Uiso   1.00
H1270  H     0.75952   0.94362   0.54474   0.00000  Uiso   1.00
H1271  H     0.75096   0.66899   0.53738   0.00000  Uiso   1.00
H1272  H     0.70793   0.96699   0.54773   0.00000  Uiso   1.00
H1273  H     0.71260   0.99174   0.45683   0.00000  Uiso   1.00
H1274  H     0.70873   0.93365   0.46411   0.00000  Uiso   1.00
H1275  H     0.76273   0.96622   0.40275   0.00000  Uiso   1.00
H1276  H     0.77498   0.91900   0.43480   0.00000  Uiso   1.00
C1277  C     0.80786   0.70562   0.40860   0.00000  Uiso   1.00
C1278  C     0.76618   0.72941   0.39514   0.00000  Uiso   1.00
C1279  C     0.75952   0.73459   0.33820   0.00000  Uiso   1.00
H1280  H     0.78613   0.75220   0.65653   0.00000  Uiso   1.00
H1281  H     0.75669   0.70159   0.65228   0.00000  Uiso   1.00
H1282  H     0.73027   0.75394   0.66308   0.00000  Uiso   1.00
H1283  H     0.73968   0.71067   0.40846   0.00000  Uiso   1.00
H1284  H     0.76556   0.76259   0.41329   0.00000  Uiso   1.00
H1285  H     0.83543   0.72479   0.39995   0.00000  Uiso   1.00
H1286  H     0.81126   0.67716   0.38173   0.00000  Uiso   1.00
C1287  C     0.88056   0.95330   0.57880   0.00000  Uiso   1.00
C1288  C     0.85631   0.95968   0.62697   0.00000  Uiso   1.00
C1289  C     0.88108   0.94140   0.33948   0.00000  Uiso   1.00
H1290  H     0.88984   0.90614   0.66603   0.00000  Uiso   1.00
H1291  H     0.91000   0.96072   0.34751   0.00000  Uiso   1.00
H1292  H     0.86179   0.94397   0.37297   0.00000  Uiso   1.00
H1293  H     0.84984   0.99545   0.63435   0.00000  Uiso   1.00
H1294  H     0.82565   0.94300   0.62227   0.00000  Uiso   1.00
H1295  H     0.88649   0.91836   0.57037   0.00000  Uiso   1.00
H1296  H     0.91273   0.96487   0.58624   0.00000  Uiso   1.00
C1297  C     0.08686   0.16692   0.83319   0.00000  Uiso   1.00
C1298  C     0.24642   0.16645   0.83375   0.00000  Uiso   1.00
C1299  C     0.16647   0.16631   0.73982   0.00000  Uiso   1.00
C1300  C     0.16673   0.16703   0.92684   0.00000  Uiso   1.00
C1301  C     0.16644   0.16613   0.68853   0.00000  Uiso   1.00
C1302  C     0.16652   0.16717   0.97812   0.00000  Uiso   1.00
C1303  C     0.02039   0.13646   0.80247   0.00000  Uiso   1.00
C1304  C     0.31266   0.19698   0.86495   0.00000  Uiso   1.00
C1305  C     0.31083   0.13623   0.80261   0.00000  Uiso   1.00
C1306  C     0.02232   0.19711   0.86483   0.00000  Uiso   1.00
C1307  C     0.29062   0.16630   0.83401   0.00000  Uiso   1.00
C1308  C     0.04255   0.16715   0.83320   0.00000  Uiso   1.00
C1309  C     0.19307   0.02411   0.86633   0.00000  Uiso   1.00
C1310  C     0.14113   0.30935   0.80021   0.00000  Uiso   1.00
C1311  C     0.14560   0.02276   0.79567   0.00000  Uiso   1.00
C1312  C     0.19138   0.30979   0.86813   0.00000  Uiso   1.00
H1313  H     0.03602   0.11315   0.77810   0.00000  Uiso   1.00
H1314  H     0.29668   0.22012   0.88949   0.00000  Uiso   1.00
H1315  H     0.29345   0.11313   0.77797   0.00000  Uiso   1.00
H1316  H     0.03976   0.21969   0.88992   0.00000  Uiso   1.00
N1317  N     0.16667   0.28573   0.83333   0.00000  Uiso   1.00
N1318  N     0.16667   0.04760   0.83333   0.00000  Uiso   1.00
O1319  O     0.10559   0.20487   0.83333   0.00000  Uiso   1.00
O1320  O     0.22774   0.12846   0.83334   0.00000  Uiso   1.00
O1321  O     0.22774   0.20487   0.83334   0.00000  Uiso   1.00
O1322  O     0.10559   0.12846   0.83333   0.00000  Uiso   1.00
O1323  O     0.16667   0.20488   0.76178   0.00000  Uiso   1.00
O1324  O     0.16666   0.12845   0.90489   0.00000  Uiso   1.00
O1325  O     0.16666   0.20488   0.90489   0.00000  Uiso   1.00
O1326  O     0.16667   0.12845   0.76178   0.00000  Uiso   1.00
Zn1327 Zn    0.16667   0.21771   0.83333   0.00000  Uiso   1.00
Zn1328 Zn    0.16667   0.11563   0.83333   0.00000  Uiso   1.00
C1329  C     0.23006   0.04734   0.89326   0.00000  Uiso   1.00
C1330  C     0.26814   0.04786   0.86008   0.00000  Uiso   1.00
C1331  C     0.29389   0.00513   0.85926   0.00000  Uiso   1.00
H1332  H     0.30616   0.33051   0.89792   0.00000  Uiso   1.00
H1333  H     0.27532   0.31073   0.84210   0.00000  Uiso   1.00
H1334  H     0.32076   0.00994   0.83557   0.00000  Uiso   1.00
H1335  H     0.25776   0.05491   0.82047   0.00000  Uiso   1.00
H1336  H     0.28923   0.07467   0.87459   0.00000  Uiso   1.00
H1337  H     0.22184   0.08153   0.90289   0.00000  Uiso   1.00
H1338  H     0.23892   0.03428   0.93093   0.00000  Uiso   1.00
C1339  C     0.10285   0.28775   0.77482   0.00000  Uiso   1.00
C1340  C     0.06312   0.29553   0.80476   0.00000  Uiso   1.00
C1341  C     0.07106   0.30242   0.86202   0.00000  Uiso   1.00
H1342  H     0.09286   0.27695   0.87807   0.00000  Uiso   1.00
H1343  H     0.08429   0.00232   0.87071   0.00000  Uiso   1.00
H1344  H     0.04126   0.30033   0.88107   0.00000  Uiso   1.00
H1345  H     0.04593   0.32507   0.79016   0.00000  Uiso   1.00
H1346  H     0.04206   0.26698   0.79744   0.00000  Uiso   1.00
H1347  H     0.09606   0.29956   0.73609   0.00000  Uiso   1.00
H1348  H     0.10832   0.25233   0.76814   0.00000  Uiso   1.00
C1349  C     0.14120   0.03896   0.74193   0.00000  Uiso   1.00
C1350  C     0.09951   0.06275   0.72847   0.00000  Uiso   1.00
C1351  C     0.09285   0.06792   0.67153   0.00000  Uiso   1.00
H1352  H     0.11946   0.08554   0.98986   0.00000  Uiso   1.00
H1353  H     0.09002   0.03493   0.98562   0.00000  Uiso   1.00
H1354  H     0.06361   0.08728   0.99642   0.00000  Uiso   1.00
H1355  H     0.07302   0.04401   0.74180   0.00000  Uiso   1.00
H1356  H     0.09890   0.09592   0.74662   0.00000  Uiso   1.00
H1357  H     0.16877   0.05812   0.73328   0.00000  Uiso   1.00
H1358  H     0.14460   0.01049   0.71506   0.00000  Uiso   1.00
C1359  C     0.21389   0.28663   0.91213   0.00000  Uiso   1.00
C1360  C     0.18965   0.29302   0.96031   0.00000  Uiso   1.00
C1361  C     0.21441   0.27473   0.67281   0.00000  Uiso   1.00
H1362  H     0.22317   0.23947   0.99936   0.00000  Uiso   1.00
H1363  H     0.24334   0.29405   0.68084   0.00000  Uiso   1.00
H1364  H     0.19512   0.27730   0.70630   0.00000  Uiso   1.00
H1365  H     0.18317   0.32878   0.96768   0.00000  Uiso   1.00
H1366  H     0.15899   0.27633   0.95560   0.00000  Uiso   1.00
H1367  H     0.21982   0.25170   0.90370   0.00000  Uiso   1.00
H1368  H     0.24606   0.29820   0.91958   0.00000  Uiso   1.00
C1369  C     0.42020   0.16692   0.83319   0.00000  Uiso   1.00
C1370  C     0.57975   0.16645   0.83375   0.00000  Uiso   1.00
C1371  C     0.49980   0.16631   0.73982   0.00000  Uiso   1.00
C1372  C     0.50006   0.16703   0.92684   0.00000  Uiso   1.00
C1373  C     0.49977   0.16613   0.68853   0.00000  Uiso   1.00
C1374  C     0.49986   0.16717   0.97812   0.00000  Uiso   1.00
C1375  C     0.35372   0.13646   0.80247   0.00000  Uiso   1.00
C1376  C     0.64599   0.19698   0.86495   0.00000  Uiso   1.00
C1377  C     0.64416   0.13623   0.80261   0.00000  Uiso   1.00
C1378  C     0.35565   0.19711   0.86483   0.00000  Uiso   1.00
C1379  C     0.62395   0.16630   0.83401   0.00000  Uiso   1.00
C1380  C     0.37589   0.16715   0.83320   0.00000  Uiso   1.00
C1381  C     0.52641   0.02411   0.86633   0.00000  Uiso   1.00
C1382  C     0.47447   0.30935   0.80021   0.00000  Uiso   1.00
C1383  C     0.47893   0.02276   0.79567   0.00000  Uiso   1.00
C1384  C     0.52471   0.30979   0.86813   0.00000  Uiso   1.00
H1385  H     0.36935   0.11315   0.77810   0.00000  Uiso   1.00
H1386  H     0.63001   0.22012   0.88949   0.00000  Uiso   1.00
H1387  H     0.62679   0.11313   0.77797   0.00000  Uiso   1.00
H1388  H     0.37309   0.21969   0.88992   0.00000  Uiso   1.00
N1389  N     0.50000   0.28573   0.83333   0.00000  Uiso   1.00
N1390  N     0.50000   0.04760   0.83333   0.00000  Uiso   1.00
O1391  O     0.43892   0.20487   0.83333   0.00000  Uiso   1.00
O1392  O     0.56108   0.12846   0.83334   0.00000  Uiso   1.00
O1393  O     0.56108   0.20487   0.83334   0.00000  Uiso   1.00
O1394  O     0.43892   0.12846   0.83333   0.00000  Uiso   1.00
O1395  O     0.50000   0.20488   0.76178   0.00000  Uiso   1.00
O1396  O     0.50000   0.12845   0.90489   0.00000  Uiso   1.00
O1397  O     0.50000   0.20488   0.90489   0.00000  Uiso   1.00
O1398  O     0.50000   0.12845   0.76178   0.00000  Uiso   1.00
Zn1399 Zn    0.50000   0.21771   0.83333   0.00000  Uiso   1.00
Zn1400 Zn    0.50000   0.11563   0.83333   0.00000  Uiso   1.00
C1401  C     0.56340   0.04734   0.89326   0.00000  Uiso   1.00
C1402  C     0.60147   0.04786   0.86008   0.00000  Uiso   1.00
C1403  C     0.62722   0.00513   0.85926   0.00000  Uiso   1.00
H1404  H     0.63949   0.33051   0.89792   0.00000  Uiso   1.00
H1405  H     0.60866   0.31073   0.84210   0.00000  Uiso   1.00
H1406  H     0.65409   0.00994   0.83557   0.00000  Uiso   1.00
H1407  H     0.59110   0.05491   0.82047   0.00000  Uiso   1.00
H1408  H     0.62256   0.07467   0.87459   0.00000  Uiso   1.00
H1409  H     0.55517   0.08153   0.90289   0.00000  Uiso   1.00
H1410  H     0.57225   0.03428   0.93093   0.00000  Uiso   1.00
C1411  C     0.43619   0.28775   0.77482   0.00000  Uiso   1.00
C1412  C     0.39646   0.29553   0.80476   0.00000  Uiso   1.00
C1413  C     0.40439   0.30242   0.86202   0.00000  Uiso   1.00
H1414  H     0.42619   0.27695   0.87807   0.00000  Uiso   1.00
H1415  H     0.41763   0.00232   0.87071   0.00000  Uiso   1.00
H1416  H     0.37460   0.30033   0.88107   0.00000  Uiso   1.00
H1417  H     0.37926   0.32507   0.79016   0.00000  Uiso   1.00
H1418  H     0.37539   0.26698   0.79744   0.00000  Uiso   1.00
H1419  H     0.42939   0.29956   0.73609   0.00000  Uiso   1.00
H1420  H     0.44165   0.25233   0.76814   0.00000  Uiso   1.00
C1421  C     0.47453   0.03896   0.74193   0.00000  Uiso   1.00
C1422  C     0.43284   0.06275   0.72847   0.00000  Uiso   1.00
C1423  C     0.42619   0.06792   0.67153   0.00000  Uiso   1.00
H1424  H     0.45280   0.08554   0.98986   0.00000  Uiso   1.00
H1425  H     0.42336   0.03493   0.98562   0.00000  Uiso   1.00
H1426  H     0.39694   0.08728   0.99642   0.00000  Uiso   1.00
H1427  H     0.40635   0.04401   0.74180   0.00000  Uiso   1.00
H1428  H     0.43223   0.09592   0.74662   0.00000  Uiso   1.00
H1429  H     0.50210   0.05812   0.73328   0.00000  Uiso   1.00
H1430  H     0.47793   0.01049   0.71506   0.00000  Uiso   1.00
C1431  C     0.54722   0.28663   0.91213   0.00000  Uiso   1.00
C1432  C     0.52298   0.29302   0.96031   0.00000  Uiso   1.00
C1433  C     0.54774   0.27473   0.67281   0.00000  Uiso   1.00
H1434  H     0.55651   0.23947   0.99936   0.00000  Uiso   1.00
H1435  H     0.57667   0.29405   0.68084   0.00000  Uiso   1.00
H1436  H     0.52846   0.27730   0.70630   0.00000  Uiso   1.00
H1437  H     0.51650   0.32878   0.96768   0.00000  Uiso   1.00
H1438  H     0.49232   0.27633   0.95560   0.00000  Uiso   1.00
H1439  H     0.55315   0.25170   0.90370   0.00000  Uiso   1.00
H1440  H     0.57940   0.29820   0.91958   0.00000  Uiso   1.00
C1441  C     0.75353   0.16692   0.83319   0.00000  Uiso   1.00
C1442  C     0.91308   0.16645   0.83375   0.00000  Uiso   1.00
C1443  C     0.83314   0.16631   0.73982   0.00000  Uiso   1.00
C1444  C     0.83339   0.16703   0.92684   0.00000  Uiso   1.00
C1445  C     0.83310   0.16613   0.68853   0.00000  Uiso   1.00
C1446  C     0.83319   0.16717   0.97812   0.00000  Uiso   1.00
C1447  C     0.68706   0.13646   0.80247   0.00000  Uiso   1.00
C1448  C     0.97932   0.19698   0.86495   0.00000  Uiso   1.00
C1449  C     0.97749   0.13623   0.80261   0.00000  Uiso   1.00
C1450  C     0.68899   0.19711   0.86483   0.00000  Uiso   1.00
C1451  C     0.95729   0.16630   0.83401   0.00000  Uiso   1.00
C1452  C     0.70922   0.16715   0.83320   0.00000  Uiso   1.00
C1453  C     0.85974   0.02411   0.86633   0.00000  Uiso   1.00
C1454  C     0.80780   0.30935   0.80021   0.00000  Uiso   1.00
C1455  C     0.81226   0.02276   0.79567   0.00000  Uiso   1.00
C1456  C     0.85805   0.30979   0.86813   0.00000  Uiso   1.00
H1457  H     0.70269   0.11315   0.77810   0.00000  Uiso   1.00
H1458  H     0.96334   0.22012   0.88949   0.00000  Uiso   1.00
H1459  H     0.96012   0.11313   0.77797   0.00000  Uiso   1.00
H1460  H     0.70642   0.21969   0.88992   0.00000  Uiso   1.00
N1461  N     0.83333   0.28573   0.83333   0.00000  Uiso   1.00
N1462  N     0.83333   0.04760   0.83333   0.00000  Uiso   1.00
O1463  O     0.77226   0.20487   0.83333   0.00000  Uiso   1.00
O1464  O     0.89441   0.12846   0.83334   0.00000  Uiso   1.00
O1465  O     0.89441   0.20487   0.83334   0.00000  Uiso   1.00
O1466  O     0.77226   0.12846   0.83333   0.00000  Uiso   1.00
O1467  O     0.83334   0.20488   0.76178   0.00000  Uiso   1.00
O1468  O     0.83333   0.12845   0.90489   0.00000  Uiso   1.00
O1469  O     0.83333   0.20488   0.90489   0.00000  Uiso   1.00
O1470  O     0.83334   0.12845   0.76178   0.00000  Uiso   1.00
Zn1471 Zn    0.83333   0.21771   0.83333   0.00000  Uiso   1.00
Zn1472 Zn    0.83333   0.11563   0.83333   0.00000  Uiso   1.00
C1473  C     0.89673   0.04734   0.89326   0.00000  Uiso   1.00
C1474  C     0.93481   0.04786   0.86008   0.00000  Uiso   1.00
C1475  C     0.96055   0.00513   0.85926   0.00000  Uiso   1.00
H1476  H     0.97283   0.33051   0.89792   0.00000  Uiso   1.00
H1477  H     0.94199   0.31073   0.84210   0.00000  Uiso   1.00
H1478  H     0.98743   0.00994   0.83557   0.00000  Uiso   1.00
H1479  H     0.92443   0.05491   0.82047   0.00000  Uiso   1.00
H1480  H     0.95590   0.07467   0.87459   0.00000  Uiso   1.00
H1481  H     0.88851   0.08153   0.90289   0.00000  Uiso   1.00
H1482  H     0.90559   0.03428   0.93093   0.00000  Uiso   1.00
C1483  C     0.76952   0.28775   0.77482   0.00000  Uiso   1.00
C1484  C     0.72979   0.29553   0.80476   0.00000  Uiso   1.00
C1485  C     0.73773   0.30242   0.86202   0.00000  Uiso   1.00
H1486  H     0.75952   0.27695   0.87807   0.00000  Uiso   1.00
H1487  H     0.75096   0.00232   0.87071   0.00000  Uiso   1.00
H1488  H     0.70793   0.30033   0.88107   0.00000  Uiso   1.00
H1489  H     0.71260   0.32507   0.79016   0.00000  Uiso   1.00
H1490  H     0.70873   0.26698   0.79744   0.00000  Uiso   1.00
H1491  H     0.76273   0.29956   0.73609   0.00000  Uiso   1.00
H1492  H     0.77498   0.25233   0.76814   0.00000  Uiso   1.00
C1493  C     0.80786   0.03896   0.74193   0.00000  Uiso   1.00
C1494  C     0.76618   0.06275   0.72847   0.00000  Uiso   1.00
C1495  C     0.75952   0.06792   0.67153   0.00000  Uiso   1.00
H1496  H     0.78613   0.08554   0.98986   0.00000  Uiso   1.00
H1497  H     0.75669   0.03493   0.98562   0.00000  Uiso   1.00
H1498  H     0.73027   0.08728   0.99642   0.00000  Uiso   1.00
H1499  H     0.73968   0.04401   0.74180   0.00000  Uiso   1.00
H1500  H     0.76556   0.09592   0.74662   0.00000  Uiso   1.00
H1501  H     0.83543   0.05812   0.73328   0.00000  Uiso   1.00
H1502  H     0.81126   0.01049   0.71506   0.00000  Uiso   1.00
C1503  C     0.88056   0.28663   0.91213   0.00000  Uiso   1.00
C1504  C     0.85631   0.29302   0.96031   0.00000  Uiso   1.00
C1505  C     0.88108   0.27473   0.67281   0.00000  Uiso   1.00
H1506  H     0.88984   0.23947   0.99936   0.00000  Uiso   1.00
H1507  H     0.91000   0.29405   0.68084   0.00000  Uiso   1.00
H1508  H     0.86179   0.27730   0.70630   0.00000  Uiso   1.00
H1509  H     0.84984   0.32878   0.96768   0.00000  Uiso   1.00
H1510  H     0.82565   0.27633   0.95560   0.00000  Uiso   1.00
H1511  H     0.88649   0.25170   0.90370   0.00000  Uiso   1.00
H1512  H     0.91273   0.29820   0.91958   0.00000  Uiso   1.00
C1513  C     0.08686   0.50025   0.83319   0.00000  Uiso   1.00
C1514  C     0.24642   0.49978   0.83375   0.00000  Uiso   1.00
C1515  C     0.16647   0.49964   0.73982   0.00000  Uiso   1.00
C1516  C     0.16673   0.50036   0.92684   0.00000  Uiso   1.00
C1517  C     0.16644   0.49946   0.68853   0.00000  Uiso   1.00
C1518  C     0.16652   0.50051   0.97812   0.00000  Uiso   1.00
C1519  C     0.02039   0.46979   0.80247   0.00000  Uiso   1.00
C1520  C     0.31266   0.53031   0.86495   0.00000  Uiso   1.00
C1521  C     0.31083   0.46956   0.80261   0.00000  Uiso   1.00
C1522  C     0.02232   0.53044   0.86483   0.00000  Uiso   1.00
C1523  C     0.29062   0.49964   0.83401   0.00000  Uiso   1.00
C1524  C     0.04255   0.50048   0.83320   0.00000  Uiso   1.00
C1525  C     0.19307   0.35744   0.86633   0.00000  Uiso   1.00
C1526  C     0.14113   0.64269   0.80021   0.00000  Uiso   1.00
C1527  C     0.14560   0.35609   0.79567   0.00000  Uiso   1.00
C1528  C     0.19138   0.64312   0.86813   0.00000  Uiso   1.00
H1529  H     0.03602   0.44648   0.77810   0.00000  Uiso   1.00
H1530  H     0.29668   0.55345   0.88949   0.00000  Uiso   1.00
H1531  H     0.29345   0.44646   0.77797   0.00000  Uiso   1.00
H1532  H     0.03976   0.55302   0.88992   0.00000  Uiso   1.00
N1533  N     0.16667   0.61907   0.83333   0.00000  Uiso   1.00
N1534  N     0.16667   0.38093   0.83333   0.00000  Uiso   1.00
O1535  O     0.10559   0.53821   0.83333   0.00000  Uiso   1.00
O1536  O     0.22774   0.46179   0.83334   0.00000  Uiso   1.00
O1537  O     0.22774   0.53821   0.83334   0.00000  Uiso   1.00
O1538  O     0.10559   0.46179   0.83333   0.00000  Uiso   1.00
O1539  O     0.16667   0.53821   0.76178   0.00000  Uiso   1.00
O1540  O     0.16666   0.46179   0.90489   0.00000  Uiso   1.00
O1541  O     0.16666   0.53821   0.90489   0.00000  Uiso   1.00
O1542  O     0.16667   0.46179   0.76178   0.00000  Uiso   1.00
Zn1543 Zn    0.16667   0.55104   0.83333   0.00000  Uiso   1.00
Zn1544 Zn    0.16667   0.44896   0.83333   0.00000  Uiso   1.00
C1545  C     0.23006   0.38067   0.89326   0.00000  Uiso   1.00
C1546  C     0.26814   0.38119   0.86008   0.00000  Uiso   1.00
C1547  C     0.29389   0.33846   0.85926   0.00000  Uiso   1.00
H1548  H     0.30616   0.66384   0.89792   0.00000  Uiso   1.00
H1549  H     0.27532   0.64406   0.84210   0.00000  Uiso   1.00
H1550  H     0.32076   0.34327   0.83557   0.00000  Uiso   1.00
H1551  H     0.25776   0.38824   0.82047   0.00000  Uiso   1.00
H1552  H     0.28923   0.40800   0.87459   0.00000  Uiso   1.00
H1553  H     0.22184   0.41486   0.90289   0.00000  Uiso   1.00
H1554  H     0.23892   0.36761   0.93093   0.00000  Uiso   1.00
C1555  C     0.10285   0.62108   0.77482   0.00000  Uiso   1.00
C1556  C     0.06312   0.62887   0.80476   0.00000  Uiso   1.00
C1557  C     0.07106   0.63575   0.86202   0.00000  Uiso   1.00
H1558  H     0.09286   0.61029   0.87807   0.00000  Uiso   1.00
H1559  H     0.08429   0.33565   0.87071   0.00000  Uiso   1.00
H1560  H     0.04126   0.63366   0.88107   0.00000  Uiso   1.00
H1561  H     0.04593   0.65840   0.79016   0.00000  Uiso   1.00
H1562  H     0.04206   0.60031   0.79744   0.00000  Uiso   1.00
H1563  H     0.09606   0.63289   0.73609   0.00000  Uiso   1.00
H1564  H     0.10832   0.58567   0.76814   0.00000  Uiso   1.00
C1565  C     0.14120   0.37229   0.74193   0.00000  Uiso   1.00
C1566  C     0.09951   0.39608   0.72847   0.00000  Uiso   1.00
C1567  C     0.09285   0.40125   0.67153   0.00000  Uiso   1.00
H1568  H     0.11946   0.41887   0.98986   0.00000  Uiso   1.00
H1569  H     0.09002   0.36826   0.98562   0.00000  Uiso   1.00
H1570  H     0.06361   0.42061   0.99642   0.00000  Uiso   1.00
H1571  H     0.07302   0.37734   0.74180   0.00000  Uiso   1.00
H1572  H     0.09890   0.42926   0.74662   0.00000  Uiso   1.00
H1573  H     0.16877   0.39145   0.73328   0.00000  Uiso   1.00
H1574  H     0.14460   0.34382   0.71506   0.00000  Uiso   1.00
C1575  C     0.21389   0.61996   0.91213   0.00000  Uiso   1.00
C1576  C     0.18965   0.62635   0.96031   0.00000  Uiso   1.00
C1577  C     0.21441   0.60807   0.67281   0.00000  Uiso   1.00
H1578  H     0.22317   0.57281   0.99936   0.00000  Uiso   1.00
H1579  H     0.24334   0.62739   0.68084   0.00000  Uiso   1.00
H1580  H     0.19512   0.61063   0.70630   0.00000  Uiso   1.00
H1581  H     0.18317   0.66211   0.96768   0.00000  Uiso   1.00
H1582  H     0.15899   0.60967   0.95560   0.00000  Uiso   1.00
H1583  H     0.21982   0.58503   0.90370   0.00000  Uiso   1.00
H1584  H     0.24606   0.63153   0.91958   0.00000  Uiso   1.00
C1585  C     0.42020   0.50025   0.83319   0.00000  Uiso   1.00
C1586  C     0.57975   0.49978   0.83375   0.00000  Uiso   1.00
C1587  C     0.49980   0.49964   0.73982   0.00000  Uiso   1.00
C1588  C     0.50006   0.50036   0.92684   0.00000  Uiso   1.00
C1589  C     0.49977   0.49946   0.68853   0.00000  Uiso   1.00
C1590  C     0.49986   0.50051   0.97812   0.00000  Uiso   1.00
C1591  C     0.35372   0.46979   0.80247   0.00000  Uiso   1.00
C1592  C     0.64599   0.53031   0.86495   0.00000  Uiso   1.00
C1593  C     0.64416   0.46956   0.80261   0.00000  Uiso   1.00
C1594  C     0.35565   0.53044   0.86483   0.00000  Uiso   1.00
C1595  C     0.62395   0.49964   0.83401   0.00000  Uiso   1.00
C1596  C     0.37589   0.50048   0.83320   0.00000  Uiso   1.00
C1597  C     0.52641   0.35744   0.86633   0.00000  Uiso   1.00
C1598  C     0.47447   0.64269   0.80021   0.00000  Uiso   1.00
C1599  C     0.47893   0.35609   0.79567   0.00000  Uiso   1.00
C1600  C     0.52471   0.64312   0.86813   0.00000  Uiso   1.00
H1601  H     0.36935   0.44648   0.77810   0.00000  Uiso   1.00
H1602  H     0.63001   0.55345   0.88949   0.00000  Uiso   1.00
H1603  H     0.62679   0.44646   0.77797   0.00000  Uiso   1.00
H1604  H     0.37309   0.55302   0.88992   0.00000  Uiso   1.00
N1605  N     0.50000   0.61907   0.83333   0.00000  Uiso   1.00
N1606  N     0.50000   0.38093   0.83333   0.00000  Uiso   1.00
O1607  O     0.43892   0.53821   0.83333   0.00000  Uiso   1.00
O1608  O     0.56108   0.46179   0.83334   0.00000  Uiso   1.00
O1609  O     0.56108   0.53821   0.83334   0.00000  Uiso   1.00
O1610  O     0.43892   0.46179   0.83333   0.00000  Uiso   1.00
O1611  O     0.50000   0.53821   0.76178   0.00000  Uiso   1.00
O1612  O     0.50000   0.46179   0.90489   0.00000  Uiso   1.00
O1613  O     0.50000   0.53821   0.90489   0.00000  Uiso   1.00
O1614  O     0.50000   0.46179   0.76178   0.00000  Uiso   1.00
Zn1615 Zn    0.50000   0.55104   0.83333   0.00000  Uiso   1.00
Zn1616 Zn    0.50000   0.44896   0.83333   0.00000  Uiso   1.00
C1617  C     0.56340   0.38067   0.89326   0.00000  Uiso   1.00
C1618  C     0.60147   0.38119   0.86008   0.00000  Uiso   1.00
C1619  C     0.62722   0.33846   0.85926   0.00000  Uiso   1.00
H1620  H     0.63949   0.66384   0.89792   0.00000  Uiso   1.00
H1621  H     0.60866   0.64406   0.84210   0.00000  Uiso   1.00
H1622  H     0.65409   0.34327   0.83557   0.00000  Uiso   1.00
H1623  H     0.59110   0.38824   0.82047   0.00000  Uiso   1.00
H1624  H     0.62256   0.40800   0.87459   0.00000  Uiso   1.00
H1625  H     0.55517   0.41486   0.90289   0.00000  Uiso   1.00
H1626  H     0.57225   0.36761   0.93093   0.00000  Uiso   1.00
C1627  C     0.43619   0.62108   0.77482   0.00000  Uiso   1.00
C1628  C     0.39646   0.62887   0.80476   0.00000  Uiso   1.00
C1629  C     0.40439   0.63575   0.86202   0.00000  Uiso   1.00
H1630  H     0.42619   0.61029   0.87807   0.00000  Uiso   1.00
H1631  H     0.41763   0.33565   0.87071   0.00000  Uiso   1.00
H1632  H     0.37460   0.63366   0.88107   0.00000  Uiso   1.00
H1633  H     0.37926   0.65840   0.79016   0.00000  Uiso   1.00
H1634  H     0.37539   0.60031   0.79744   0.00000  Uiso   1.00
H1635  H     0.42939   0.63289   0.73609   0.00000  Uiso   1.00
H1636  H     0.44165   0.58567   0.76814   0.00000  Uiso   1.00
C1637  C     0.47453   0.37229   0.74193   0.00000  Uiso   1.00
C1638  C     0.43284   0.39608   0.72847   0.00000  Uiso   1.00
C1639  C     0.42619   0.40125   0.67153   0.00000  Uiso   1.00
H1640  H     0.45280   0.41887   0.98986   0.00000  Uiso   1.00
H1641  H     0.42336   0.36826   0.98562   0.00000  Uiso   1.00
H1642  H     0.39694   0.42061   0.99642   0.00000  Uiso   1.00
H1643  H     0.40635   0.37734   0.74180   0.00000  Uiso   1.00
H1644  H     0.43223   0.42926   0.74662   0.00000  Uiso   1.00
H1645  H     0.50210   0.39145   0.73328   0.00000  Uiso   1.00
H1646  H     0.47793   0.34382   0.71506   0.00000  Uiso   1.00
C1647  C     0.54722   0.61996   0.91213   0.00000  Uiso   1.00
C1648  C     0.52298   0.62635   0.96031   0.00000  Uiso   1.00
C1649  C     0.54774   0.60807   0.67281   0.00000  Uiso   1.00
H1650  H     0.55651   0.57281   0.99936   0.00000  Uiso   1.00
H1651  H     0.57667   0.62739   0.68084   0.00000  Uiso   1.00
H1652  H     0.52846   0.61063   0.70630   0.00000  Uiso   1.00
H1653  H     0.51650   0.66211   0.96768   0.00000  Uiso   1.00
H1654  H     0.49232   0.60967   0.95560   0.00000  Uiso   1.00
H1655  H     0.55315   0.58503   0.90370   0.00000  Uiso   1.00
H1656  H     0.57940   0.63153   0.91958   0.00000  Uiso   1.00
C1657  C     0.75353   0.50025   0.83319   0.00000  Uiso   1.00
C1658  C     0.91308   0.49978   0.83375   0.00000  Uiso   1.00
C1659  C     0.83314   0.49964   0.73982   0.00000  Uiso   1.00
C1660  C     0.83339   0.50036   0.92684   0.00000  Uiso   1.00
C1661  C     0.83310   0.49946   0.68853   0.00000  Uiso   1.00
C1662  C     0.83319   0.50051   0.97812   0.00000  Uiso   1.00
C1663  C     0.68706   0.46979   0.80247   0.00000  Uiso   1.00
C1664  C     0.97932   0.53031   0.86495   0.00000  Uiso   1.00
C1665  C     0.97749   0.46956   0.80261   0.00000  Uiso   1.00
C1666  C     0.68899   0.53044   0.86483   0.00000  Uiso   1.00
C1667  C     0.95729   0.49964   0.83401   0.00000  Uiso   1.00
C1668  C     0.70922   0.50048   0.83320   0.00000  Uiso   1.00
C1669  C     0.85974   0.35744   0.86633   0.00000  Uiso   1.00
C1670  C     0.80780   0.64269   0.80021   0.00000  Uiso   1.00
C1671  C     0.81226   0.35609   0.79567   0.00000  Uiso   1.00
C1672  C     0.85805   0.64312   0.86813   0.00000  Uiso   1.00
H1673  H     0.70269   0.44648   0.77810   0.00000  Uiso   1.00
H1674  H     0.96334   0.55345   0.88949   0.00000  Uiso   1.00
H1675  H     0.96012   0.44646   0.77797   0.00000  Uiso   1.00
H1676  H     0.70642   0.55302   0.88992   0.00000  Uiso   1.00
N1677  N     0.83333   0.61907   0.83333   0.00000  Uiso   1.00
N1678  N     0.83333   0.38093   0.83333   0.00000  Uiso   1.00
O1679  O     0.77226   0.53821   0.83333   0.00000  Uiso   1.00
O1680  O     0.89441   0.46179   0.83334   0.00000  Uiso   1.00
O1681  O     0.89441   0.53821   0.83334   0.00000  Uiso   1.00
O1682  O     0.77226   0.46179   0.83333   0.00000  Uiso   1.00
O1683  O     0.83334   0.53821   0.76178   0.00000  Uiso   1.00
O1684  O     0.83333   0.46179   0.90489   0.00000  Uiso   1.00
O1685  O     0.83333   0.53821   0.90489   0.00000  Uiso   1.00
O1686  O     0.83334   0.46179   0.76178   0.00000  Uiso   1.00
Zn1687 Zn    0.83333   0.55104   0.83333   0.00000  Uiso   1.00
Zn1688 Zn    0.83333   0.44896   0.83333   0.00000  Uiso   1.00
C1689  C     0.89673   0.38067   0.89326   0.00000  Uiso   1.00
C1690  C     0.93481   0.38119   0.86008   0.00000  Uiso   1.00
C1691  C     0.96055   0.33846   0.85926   0.00000  Uiso   1.00
H1692  H     0.97283   0.66384   0.89792   0.00000  Uiso   1.00
H1693  H     0.94199   0.64406   0.84210   0.00000  Uiso   1.00
H1694  H     0.98743   0.34327   0.83557   0.00000  Uiso   1.00
H1695  H     0.92443   0.38824   0.82047   0.00000  Uiso   1.00
H1696  H     0.95590   0.40800   0.87459   0.00000  Uiso   1.00
H1697  H     0.88851   0.41486   0.90289   0.00000  Uiso   1.00
H1698  H     0.90559   0.36761   0.93093   0.00000  Uiso   1.00
C1699  C     0.76952   0.62108   0.77482   0.00000  Uiso   1.00
C1700  C     0.72979   0.62887   0.80476   0.00000  Uiso   1.00
C1701  C     0.73773   0.63575   0.86202   0.00000  Uiso   1.00
H1702  H     0.75952   0.61029   0.87807   0.00000  Uiso   1.00
H1703  H     0.75096   0.33565   0.87071   0.00000  Uiso   1.00
H1704  H     0.70793   0.63366   0.88107   0.00000  Uiso   1.00
H1705  H     0.71260   0.65840   0.79016   0.00000  Uiso   1.00
H1706  H     0.70873   0.60031   0.79744   0.00000  Uiso   1.00
H1707  H     0.76273   0.63289   0.73609   0.00000  Uiso   1.00
H1708  H     0.77498   0.58567   0.76814   0.00000  Uiso   1.00
C1709  C     0.80786   0.37229   0.74193   0.00000  Uiso   1.00
C1710  C     0.76618   0.39608   0.72847   0.00000  Uiso   1.00
C1711  C     0.75952   0.40125   0.67153   0.00000  Uiso   1.00
H1712  H     0.78613   0.41887   0.98986   0.00000  Uiso   1.00
H1713  H     0.75669   0.36826   0.98562   0.00000  Uiso   1.00
H1714  H     0.73027   0.42061   0.99642   0.00000  Uiso   1.00
H1715  H     0.73968   0.37734   0.74180   0.00000  Uiso   1.00
H1716  H     0.76556   0.42926   0.74662   0.00000  Uiso   1.00
H1717  H     0.83543   0.39145   0.73328   0.00000  Uiso   1.00
H1718  H     0.81126   0.34382   0.71506   0.00000  Uiso   1.00
C1719  C     0.88056   0.61996   0.91213   0.00000  Uiso   1.00
C1720  C     0.85631   0.62635   0.96031   0.00000  Uiso   1.00
C1721  C     0.88108   0.60807   0.67281   0.00000  Uiso   1.00
H1722  H     0.88984   0.57281   0.99936   0.00000  Uiso   1.00
H1723  H     0.91000   0.62739   0.68084   0.00000  Uiso   1.00
H1724  H     0.86179   0.61063   0.70630   0.00000  Uiso   1.00
H1725  H     0.84984   0.66211   0.96768   0.00000  Uiso   1.00
H1726  H     0.82565   0.60967   0.95560   0.00000  Uiso   1.00
H1727  H     0.88649   0.58503   0.90370   0.00000  Uiso   1.00
H1728  H     0.91273   0.63153   0.91958   0.00000  Uiso   1.00
C1729  C     0.08686   0.83359   0.83319   0.00000  Uiso   1.00
C1730  C     0.24642   0.83311   0.83375   0.00000  Uiso   1.00
C1731  C     0.16647   0.83297   0.73982   0.00000  Uiso   1.00
C1732  C     0.16673   0.83369   0.92684   0.00000  Uiso   1.00
C1733  C     0.16644   0.83280   0.68853   0.00000  Uiso   1.00
C1734  C     0.16652   0.83384   0.97812   0.00000  Uiso   1.00
C1735  C     0.02039   0.80313   0.80247   0.00000  Uiso   1.00
C1736  C     0.31266   0.86364   0.86495   0.00000  Uiso   1.00
C1737  C     0.31083   0.80289   0.80261   0.00000  Uiso   1.00
C1738  C     0.02232   0.86378   0.86483   0.00000  Uiso   1.00
C1739  C     0.29062   0.83297   0.83401   0.00000  Uiso   1.00
C1740  C     0.04255   0.83382   0.83320   0.00000  Uiso   1.00
C1741  C     0.19307   0.69078   0.86633   0.00000  Uiso   1.00
C1742  C     0.14113   0.97602   0.80021   0.00000  Uiso   1.00
C1743  C     0.14560   0.68942   0.79567   0.00000  Uiso   1.00
C1744  C     0.19138   0.97645   0.86813   0.00000  Uiso   1.00
H1745  H     0.03602   0.77982   0.77810   0.00000  Uiso   1.00
H1746  H     0.29668   0.88678   0.88949   0.00000  Uiso   1.00
H1747  H     0.29345   0.77980   0.77797   0.00000  Uiso   1.00
H1748  H     0.03976   0.88635   0.88992   0.00000  Uiso   1.00
N1749  N     0.16667   0.95240   0.83333   0.00000  Uiso   1.00
N1750  N     0.16667   0.71427   0.83333   0.00000  Uiso   1.00
O1751  O     0.10559   0.87154   0.83333   0.00000  Uiso   1.00
O1752  O     0.22774   0.79513   0.83334   0.00000  Uiso   1.00
O1753  O     0.22774   0.87154   0.83334   0.00000  Uiso   1.00
O1754  O     0.10559   0.79513   0.83333   0.00000  Uiso   1.00
O1755  O     0.16667   0.87155   0.76178   0.00000  Uiso   1.00
O1756  O     0.16666   0.79512   0.90489   0.00000  Uiso   1.00
O1757  O     0.16666   0.87155   0.90489   0.00000  Uiso   1.00
O1758  O     0.16667   0.79512   0.76178   0.00000  Uiso   1.00
Zn1759 Zn    0.16667   0.88437   0.83333   0.00000  Uiso   1.00
Zn1760 Zn    0.16667   0.78229   0.83333   0.00000  Uiso   1.00
C1761  C     0.23006   0.71400   0.89326   0.00000  Uiso   1.00
C1762  C     0.26814   0.71453   0.86008   0.00000  Uiso   1.00
C1763  C     0.29389   0.67179   0.85926   0.00000  Uiso   1.00
H1764  H     0.30616   0.99717   0.89792   0.00000  Uiso   1.00
H1765  H     0.27532   0.97739   0.84210   0.00000  Uiso   1.00
H1766  H     0.32076   0.67660   0.83557   0.00000  Uiso   1.00
H1767  H     0.25776   0.72157   0.82047   0.00000  Uiso   1.00
H1768  H     0.28923   0.74134   0.87459   0.00000  Uiso   1.00
H1769  H     0.22184   0.74820   0.90289   0.00000  Uiso   1.00
H1770  H     0.23892   0.70094   0.93093   0.00000  Uiso   1.00
C1771  C     0.10285   0.95442   0.77482   0.00000  Uiso   1.00
C1772  C     0.06312   0.96220   0.80476   0.00000  Uiso   1.00
C1773  C     0.07106   0.96908   0.86202   0.00000  Uiso   1.00
H1774  H     0.09286   0.94362   0.87807   0.00000  Uiso   1.00
H1775  H     0.08429   0.66899   0.87071   0.00000  Uiso   1.00
H1776  H     0.04126   0.96699   0.88107   0.00000  Uiso   1.00
H1777  H     0.04593   0.99174   0.79016   0.00000  Uiso   1.00
H1778  H     0.04206   0.93365   0.79744   0.00000  Uiso   1.00
H1779  H     0.09606   0.96622   0.73609   0.00000  Uiso   1.00
H1780  H     0.10832   0.91900   0.76814   0.00000  Uiso   1.00
C1781  C     0.14120   0.70562   0.74193   0.00000  Uiso   1.00
C1782  C     0.09951   0.72941   0.72847   0.00000  Uiso   1.00
C1783  C     0.09285   0.73459   0.67153   0.00000  Uiso   1.00
H1784  H     0.11946   0.75220   0.98986   0.00000  Uiso   1.00
H1785  H     0.09002   0.70159   0.98562   0.00000  Uiso   1.00
H1786  H     0.06361   0.75394   0.99642   0.00000  Uiso   1.00
H1787  H     0.07302   0.71067   0.74180   0.00000  Uiso   1.00
H1788  H     0.09890   0.76259   0.74662   0.00000  Uiso   1.00
H1789  H     0.16877   0.72479   0.73328   0.00000  Uiso   1.00
H1790  H     0.14460   0.67716   0.71506   0.00000  Uiso   1.00
C1791  C     0.21389   0.95330   0.91213   0.00000  Uiso   1.00
C1792  C     0.18965   0.95968   0.96031   0.00000  Uiso   1.00
C1793  C     0.21441   0.94140   0.67281   0.00000  Uiso   1.00
H1794  H     0.22317   0.90614   0.99936   0.00000  Uiso   1.00
H1795  H     0.24334   0.96072   0.68084   0.00000  Uiso   1.00
H1796  H     0.19512   0.94397   0.70630   0.00000  Uiso   1.00
H1797  H     0.18317   0.99545   0.96768   0.00000  Uiso   1.00
H1798  H     0.15899   0.94300   0.95560   0.00000  Uiso   1.00
H1799  H     0.21982   0.91836   0.90370   0.00000  Uiso   1.00
H1800  H     0.24606   0.96487   0.91958   0.00000  Uiso   1.00
C1801  C     0.42020   0.83359   0.83319   0.00000  Uiso   1.00
C1802  C     0.57975   0.83311   0.83375   0.00000  Uiso   1.00
C1803  C     0.49980   0.83297   0.73982   0.00000  Uiso   1.00
C1804  C     0.50006   0.83369   0.92684   0.00000  Uiso   1.00
C1805  C     0.49977   0.83280   0.68853   0.00000  Uiso   1.00
C1806  C     0.49986   0.83384   0.97812   0.00000  Uiso   1.00
C1807  C     0.35372   0.80313   0.80247   0.00000  Uiso   1.00
C1808  C     0.64599   0.86364   0.86495   0.00000  Uiso   1.00
C1809  C     0.64416   0.80289   0.80261   0.00000  Uiso   1.00
C1810  C     0.35565   0.86378   0.86483   0.00000  Uiso   1.00
C1811  C     0.62395   0.83297   0.83401   0.00000  Uiso   1.00
C1812  C     0.37589   0.83382   0.83320   0.00000  Uiso   1.00
C1813  C     0.52641   0.69078   0.86633   0.00000  Uiso   1.00
C1814  C     0.47447   0.97602   0.80021   0.00000  Uiso   1.00
C1815  C     0.47893   0.68942   0.79567   0.00000  Uiso   1.00
C1816  C     0.52471   0.97645   0.86813   0.00000  Uiso   1.00
H1817  H     0.36935   0.77982   0.77810   0.00000  Uiso   1.00
H1818  H     0.63001   0.88678   0.88949   0.00000  Uiso   1.00
H1819  H     0.62679   0.77980   0.77797   0.00000  Uiso   1.00
H1820  H     0.37309   0.88635   0.88992   0.00000  Uiso   1.00
N1821  N     0.50000   0.95240   0.83333   0.00000  Uiso   1.00
N1822  N     0.50000   0.71427   0.83333   0.00000  Uiso   1.00
O1823  O     0.43892   0.87154   0.83333   0.00000  Uiso   1.00
O1824  O     0.56108   0.79513   0.83334   0.00000  Uiso   1.00
O1825  O     0.56108   0.87154   0.83334   0.00000  Uiso   1.00
O1826  O     0.43892   0.79513   0.83333   0.00000  Uiso   1.00
O1827  O     0.50000   0.87155   0.76178   0.00000  Uiso   1.00
O1828  O     0.50000   0.79512   0.90489   0.00000  Uiso   1.00
O1829  O     0.50000   0.87155   0.90489   0.00000  Uiso   1.00
O1830  O     0.50000   0.79512   0.76178   0.00000  Uiso   1.00
Zn1831 Zn    0.50000   0.88437   0.83333   0.00000  Uiso   1.00
Zn1832 Zn    0.50000   0.78229   0.83333   0.00000  Uiso   1.00
C1833  C     0.56340   0.71400   0.89326   0.00000  Uiso   1.00
C1834  C     0.60147   0.71453   0.86008   0.00000  Uiso   1.00
C1835  C     0.62722   0.67179   0.85926   0.00000  Uiso   1.00
H1836  H     0.63949   0.99717   0.89792   0.00000  Uiso   1.00
H1837  H     0.60866   0.97739   0.84210   0.00000  Uiso   1.00
H1838  H     0.65409   0.67660   0.83557   0.00000  Uiso   1.00
H1839  H     0.59110   0.72157   0.82047   0.00000  Uiso   1.00
H1840  H     0.62256   0.74134   0.87459   0.00000  Uiso   1.00
H1841  H     0.55517   0.74820   0.90289   0.00000  Uiso   1.00
H1842  H     0.57225   0.70094   0.93093   0.00000  Uiso   1.00
C1843  C     0.43619   0.95442   0.77482   0.00000  Uiso   1.00
C1844  C     0.39646   0.96220   0.80476   0.00000  Uiso   1.00
C1845  C     0.40439   0.96908   0.86202   0.00000  Uiso   1.00
H1846  H     0.42619   0.94362   0.87807   0.00000  Uiso   1.00
H1847  H     0.41763   0.66899   0.87071   0.00000  Uiso   1.00
H1848  H     0.37460   0.96699   0.88107   0.00000  Uiso   1.00
H1849  H     0.37926   0.99174   0.79016   0.00000  Uiso   1.00
H1850  H     0.37539   0.93365   0.79744   0.00000  Uiso   1.00
H1851  H     0.42939   0.96622   0.73609   0.00000  Uiso   1.00
H1852  H     0.44165   0.91900   0.76814   0.00000  Uiso   1.00
C1853  C     0.47453   0.70562   0.74193   0.00000  Uiso   1.00
C1854  C     0.43284   0.72941   0.72847   0.00000  Uiso   1.00
C1855  C     0.42619   0.73459   0.67153   0.00000  Uiso   1.00
H1856  H     0.45280   0.75220   0.98986   0.00000  Uiso   1.00
H1857  H     0.42336   0.70159   0.98562   0.00000  Uiso   1.00
H1858  H     0.39694   0.75394   0.99642   0.00000  Uiso   1.00
H1859  H     0.40635   0.71067   0.74180   0.00000  Uiso   1.00
H1860  H     0.43223   0.76259   0.74662   0.00000  Uiso   1.00
H1861  H     0.50210   0.72479   0.73328   0.00000  Uiso   1.00
H1862  H     0.47793   0.67716   0.71506   0.00000  Uiso   1.00
C1863  C     0.54722   0.95330   0.91213   0.00000  Uiso   1.00
C1864  C     0.52298   0.95968   0.96031   0.00000  Uiso   1.00
C1865  C     0.54774   0.94140   0.67281   0.00000  Uiso   1.00
H1866  H     0.55651   0.90614   0.99936   0.00000  Uiso   1.00
H1867  H     0.57667   0.96072   0.68084   0.00000  Uiso   1.00
H1868  H     0.52846   0.94397   0.70630   0.00000  Uiso   1.00
H1869  H     0.51650   0.99545   0.96768   0.00000  Uiso   1.00
H1870  H     0.49232   0.94300   0.95560   0.00000  Uiso   1.00
H1871  H     0.55315   0.91836   0.90370   0.00000  Uiso   1.00
H1872  H     0.57940   0.96487   0.91958   0.00000  Uiso   1.00
C1873  C     0.75353   0.83359   0.83319   0.00000  Uiso   1.00
C1874  C     0.91308   0.83311   0.83375   0.00000  Uiso   1.00
C1875  C     0.83314   0.83297   0.73982   0.00000  Uiso   1.00
C1876  C     0.83339   0.83369   0.92684   0.00000  Uiso   1.00
C1877  C     0.83310   0.83280   0.68853   0.00000  Uiso   1.00
C1878  C     0.83319   0.83384   0.97812   0.00000  Uiso   1.00
C1879  C     0.68706   0.80313   0.80247   0.00000  Uiso   1.00
C1880  C     0.97932   0.86364   0.86495   0.00000  Uiso   1.00
C1881  C     0.97749   0.80289   0.80261   0.00000  Uiso   1.00
C1882  C     0.68899   0.86378   0.86483   0.00000  Uiso   1.00
C1883  C     0.95729   0.83297   0.83401   0.00000  Uiso   1.00
C1884  C     0.70922   0.83382   0.83320   0.00000  Uiso   1.00
C1885  C     0.85974   0.69078   0.86633   0.00000  Uiso   1.00
C1886  C     0.80780   0.97602   0.80021   0.00000  Uiso   1.00
C1887  C     0.81226   0.68942   0.79567   0.00000  Uiso   1.00
C1888  C     0.85805   0.97645   0.86813   0.00000  Uiso   1.00
H1889  H     0.70269   0.77982   0.77810   0.00000  Uiso   1.00
H1890  H     0.96334   0.88678   0.88949   0.00000  Uiso   1.00
H1891  H     0.96012   0.77980   0.77797   0.00000  Uiso   1.00
H1892  H     0.70642   0.88635   0.88992   0.00000  Uiso   1.00
N1893  N     0.83333   0.95240   0.83333   0.00000  Uiso   1.00
N1894  N     0.83333   0.71427   0.83333   0.00000  Uiso   1.00
O1895  O     0.77226   0.87154   0.83333   0.00000  Uiso   1.00
O1896  O     0.89441   0.79513   0.83334   0.00000  Uiso   1.00
O1897  O     0.89441   0.87154   0.83334   0.00000  Uiso   1.00
O1898  O     0.77226   0.79513   0.83333   0.00000  Uiso   1.00
O1899  O     0.83334   0.87155   0.76178   0.00000  Uiso   1.00
O1900  O     0.83333   0.79512   0.90489   0.00000  Uiso   1.00
O1901  O     0.83333   0.87155   0.90489   0.00000  Uiso   1.00
O1902  O     0.83334   0.79512   0.76178   0.00000  Uiso   1.00
Zn1903 Zn    0.83333   0.88437   0.83333   0.00000  Uiso   1.00
Zn1904 Zn    0.83333   0.78229   0.83333   0.00000  Uiso   1.00
C1905  C     0.89673   0.71400   0.89326   0.00000  Uiso   1.00
C1906  C     0.93481   0.71453   0.86008   0.00000  Uiso   1.00
C1907  C     0.96055   0.67179   0.85926   0.00000  Uiso   1.00
H1908  H     0.97283   0.99717   0.89792   0.00000  Uiso   1.00
H1909  H     0.94199   0.97739   0.84210   0.00000  Uiso   1.00
H1910  H     0.98743   0.67660   0.83557   0.00000  Uiso   1.00
H1911  H     0.92443   0.72157   0.82047   0.00000  Uiso   1.00
H1912  H     0.95590   0.74134   0.87459   0.00000  Uiso   1.00
H1913  H     0.88851   0.74820   0.90289   0.00000  Uiso   1.00
H1914  H     0.90559   0.70094   0.93093   0.00000  Uiso   1.00
C1915  C     0.76952   0.95442   0.77482   0.00000  Uiso   1.00
C1916  C     0.72979   0.96220   0.80476   0.00000  Uiso   1.00
C1917  C     0.73773   0.96908   0.86202   0.00000  Uiso   1.00
H1918  H     0.75952   0.94362   0.87807   0.00000  Uiso   1.00
H1919  H     0.75096   0.66899   0.87071   0.00000  Uiso   1.00
H1920  H     0.70793   0.96699   0.88107   0.00000  Uiso   1.00
H1921  H     0.71260   0.99174   0.79016   0.00000  Uiso   1.00
H1922  H     0.70873   0.93365   0.79744   0.00000  Uiso   1.00
H1923  H     0.76273   0.96622   0.73609   0.00000  Uiso   1.00
H1924  H     0.77498   0.91900   0.76814   0.00000  Uiso   1.00
C1925  C     0.80786   0.70562   0.74193   0.00000  Uiso   1.00
C1926  C     0.76618   0.72941   0.72847   0.00000  Uiso   1.00
C1927  C     0.75952   0.73459   0.67153   0.00000  Uiso   1.00
H1928  H     0.78613   0.75220   0.98986   0.00000  Uiso   1.00
H1929  H     0.75669   0.70159   0.98562   0.00000  Uiso   1.00
H1930  H     0.73027   0.75394   0.99642   0.00000  Uiso   1.00
H1931  H     0.73968   0.71067   0.74180   0.00000  Uiso   1.00
H1932  H     0.76556   0.76259   0.74662   0.00000  Uiso   1.00
H1933  H     0.83543   0.72479   0.73328   0.00000  Uiso   1.00
H1934  H     0.81126   0.67716   0.71506   0.00000  Uiso   1.00
C1935  C     0.88056   0.95330   0.91213   0.00000  Uiso   1.00
C1936  C     0.85631   0.95968   0.96031   0.00000  Uiso   1.00
C1937  C     0.88108   0.94140   0.67281   0.00000  Uiso   1.00
H1938  H     0.88984   0.90614   0.99936   0.00000  Uiso   1.00
H1939  H     0.91000   0.96072   0.68084   0.00000  Uiso   1.00
H1940  H     0.86179   0.94397   0.70630   0.00000  Uiso   1.00
H1941  H     0.84984   0.99545   0.96768   0.00000  Uiso   1.00
H1942  H     0.82565   0.94300   0.95560   0.00000  Uiso   1.00
H1943  H     0.88649   0.91836   0.90370   0.00000  Uiso   1.00
H1944  H     0.91273   0.96487   0.91958   0.00000  Uiso   1.00
loop_
_geom_bond_atom_site_label_1
_geom_bond_atom_site_label_2
_geom_bond_distance
_geom_bond_site_symmetry_2
_ccdc_geom_bond_type
C1     C12     1.418   .     S
C1     O23     1.303   .     A
C1     O26     1.298   .     A
C2     O25     1.297   .     A
C2     O24     1.303   .     A
C2     C11     1.414   .     S
C3     O30     1.298   .     A
C3     C5      1.362   .     S
C3     O27     1.290   .     A
C4     C6      1.362   .     S
C4     O28     1.290   .     A
C4     O29     1.298   .     A
C5     C1302   1.163   1_554 S
C6     C653    1.163   .     S
C7     C12     1.396   .     A
C7     H17     1.079   .     S
C7     C153    1.373   1_455 S
C8     C11     1.397   .     A
C8     H18     1.084   .     S
C8     C82     1.376   .     S
C9     C11     1.392   .     A
C9     H19     1.084   .     S
C9     C79     1.373   .     S
C10    C12     1.394   .     A
C10    H20     1.082   .     S
C10    C152    1.376   1_455 S
C13    C33     1.522   .     S
C13    N22     1.385   .     A
C13    C448    1.444   1_545 S
C14    N21     1.373   .     A
C14    C43     1.515   .     S
C14    C231    1.431   .     S
C15    C53     1.520   .     S
C15    N22     1.387   .     A
C15    C446    1.431   1_545 S
C16    N21     1.383   .     A
C16    C63     1.520   .     S
C16    C229    1.444   .     S
N21    Zn31    2.056   .     S
N22    Zn32    2.056   .     S
O23    Zn31    1.999   .     S
O24    Zn32    1.999   .     S
O25    Zn31    1.986   .     S
O26    Zn32    1.986   .     S
O27    Zn31    1.930   .     S
O28    Zn32    1.930   .     S
O29    Zn31    1.950   .     S
O30    Zn32    1.950   .     S
C33    H41     1.089   .     S
C33    C34     1.543   .     S
C33    H42     1.106   .     S
C34    H40     1.111   .     S
C34    C35     1.520   .     S
C34    H39     1.111   .     S
C35    H38     1.107   .     S
C35    H468    1.110   1_545 S
C35    H469    1.109   1_545 S
H36    C251    1.110   .     S
H37    C251    1.109   .     S
C43    C44     1.547   .     S
C43    H51     1.107   .     S
C43    H52     1.093   .     S
C44    H49     1.108   .     S
C44    C45     1.538   .     S
C44    H50     1.111   .     S
C45    H48     1.107   .     S
C45    H46     1.107   .     S
C45    H263    1.111   .     S
H47    C477    1.111   1_545 S
C53    H62     1.111   .     S
C53    H61     1.102   .     S
C53    C54     1.534   .     S
C54    H60     1.101   .     S
C54    H59     1.107   .     S
C54    C55     1.528   .     S
C55    H1352   1.110   1_554 S
C55    H1353   1.111   1_554 S
C55    H1354   1.110   1_554 S
H56    C703    1.110   .     S
H57    C703    1.111   .     S
H58    C703    1.110   .     S
C63    H71     1.089   .     S
C63    C64     1.538   .     S
C63    H72     1.099   .     S
C64    H70     1.110   .     S
C64    H69     1.111   .     S
C64    C713    1.527   .     S
C65    H68     1.110   .     S
C65    H67     1.111   .     S
C65    C1360   1.527   1_554 S
C65    H1362   1.110   1_554 S
H66    C713    1.110   .     S
C73    C84     1.418   .     S
C73    O95     1.303   .     A
C73    O98     1.298   .     A
C74    O97     1.297   .     A
C74    O96     1.303   .     A
C74    C83     1.414   .     S
C75    O102    1.298   .     A
C75    C77     1.362   .     S
C75    O99     1.290   .     A
C76    C78     1.362   .     S
C76    O100    1.290   .     A
C76    O101    1.298   .     A
C77    C1374   1.163   1_554 S
C78    C725    1.163   .     S
C79    C84     1.396   .     A
C79    H89     1.079   .     S
C80    C83     1.397   .     A
C80    H90     1.084   .     S
C80    C154    1.376   .     S
C81    C83     1.392   .     A
C81    H91     1.084   .     S
C81    C151    1.373   .     S
C82    C84     1.394   .     A
C82    H92     1.082   .     S
C85    C105    1.522   .     S
C85    N94     1.385   .     A
C85    C520    1.444   1_545 S
C86    N93     1.373   .     A
C86    C115    1.515   .     S
C86    C303    1.431   .     S
C87    C125    1.520   .     S
C87    N94     1.387   .     A
C87    C518    1.431   1_545 S
C88    N93     1.383   .     A
C88    C135    1.520   .     S
C88    C301    1.444   .     S
N93    Zn103   2.056   .     S
N94    Zn104   2.056   .     S
O95    Zn103   1.999   .     S
O96    Zn104   1.999   .     S
O97    Zn103   1.986   .     S
O98    Zn104   1.986   .     S
O99    Zn103   1.930   .     S
O100   Zn104   1.930   .     S
O101   Zn103   1.950   .     S
O102   Zn104   1.950   .     S
C105   H113    1.089   .     S
C105   C106    1.543   .     S
C105   H114    1.106   .     S
C106   H112    1.111   .     S
C106   C107    1.520   .     S
C106   H111    1.111   .     S
C107   H110    1.107   .     S
C107   H540    1.110   1_545 S
C107   H541    1.109   1_545 S
H108   C323    1.110   .     S
H109   C323    1.109   .     S
C115   C116    1.547   .     S
C115   H123    1.107   .     S
C115   H124    1.093   .     S
C116   H121    1.108   .     S
C116   C117    1.538   .     S
C116   H122    1.111   .     S
C117   H120    1.107   .     S
C117   H118    1.107   .     S
C117   H335    1.111   .     S
H119   C549    1.111   1_545 S
C125   H134    1.111   .     S
C125   H133    1.102   .     S
C125   C126    1.534   .     S
C126   H132    1.101   .     S
C126   H131    1.107   .     S
C126   C127    1.528   .     S
C127   H1424   1.110   1_554 S
C127   H1425   1.111   1_554 S
C127   H1426   1.110   1_554 S
H128   C775    1.110   .     S
H129   C775    1.111   .     S
H130   C775    1.110   .     S
C135   H143    1.089   .     S
C135   C136    1.538   .     S
C135   H144    1.099   .     S
C136   H142    1.110   .     S
C136   H141    1.111   .     S
C136   C785    1.527   .     S
C137   H140    1.110   .     S
C137   H139    1.111   .     S
C137   C1432   1.527   1_554 S
C137   H1434   1.110   1_554 S
H138   C785    1.110   .     S
C145   C156    1.418   .     S
C145   O167    1.303   .     A
C145   O170    1.298   .     A
C146   O169    1.297   .     A
C146   O168    1.303   .     A
C146   C155    1.414   .     S
C147   O174    1.298   .     A
C147   C149    1.362   .     S
C147   O171    1.290   .     A
C148   C150    1.362   .     S
C148   O172    1.290   .     A
C148   O173    1.298   .     A
C149   C1446   1.163   1_554 S
C150   C797    1.163   .     S
C151   C156    1.396   .     A
C151   H161    1.079   .     S
C152   C155    1.397   .     A
C152   H162    1.084   .     S
C152   C10     1.376   1_655 S
C153   C155    1.392   .     A
C153   H163    1.084   .     S
C153   C7      1.373   1_655 S
C154   C156    1.394   .     A
C154   H164    1.082   .     S
C157   C177    1.522   .     S
C157   N166    1.385   .     A
C157   C592    1.444   1_545 S
C158   N165    1.373   .     A
C158   C187    1.515   .     S
C158   C375    1.431   .     S
C159   C197    1.520   .     S
C159   N166    1.387   .     A
C159   C590    1.431   1_545 S
C160   N165    1.383   .     A
C160   C207    1.520   .     S
C160   C373    1.444   .     S
N165   Zn175   2.056   .     S
N166   Zn176   2.056   .     S
O167   Zn175   1.999   .     S
O168   Zn176   1.999   .     S
O169   Zn175   1.986   .     S
O170   Zn176   1.986   .     S
O171   Zn175   1.930   .     S
O172   Zn176   1.930   .     S
O173   Zn175   1.950   .     S
O174   Zn176   1.950   .     S
C177   H185    1.089   .     S
C177   C178    1.543   .     S
C177   H186    1.106   .     S
C178   H184    1.111   .     S
C178   C179    1.520   .     S
C178   H183    1.111   .     S
C179   H182    1.107   .     S
C179   H612    1.110   1_545 S
C179   H613    1.109   1_545 S
H180   C395    1.110   .     S
H181   C395    1.109   .     S
C187   C188    1.547   .     S
C187   H195    1.107   .     S
C187   H196    1.093   .     S
C188   H193    1.108   .     S
C188   C189    1.538   .     S
C188   H194    1.111   .     S
C189   H192    1.107   .     S
C189   H190    1.107   .     S
C189   H407    1.111   .     S
H191   C621    1.111   1_545 S
C197   H206    1.111   .     S
C197   H205    1.102   .     S
C197   C198    1.534   .     S
C198   H204    1.101   .     S
C198   H203    1.107   .     S
C198   C199    1.528   .     S
C199   H1496   1.110   1_554 S
C199   H1497   1.111   1_554 S
C199   H1498   1.110   1_554 S
H200   C847    1.110   .     S
H201   C847    1.111   .     S
H202   C847    1.110   .     S
C207   H215    1.089   .     S
C207   C208    1.538   .     S
C207   H216    1.099   .     S
C208   H214    1.110   .     S
C208   H213    1.111   .     S
C208   C857    1.527   .     S
C209   H212    1.110   .     S
C209   H211    1.111   .     S
C209   C1504   1.527   1_554 S
C209   H1506   1.110   1_554 S
H210   C857    1.110   .     S
C217   C228    1.418   .     S
C217   O239    1.303   .     A
C217   O242    1.298   .     A
C218   O241    1.297   .     A
C218   O240    1.303   .     A
C218   C227    1.414   .     S
C219   O246    1.298   .     A
C219   C221    1.362   .     S
C219   O243    1.290   .     A
C220   C222    1.362   .     S
C220   O244    1.290   .     A
C220   O245    1.298   .     A
C221   C1518   1.163   1_554 S
C222   C869    1.163   .     S
C223   C228    1.396   .     A
C223   H233    1.079   .     S
C223   C369    1.373   1_455 S
C224   C227    1.397   .     A
C224   H234    1.084   .     S
C224   C298    1.376   .     S
C225   C227    1.392   .     A
C225   H235    1.084   .     S
C225   C295    1.373   .     S
C226   C228    1.394   .     A
C226   H236    1.082   .     S
C226   C368    1.376   1_455 S
C229   C249    1.522   .     S
C229   N238    1.385   .     A
C230   N237    1.373   .     A
C230   C259    1.515   .     S
C230   C447    1.431   .     S
C231   C269    1.520   .     S
C231   N238    1.387   .     A
C232   N237    1.383   .     A
C232   C279    1.520   .     S
C232   C445    1.444   .     S
N237   Zn247   2.056   .     S
N238   Zn248   2.056   .     S
O239   Zn247   1.999   .     S
O240   Zn248   1.999   .     S
O241   Zn247   1.986   .     S
O242   Zn248   1.986   .     S
O243   Zn247   1.930   .     S
O244   Zn248   1.930   .     S
O245   Zn247   1.950   .     S
O246   Zn248   1.950   .     S
C249   H257    1.089   .     S
C249   C250    1.543   .     S
C249   H258    1.106   .     S
C250   H256    1.111   .     S
C250   C251    1.520   .     S
C250   H255    1.111   .     S
C251   H254    1.107   .     S
H252   C467    1.110   .     S
H253   C467    1.109   .     S
C259   C260    1.547   .     S
C259   H267    1.107   .     S
C259   H268    1.093   .     S
C260   H265    1.108   .     S
C260   C261    1.538   .     S
C260   H266    1.111   .     S
C261   H264    1.107   .     S
C261   H262    1.107   .     S
C261   H479    1.111   .     S
C269   H278    1.111   .     S
C269   H277    1.102   .     S
C269   C270    1.534   .     S
C270   H276    1.101   .     S
C270   H275    1.107   .     S
C270   C271    1.528   .     S
C271   H1568   1.110   1_554 S
C271   H1569   1.111   1_554 S
C271   H1570   1.110   1_554 S
H272   C919    1.110   .     S
H273   C919    1.111   .     S
H274   C919    1.110   .     S
C279   H287    1.089   .     S
C279   C280    1.538   .     S
C279   H288    1.099   .     S
C280   H286    1.110   .     S
C280   H285    1.111   .     S
C280   C929    1.527   .     S
C281   H284    1.110   .     S
C281   H283    1.111   .     S
C281   C1576   1.527   1_554 S
C281   H1578   1.110   1_554 S
H282   C929    1.110   .     S
C289   C300    1.418   .     S
C289   O311    1.303   .     A
C289   O314    1.298   .     A
C290   O313    1.297   .     A
C290   O312    1.303   .     A
C290   C299    1.414   .     S
C291   O318    1.298   .     A
C291   C293    1.362   .     S
C291   O315    1.290   .     A
C292   C294    1.362   .     S
C292   O316    1.290   .     A
C292   O317    1.298   .     A
C293   C1590   1.163   1_554 S
C294   C941    1.163   .     S
C295   C300    1.396   .     A
C295   H305    1.079   .     S
C296   C299    1.397   .     A
C296   H306    1.084   .     S
C296   C370    1.376   .     S
C297   C299    1.392   .     A
C297   H307    1.084   .     S
C297   C367    1.373   .     S
C298   C300    1.394   .     A
C298   H308    1.082   .     S
C301   C321    1.522   .     S
C301   N310    1.385   .     A
C302   N309    1.373   .     A
C302   C331    1.515   .     S
C302   C519    1.431   .     S
C303   C341    1.520   .     S
C303   N310    1.387   .     A
C304   N309    1.383   .     A
C304   C351    1.520   .     S
C304   C517    1.444   .     S
N309   Zn319   2.056   .     S
N310   Zn320   2.056   .     S
O311   Zn319   1.999   .     S
O312   Zn320   1.999   .     S
O313   Zn319   1.986   .     S
O314   Zn320   1.986   .     S
O315   Zn319   1.930   .     S
O316   Zn320   1.930   .     S
O317   Zn319   1.950   .     S
O318   Zn320   1.950   .     S
C321   H329    1.089   .     S
C321   C322    1.543   .     S
C321   H330    1.106   .     S
C322   H328    1.111   .     S
C322   C323    1.520   .     S
C322   H327    1.111   .     S
C323   H326    1.107   .     S
H324   C539    1.110   .     S
H325   C539    1.109   .     S
C331   C332    1.547   .     S
C331   H339    1.107   .     S
C331   H340    1.093   .     S
C332   H337    1.108   .     S
C332   C333    1.538   .     S
C332   H338    1.111   .     S
C333   H336    1.107   .     S
C333   H334    1.107   .     S
C333   H551    1.111   .     S
C341   H350    1.111   .     S
C341   H349    1.102   .     S
C341   C342    1.534   .     S
C342   H348    1.101   .     S
C342   H347    1.107   .     S
C342   C343    1.528   .     S
C343   H1640   1.110   1_554 S
C343   H1641   1.111   1_554 S
C343   H1642   1.110   1_554 S
H344   C991    1.110   .     S
H345   C991    1.111   .     S
H346   C991    1.110   .     S
C351   H359    1.089   .     S
C351   C352    1.538   .     S
C351   H360    1.099   .     S
C352   H358    1.110   .     S
C352   H357    1.111   .     S
C352   C1001   1.527   .     S
C353   H356    1.110   .     S
C353   H355    1.111   .     S
C353   C1648   1.527   1_554 S
C353   H1650   1.110   1_554 S
H354   C1001   1.110   .     S
C361   C372    1.418   .     S
C361   O383    1.303   .     A
C361   O386    1.298   .     A
C362   O385    1.297   .     A
C362   O384    1.303   .     A
C362   C371    1.414   .     S
C363   O390    1.298   .     A
C363   C365    1.362   .     S
C363   O387    1.290   .     A
C364   C366    1.362   .     S
C364   O388    1.290   .     A
C364   O389    1.298   .     A
C365   C1662   1.163   1_554 S
C366   C1013   1.163   .     S
C367   C372    1.396   .     A
C367   H377    1.079   .     S
C368   C371    1.397   .     A
C368   H378    1.084   .     S
C368   C226    1.376   1_655 S
C369   C371    1.392   .     A
C369   H379    1.084   .     S
C369   C223    1.373   1_655 S
C370   C372    1.394   .     A
C370   H380    1.082   .     S
C373   C393    1.522   .     S
C373   N382    1.385   .     A
C374   N381    1.373   .     A
C374   C403    1.515   .     S
C374   C591    1.431   .     S
C375   C413    1.520   .     S
C375   N382    1.387   .     A
C376   N381    1.383   .     A
C376   C423    1.520   .     S
C376   C589    1.444   .     S
N381   Zn391   2.056   .     S
N382   Zn392   2.056   .     S
O383   Zn391   1.999   .     S
O384   Zn392   1.999   .     S
O385   Zn391   1.986   .     S
O386   Zn392   1.986   .     S
O387   Zn391   1.930   .     S
O388   Zn392   1.930   .     S
O389   Zn391   1.950   .     S
O390   Zn392   1.950   .     S
C393   H401    1.089   .     S
C393   C394    1.543   .     S
C393   H402    1.106   .     S
C394   H400    1.111   .     S
C394   C395    1.520   .     S
C394   H399    1.111   .     S
C395   H398    1.107   .     S
H396   C611    1.110   .     S
H397   C611    1.109   .     S
C403   C404    1.547   .     S
C403   H411    1.107   .     S
C403   H412    1.093   .     S
C404   H409    1.108   .     S
C404   C405    1.538   .     S
C404   H410    1.111   .     S
C405   H408    1.107   .     S
C405   H406    1.107   .     S
C405   H623    1.111   .     S
C413   H422    1.111   .     S
C413   H421    1.102   .     S
C413   C414    1.534   .     S
C414   H420    1.101   .     S
C414   H419    1.107   .     S
C414   C415    1.528   .     S
C415   H1712   1.110   1_554 S
C415   H1713   1.111   1_554 S
C415   H1714   1.110   1_554 S
H416   C1063   1.110   .     S
H417   C1063   1.111   .     S
H418   C1063   1.110   .     S
C423   H431    1.089   .     S
C423   C424    1.538   .     S
C423   H432    1.099   .     S
C424   H430    1.110   .     S
C424   H429    1.111   .     S
C424   C1073   1.527   .     S
C425   H428    1.110   .     S
C425   H427    1.111   .     S
C425   C1720   1.527   1_554 S
C425   H1722   1.110   1_554 S
H426   C1073   1.110   .     S
C433   C444    1.418   .     S
C433   O455    1.303   .     A
C433   O458    1.298   .     A
C434   O457    1.297   .     A
C434   O456    1.303   .     A
C434   C443    1.414   .     S
C435   O462    1.298   .     A
C435   C437    1.362   .     S
C435   O459    1.290   .     A
C436   C438    1.362   .     S
C436   O460    1.290   .     A
C436   O461    1.298   .     A
C437   C1734   1.163   1_554 S
C438   C1085   1.163   .     S
C439   C444    1.396   .     A
C439   H449    1.079   .     S
C439   C585    1.373   1_455 S
C440   C443    1.397   .     A
C440   H450    1.084   .     S
C440   C514    1.376   .     S
C441   C443    1.392   .     A
C441   H451    1.084   .     S
C441   C511    1.373   .     S
C442   C444    1.394   .     A
C442   H452    1.082   .     S
C442   C584    1.376   1_455 S
C445   C465    1.522   .     S
C445   N454    1.385   .     A
C446   N453    1.373   .     A
C446   C475    1.515   .     S
C446   C15     1.431   1_565 S
C447   C485    1.520   .     S
C447   N454    1.387   .     A
C448   N453    1.383   .     A
C448   C495    1.520   .     S
C448   C13     1.444   1_565 S
N453   Zn463   2.056   .     S
N454   Zn464   2.056   .     S
O455   Zn463   1.999   .     S
O456   Zn464   1.999   .     S
O457   Zn463   1.986   .     S
O458   Zn464   1.986   .     S
O459   Zn463   1.930   .     S
O460   Zn464   1.930   .     S
O461   Zn463   1.950   .     S
O462   Zn464   1.950   .     S
C465   H473    1.089   .     S
C465   C466    1.543   .     S
C465   H474    1.106   .     S
C466   H472    1.111   .     S
C466   C467    1.520   .     S
C466   H471    1.111   .     S
C467   H470    1.107   .     S
H468   C35     1.110   1_565 S
H469   C35     1.109   1_565 S
C475   C476    1.547   .     S
C475   H483    1.107   .     S
C475   H484    1.093   .     S
C476   H481    1.108   .     S
C476   C477    1.538   .     S
C476   H482    1.111   .     S
C477   H480    1.107   .     S
C477   H478    1.107   .     S
C477   H47     1.111   1_565 S
C485   H494    1.111   .     S
C485   H493    1.102   .     S
C485   C486    1.534   .     S
C486   H492    1.101   .     S
C486   H491    1.107   .     S
C486   C487    1.528   .     S
C487   H1784   1.110   1_554 S
C487   H1785   1.111   1_554 S
C487   H1786   1.110   1_554 S
H488   C1135   1.110   .     S
H489   C1135   1.111   .     S
H490   C1135   1.110   .     S
C495   H503    1.089   .     S
C495   C496    1.538   .     S
C495   H504    1.099   .     S
C496   H502    1.110   .     S
C496   H501    1.111   .     S
C496   C1145   1.527   .     S
C497   H500    1.110   .     S
C497   H499    1.111   .     S
C497   C1792   1.527   1_554 S
C497   H1794   1.110   1_554 S
H498   C1145   1.110   .     S
C505   C516    1.418   .     S
C505   O527    1.303   .     A
C505   O530    1.298   .     A
C506   O529    1.297   .     A
C506   O528    1.303   .     A
C506   C515    1.414   .     S
C507   O534    1.298   .     A
C507   C509    1.362   .     S
C507   O531    1.290   .     A
C508   C510    1.362   .     S
C508   O532    1.290   .     A
C508   O533    1.298   .     A
C509   C1806   1.163   1_554 S
C510   C1157   1.163   .     S
C511   C516    1.396   .     A
C511   H521    1.079   .     S
C512   C515    1.397   .     A
C512   H522    1.084   .     S
C512   C586    1.376   .     S
C513   C515    1.392   .     A
C513   H523    1.084   .     S
C513   C583    1.373   .     S
C514   C516    1.394   .     A
C514   H524    1.082   .     S
C517   C537    1.522   .     S
C517   N526    1.385   .     A
C518   N525    1.373   .     A
C518   C547    1.515   .     S
C518   C87     1.431   1_565 S
C519   C557    1.520   .     S
C519   N526    1.387   .     A
C520   N525    1.383   .     A
C520   C567    1.520   .     S
C520   C85     1.444   1_565 S
N525   Zn535   2.056   .     S
N526   Zn536   2.056   .     S
O527   Zn535   1.999   .     S
O528   Zn536   1.999   .     S
O529   Zn535   1.986   .     S
O530   Zn536   1.986   .     S
O531   Zn535   1.930   .     S
O532   Zn536   1.930   .     S
O533   Zn535   1.950   .     S
O534   Zn536   1.950   .     S
C537   H545    1.089   .     S
C537   C538    1.543   .     S
C537   H546    1.106   .     S
C538   H544    1.111   .     S
C538   C539    1.520   .     S
C538   H543    1.111   .     S
C539   H542    1.107   .     S
H540   C107    1.110   1_565 S
H541   C107    1.109   1_565 S
C547   C548    1.547   .     S
C547   H555    1.107   .     S
C547   H556    1.093   .     S
C548   H553    1.108   .     S
C548   C549    1.538   .     S
C548   H554    1.111   .     S
C549   H552    1.107   .     S
C549   H550    1.107   .     S
C549   H119    1.111   1_565 S
C557   H566    1.111   .     S
C557   H565    1.102   .     S
C557   C558    1.534   .     S
C558   H564    1.101   .     S
C558   H563    1.107   .     S
C558   C559    1.528   .     S
C559   H1856   1.110   1_554 S
C559   H1857   1.111   1_554 S
C559   H1858   1.110   1_554 S
H560   C1207   1.110   .     S
H561   C1207   1.111   .     S
H562   C1207   1.110   .     S
C567   H575    1.089   .     S
C567   C568    1.538   .     S
C567   H576    1.099   .     S
C568   H574    1.110   .     S
C568   H573    1.111   .     S
C568   C1217   1.527   .     S
C569   H572    1.110   .     S
C569   H571    1.111   .     S
C569   C1864   1.527   1_554 S
C569   H1866   1.110   1_554 S
H570   C1217   1.110   .     S
C577   C588    1.418   .     S
C577   O599    1.303   .     A
C577   O602    1.298   .     A
C578   O601    1.297   .     A
C578   O600    1.303   .     A
C578   C587    1.414   .     S
C579   O606    1.298   .     A
C579   C581    1.362   .     S
C579   O603    1.290   .     A
C580   C582    1.362   .     S
C580   O604    1.290   .     A
C580   O605    1.298   .     A
C581   C1878   1.163   1_554 S
C582   C1229   1.163   .     S
C583   C588    1.396   .     A
C583   H593    1.079   .     S
C584   C587    1.397   .     A
C584   H594    1.084   .     S
C584   C442    1.376   1_655 S
C585   C587    1.392   .     A
C585   H595    1.084   .     S
C585   C439    1.373   1_655 S
C586   C588    1.394   .     A
C586   H596    1.082   .     S
C589   C609    1.522   .     S
C589   N598    1.385   .     A
C590   N597    1.373   .     A
C590   C619    1.515   .     S
C590   C159    1.431   1_565 S
C591   C629    1.520   .     S
C591   N598    1.387   .     A
C592   N597    1.383   .     A
C592   C639    1.520   .     S
C592   C157    1.444   1_565 S
N597   Zn607   2.056   .     S
N598   Zn608   2.056   .     S
O599   Zn607   1.999   .     S
O600   Zn608   1.999   .     S
O601   Zn607   1.986   .     S
O602   Zn608   1.986   .     S
O603   Zn607   1.930   .     S
O604   Zn608   1.930   .     S
O605   Zn607   1.950   .     S
O606   Zn608   1.950   .     S
C609   H617    1.089   .     S
C609   C610    1.543   .     S
C609   H618    1.106   .     S
C610   H616    1.111   .     S
C610   C611    1.520   .     S
C610   H615    1.111   .     S
C611   H614    1.107   .     S
H612   C179    1.110   1_565 S
H613   C179    1.109   1_565 S
C619   C620    1.547   .     S
C619   H627    1.107   .     S
C619   H628    1.093   .     S
C620   H625    1.108   .     S
C620   C621    1.538   .     S
C620   H626    1.111   .     S
C621   H624    1.107   .     S
C621   H622    1.107   .     S
C621   H191    1.111   1_565 S
C629   H638    1.111   .     S
C629   H637    1.102   .     S
C629   C630    1.534   .     S
C630   H636    1.101   .     S
C630   H635    1.107   .     S
C630   C631    1.528   .     S
C631   H1928   1.110   1_554 S
C631   H1929   1.111   1_554 S
C631   H1930   1.110   1_554 S
H632   C1279   1.110   .     S
H633   C1279   1.111   .     S
H634   C1279   1.110   .     S
C639   H647    1.089   .     S
C639   C640    1.538   .     S
C639   H648    1.099   .     S
C640   H646    1.110   .     S
C640   H645    1.111   .     S
C640   C1289   1.527   .     S
C641   H644    1.110   .     S
C641   H643    1.111   .     S
C641   C1936   1.527   1_554 S
C641   H1938   1.110   1_554 S
H642   C1289   1.110   .     S
C649   C660    1.418   .     S
C649   O671    1.303   .     A
C649   O674    1.298   .     A
C650   O673    1.297   .     A
C650   O672    1.303   .     A
C650   C659    1.414   .     S
C651   O678    1.298   .     A
C651   C653    1.362   .     S
C651   O675    1.290   .     A
C652   C654    1.362   .     S
C652   O676    1.290   .     A
C652   O677    1.298   .     A
C654   C1301   1.163   .     S
C655   C660    1.396   .     A
C655   H665    1.079   .     S
C655   C801    1.373   1_455 S
C656   C659    1.397   .     A
C656   H666    1.084   .     S
C656   C730    1.376   .     S
C657   C659    1.392   .     A
C657   H667    1.084   .     S
C657   C727    1.373   .     S
C658   C660    1.394   .     A
C658   H668    1.082   .     S
C658   C800    1.376   1_455 S
C661   C681    1.522   .     S
C661   N670    1.385   .     A
C661   C1096   1.444   1_545 S
C662   N669    1.373   .     A
C662   C691    1.515   .     S
C662   C879    1.431   .     S
C663   C701    1.520   .     S
C663   N670    1.387   .     A
C663   C1094   1.431   1_545 S
C664   N669    1.383   .     A
C664   C711    1.520   .     S
C664   C877    1.444   .     S
N669   Zn679   2.056   .     S
N670   Zn680   2.056   .     S
O671   Zn679   1.999   .     S
O672   Zn680   1.999   .     S
O673   Zn679   1.986   .     S
O674   Zn680   1.986   .     S
O675   Zn679   1.930   .     S
O676   Zn680   1.930   .     S
O677   Zn679   1.950   .     S
O678   Zn680   1.950   .     S
C681   H689    1.089   .     S
C681   C682    1.543   .     S
C681   H690    1.106   .     S
C682   H688    1.111   .     S
C682   C683    1.520   .     S
C682   H687    1.111   .     S
C683   H686    1.107   .     S
C683   H1116   1.110   1_545 S
C683   H1117   1.109   1_545 S
H684   C899    1.110   .     S
H685   C899    1.109   .     S
C691   C692    1.547   .     S
C691   H699    1.107   .     S
C691   H700    1.093   .     S
C692   H697    1.108   .     S
C692   C693    1.538   .     S
C692   H698    1.111   .     S
C693   H696    1.107   .     S
C693   H694    1.107   .     S
C693   H911    1.111   .     S
H695   C1125   1.111   1_545 S
C701   H710    1.111   .     S
C701   H709    1.102   .     S
C701   C702    1.534   .     S
C702   H708    1.101   .     S
C702   H707    1.107   .     S
C702   C703    1.528   .     S
H704   C1351   1.110   .     S
H705   C1351   1.111   .     S
H706   C1351   1.110   .     S
C711   H719    1.089   .     S
C711   C712    1.538   .     S
C711   H720    1.099   .     S
C712   H718    1.110   .     S
C712   H717    1.111   .     S
C712   C1361   1.527   .     S
C713   H716    1.110   .     S
C713   H715    1.111   .     S
H714   C1361   1.110   .     S
C721   C732    1.418   .     S
C721   O743    1.303   .     A
C721   O746    1.298   .     A
C722   O745    1.297   .     A
C722   O744    1.303   .     A
C722   C731    1.414   .     S
C723   O750    1.298   .     A
C723   C725    1.362   .     S
C723   O747    1.290   .     A
C724   C726    1.362   .     S
C724   O748    1.290   .     A
C724   O749    1.298   .     A
C726   C1373   1.163   .     S
C727   C732    1.396   .     A
C727   H737    1.079   .     S
C728   C731    1.397   .     A
C728   H738    1.084   .     S
C728   C802    1.376   .     S
C729   C731    1.392   .     A
C729   H739    1.084   .     S
C729   C799    1.373   .     S
C730   C732    1.394   .     A
C730   H740    1.082   .     S
C733   C753    1.522   .     S
C733   N742    1.385   .     A
C733   C1168   1.444   1_545 S
C734   N741    1.373   .     A
C734   C763    1.515   .     S
C734   C951    1.431   .     S
C735   C773    1.520   .     S
C735   N742    1.387   .     A
C735   C1166   1.431   1_545 S
C736   N741    1.383   .     A
C736   C783    1.520   .     S
C736   C949    1.444   .     S
N741   Zn751   2.056   .     S
N742   Zn752   2.056   .     S
O743   Zn751   1.999   .     S
O744   Zn752   1.999   .     S
O745   Zn751   1.986   .     S
O746   Zn752   1.986   .     S
O747   Zn751   1.930   .     S
O748   Zn752   1.930   .     S
O749   Zn751   1.950   .     S
O750   Zn752   1.950   .     S
C753   H761    1.089   .     S
C753   C754    1.543   .     S
C753   H762    1.106   .     S
C754   H760    1.111   .     S
C754   C755    1.520   .     S
C754   H759    1.111   .     S
C755   H758    1.107   .     S
C755   H1188   1.110   1_545 S
C755   H1189   1.109   1_545 S
H756   C971    1.110   .     S
H757   C971    1.109   .     S
C763   C764    1.547   .     S
C763   H771    1.107   .     S
C763   H772    1.093   .     S
C764   H769    1.108   .     S
C764   C765    1.538   .     S
C764   H770    1.111   .     S
C765   H768    1.107   .     S
C765   H766    1.107   .     S
C765   H983    1.111   .     S
H767   C1197   1.111   1_545 S
C773   H782    1.111   .     S
C773   H781    1.102   .     S
C773   C774    1.534   .     S
C774   H780    1.101   .     S
C774   H779    1.107   .     S
C774   C775    1.528   .     S
H776   C1423   1.110   .     S
H777   C1423   1.111   .     S
H778   C1423   1.110   .     S
C783   H791    1.089   .     S
C783   C784    1.538   .     S
C783   H792    1.099   .     S
C784   H790    1.110   .     S
C784   H789    1.111   .     S
C784   C1433   1.527   .     S
C785   H788    1.110   .     S
C785   H787    1.111   .     S
H786   C1433   1.110   .     S
C793   C804    1.418   .     S
C793   O815    1.303   .     A
C793   O818    1.298   .     A
C794   O817    1.297   .     A
C794   O816    1.303   .     A
C794   C803    1.414   .     S
C795   O822    1.298   .     A
C795   C797    1.362   .     S
C795   O819    1.290   .     A
C796   C798    1.362   .     S
C796   O820    1.290   .     A
C796   O821    1.298   .     A
C798   C1445   1.163   .     S
C799   C804    1.396   .     A
C799   H809    1.079   .     S
C800   C803    1.397   .     A
C800   H810    1.084   .     S
C800   C658    1.376   1_655 S
C801   C803    1.392   .     A
C801   H811    1.084   .     S
C801   C655    1.373   1_655 S
C802   C804    1.394   .     A
C802   H812    1.082   .     S
C805   C825    1.522   .     S
C805   N814    1.385   .     A
C805   C1240   1.444   1_545 S
C806   N813    1.373   .     A
C806   C835    1.515   .     S
C806   C1023   1.431   .     S
C807   C845    1.520   .     S
C807   N814    1.387   .     A
C807   C1238   1.431   1_545 S
C808   N813    1.383   .     A
C808   C855    1.520   .     S
C808   C1021   1.444   .     S
N813   Zn823   2.056   .     S
N814   Zn824   2.056   .     S
O815   Zn823   1.999   .     S
O816   Zn824   1.999   .     S
O817   Zn823   1.986   .     S
O818   Zn824   1.986   .     S
O819   Zn823   1.930   .     S
O820   Zn824   1.930   .     S
O821   Zn823   1.950   .     S
O822   Zn824   1.950   .     S
C825   H833    1.089   .     S
C825   C826    1.543   .     S
C825   H834    1.106   .     S
C826   H832    1.111   .     S
C826   C827    1.520   .     S
C826   H831    1.111   .     S
C827   H830    1.107   .     S
C827   H1260   1.110   1_545 S
C827   H1261   1.109   1_545 S
H828   C1043   1.110   .     S
H829   C1043   1.109   .     S
C835   C836    1.547   .     S
C835   H843    1.107   .     S
C835   H844    1.093   .     S
C836   H841    1.108   .     S
C836   C837    1.538   .     S
C836   H842    1.111   .     S
C837   H840    1.107   .     S
C837   H838    1.107   .     S
C837   H1055   1.111   .     S
H839   C1269   1.111   1_545 S
C845   H854    1.111   .     S
C845   H853    1.102   .     S
C845   C846    1.534   .     S
C846   H852    1.101   .     S
C846   H851    1.107   .     S
C846   C847    1.528   .     S
H848   C1495   1.110   .     S
H849   C1495   1.111   .     S
H850   C1495   1.110   .     S
C855   H863    1.089   .     S
C855   C856    1.538   .     S
C855   H864    1.099   .     S
C856   H862    1.110   .     S
C856   H861    1.111   .     S
C856   C1505   1.527   .     S
C857   H860    1.110   .     S
C857   H859    1.111   .     S
H858   C1505   1.110   .     S
C865   C876    1.418   .     S
C865   O887    1.303   .     A
C865   O890    1.298   .     A
C866   O889    1.297   .     A
C866   O888    1.303   .     A
C866   C875    1.414   .     S
C867   O894    1.298   .     A
C867   C869    1.362   .     S
C867   O891    1.290   .     A
C868   C870    1.362   .     S
C868   O892    1.290   .     A
C868   O893    1.298   .     A
C870   C1517   1.163   .     S
C871   C876    1.396   .     A
C871   H881    1.079   .     S
C871   C1017   1.373   1_455 S
C872   C875    1.397   .     A
C872   H882    1.084   .     S
C872   C946    1.376   .     S
C873   C875    1.392   .     A
C873   H883    1.084   .     S
C873   C943    1.373   .     S
C874   C876    1.394   .     A
C874   H884    1.082   .     S
C874   C1016   1.376   1_455 S
C877   C897    1.522   .     S
C877   N886    1.385   .     A
C878   N885    1.373   .     A
C878   C907    1.515   .     S
C878   C1095   1.431   .     S
C879   C917    1.520   .     S
C879   N886    1.387   .     A
C880   N885    1.383   .     A
C880   C927    1.520   .     S
C880   C1093   1.444   .     S
N885   Zn895   2.056   .     S
N886   Zn896   2.056   .     S
O887   Zn895   1.999   .     S
O888   Zn896   1.999   .     S
O889   Zn895   1.986   .     S
O890   Zn896   1.986   .     S
O891   Zn895   1.930   .     S
O892   Zn896   1.930   .     S
O893   Zn895   1.950   .     S
O894   Zn896   1.950   .     S
C897   H905    1.089   .     S
C897   C898    1.543   .     S
C897   H906    1.106   .     S
C898   H904    1.111   .     S
C898   C899    1.520   .     S
C898   H903    1.111   .     S
C899   H902    1.107   .     S
H900   C1115   1.110   .     S
H901   C1115   1.109   .     S
C907   C908    1.547   .     S
C907   H915    1.107   .     S
C907   H916    1.093   .     S
C908   H913    1.108   .     S
C908   C909    1.538   .     S
C908   H914    1.111   .     S
C909   H912    1.107   .     S
C909   H910    1.107   .     S
C909   H1127   1.111   .     S
C917   H926    1.111   .     S
C917   H925    1.102   .     S
C917   C918    1.534   .     S
C918   H924    1.101   .     S
C918   H923    1.107   .     S
C918   C919    1.528   .     S
H920   C1567   1.110   .     S
H921   C1567   1.111   .     S
H922   C1567   1.110   .     S
C927   H935    1.089   .     S
C927   C928    1.538   .     S
C927   H936    1.099   .     S
C928   H934    1.110   .     S
C928   H933    1.111   .     S
C928   C1577   1.527   .     S
C929   H932    1.110   .     S
C929   H931    1.111   .     S
H930   C1577   1.110   .     S
C937   C948    1.418   .     S
C937   O959    1.303   .     A
C937   O962    1.298   .     A
C938   O961    1.297   .     A
C938   O960    1.303   .     A
C938   C947    1.414   .     S
C939   O966    1.298   .     A
C939   C941    1.362   .     S
C939   O963    1.290   .     A
C940   C942    1.362   .     S
C940   O964    1.290   .     A
C940   O965    1.298   .     A
C942   C1589   1.163   .     S
C943   C948    1.396   .     A
C943   H953    1.079   .     S
C944   C947    1.397   .     A
C944   H954    1.084   .     S
C944   C1018   1.376   .     S
C945   C947    1.392   .     A
C945   H955    1.084   .     S
C945   C1015   1.373   .     S
C946   C948    1.394   .     A
C946   H956    1.082   .     S
C949   C969    1.522   .     S
C949   N958    1.385   .     A
C950   N957    1.373   .     A
C950   C979    1.515   .     S
C950   C1167   1.431   .     S
C951   C989    1.520   .     S
C951   N958    1.387   .     A
C952   N957    1.383   .     A
C952   C999    1.520   .     S
C952   C1165   1.444   .     S
N957   Zn967   2.056   .     S
N958   Zn968   2.056   .     S
O959   Zn967   1.999   .     S
O960   Zn968   1.999   .     S
O961   Zn967   1.986   .     S
O962   Zn968   1.986   .     S
O963   Zn967   1.930   .     S
O964   Zn968   1.930   .     S
O965   Zn967   1.950   .     S
O966   Zn968   1.950   .     S
C969   H977    1.089   .     S
C969   C970    1.543   .     S
C969   H978    1.106   .     S
C970   H976    1.111   .     S
C970   C971    1.520   .     S
C970   H975    1.111   .     S
C971   H974    1.107   .     S
H972   C1187   1.110   .     S
H973   C1187   1.109   .     S
C979   C980    1.547   .     S
C979   H987    1.107   .     S
C979   H988    1.093   .     S
C980   H985    1.108   .     S
C980   C981    1.538   .     S
C980   H986    1.111   .     S
C981   H984    1.107   .     S
C981   H982    1.107   .     S
C981   H1199   1.111   .     S
C989   H998    1.111   .     S
C989   H997    1.102   .     S
C989   C990    1.534   .     S
C990   H996    1.101   .     S
C990   H995    1.107   .     S
C990   C991    1.528   .     S
H992   C1639   1.110   .     S
H993   C1639   1.111   .     S
H994   C1639   1.110   .     S
C999   H1007   1.089   .     S
C999   C1000   1.538   .     S
C999   H1008   1.099   .     S
C1000  H1006   1.110   .     S
C1000  H1005   1.111   .     S
C1000  C1649   1.527   .     S
C1001  H1004   1.110   .     S
C1001  H1003   1.111   .     S
H1002  C1649   1.110   .     S
C1009  C1020   1.418   .     S
C1009  O1031   1.303   .     A
C1009  O1034   1.298   .     A
C1010  O1033   1.297   .     A
C1010  O1032   1.303   .     A
C1010  C1019   1.414   .     S
C1011  O1038   1.298   .     A
C1011  C1013   1.362   .     S
C1011  O1035   1.290   .     A
C1012  C1014   1.362   .     S
C1012  O1036   1.290   .     A
C1012  O1037   1.298   .     A
C1014  C1661   1.163   .     S
C1015  C1020   1.396   .     A
C1015  H1025   1.079   .     S
C1016  C1019   1.397   .     A
C1016  H1026   1.084   .     S
C1016  C874    1.376   1_655 S
C1017  C1019   1.392   .     A
C1017  H1027   1.084   .     S
C1017  C871    1.373   1_655 S
C1018  C1020   1.394   .     A
C1018  H1028   1.082   .     S
C1021  C1041   1.522   .     S
C1021  N1030   1.385   .     A
C1022  N1029   1.373   .     A
C1022  C1051   1.515   .     S
C1022  C1239   1.431   .     S
C1023  C1061   1.520   .     S
C1023  N1030   1.387   .     A
C1024  N1029   1.383   .     A
C1024  C1071   1.520   .     S
C1024  C1237   1.444   .     S
N1029  Zn1039  2.056   .     S
N1030  Zn1040  2.056   .     S
O1031  Zn1039  1.999   .     S
O1032  Zn1040  1.999   .     S
O1033  Zn1039  1.986   .     S
O1034  Zn1040  1.986   .     S
O1035  Zn1039  1.930   .     S
O1036  Zn1040  1.930   .     S
O1037  Zn1039  1.950   .     S
O1038  Zn1040  1.950   .     S
C1041  H1049   1.089   .     S
C1041  C1042   1.543   .     S
C1041  H1050   1.106   .     S
C1042  H1048   1.111   .     S
C1042  C1043   1.520   .     S
C1042  H1047   1.111   .     S
C1043  H1046   1.107   .     S
H1044  C1259   1.110   .     S
H1045  C1259   1.109   .     S
C1051  C1052   1.547   .     S
C1051  H1059   1.107   .     S
C1051  H1060   1.093   .     S
C1052  H1057   1.108   .     S
C1052  C1053   1.538   .     S
C1052  H1058   1.111   .     S
C1053  H1056   1.107   .     S
C1053  H1054   1.107   .     S
C1053  H1271   1.111   .     S
C1061  H1070   1.111   .     S
C1061  H1069   1.102   .     S
C1061  C1062   1.534   .     S
C1062  H1068   1.101   .     S
C1062  H1067   1.107   .     S
C1062  C1063   1.528   .     S
H1064  C1711   1.110   .     S
H1065  C1711   1.111   .     S
H1066  C1711   1.110   .     S
C1071  H1079   1.089   .     S
C1071  C1072   1.538   .     S
C1071  H1080   1.099   .     S
C1072  H1078   1.110   .     S
C1072  H1077   1.111   .     S
C1072  C1721   1.527   .     S
C1073  H1076   1.110   .     S
C1073  H1075   1.111   .     S
H1074  C1721   1.110   .     S
C1081  C1092   1.418   .     S
C1081  O1103   1.303   .     A
C1081  O1106   1.298   .     A
C1082  O1105   1.297   .     A
C1082  O1104   1.303   .     A
C1082  C1091   1.414   .     S
C1083  O1110   1.298   .     A
C1083  C1085   1.362   .     S
C1083  O1107   1.290   .     A
C1084  C1086   1.362   .     S
C1084  O1108   1.290   .     A
C1084  O1109   1.298   .     A
C1086  C1733   1.163   .     S
C1087  C1092   1.396   .     A
C1087  H1097   1.079   .     S
C1087  C1233   1.373   1_455 S
C1088  C1091   1.397   .     A
C1088  H1098   1.084   .     S
C1088  C1162   1.376   .     S
C1089  C1091   1.392   .     A
C1089  H1099   1.084   .     S
C1089  C1159   1.373   .     S
C1090  C1092   1.394   .     A
C1090  H1100   1.082   .     S
C1090  C1232   1.376   1_455 S
C1093  C1113   1.522   .     S
C1093  N1102   1.385   .     A
C1094  N1101   1.373   .     A
C1094  C1123   1.515   .     S
C1094  C663    1.431   1_565 S
C1095  C1133   1.520   .     S
C1095  N1102   1.387   .     A
C1096  N1101   1.383   .     A
C1096  C1143   1.520   .     S
C1096  C661    1.444   1_565 S
N1101  Zn1111  2.056   .     S
N1102  Zn1112  2.056   .     S
O1103  Zn1111  1.999   .     S
O1104  Zn1112  1.999   .     S
O1105  Zn1111  1.986   .     S
O1106  Zn1112  1.986   .     S
O1107  Zn1111  1.930   .     S
O1108  Zn1112  1.930   .     S
O1109  Zn1111  1.950   .     S
O1110  Zn1112  1.950   .     S
C1113  H1121   1.089   .     S
C1113  C1114   1.543   .     S
C1113  H1122   1.106   .     S
C1114  H1120   1.111   .     S
C1114  C1115   1.520   .     S
C1114  H1119   1.111   .     S
C1115  H1118   1.107   .     S
H1116  C683    1.110   1_565 S
H1117  C683    1.109   1_565 S
C1123  C1124   1.547   .     S
C1123  H1131   1.107   .     S
C1123  H1132   1.093   .     S
C1124  H1129   1.108   .     S
C1124  C1125   1.538   .     S
C1124  H1130   1.111   .     S
C1125  H1128   1.107   .     S
C1125  H1126   1.107   .     S
C1125  H695    1.111   1_565 S
C1133  H1142   1.111   .     S
C1133  H1141   1.102   .     S
C1133  C1134   1.534   .     S
C1134  H1140   1.101   .     S
C1134  H1139   1.107   .     S
C1134  C1135   1.528   .     S
H1136  C1783   1.110   .     S
H1137  C1783   1.111   .     S
H1138  C1783   1.110   .     S
C1143  H1151   1.089   .     S
C1143  C1144   1.538   .     S
C1143  H1152   1.099   .     S
C1144  H1150   1.110   .     S
C1144  H1149   1.111   .     S
C1144  C1793   1.527   .     S
C1145  H1148   1.110   .     S
C1145  H1147   1.111   .     S
H1146  C1793   1.110   .     S
C1153  C1164   1.418   .     S
C1153  O1175   1.303   .     A
C1153  O1178   1.298   .     A
C1154  O1177   1.297   .     A
C1154  O1176   1.303   .     A
C1154  C1163   1.414   .     S
C1155  O1182   1.298   .     A
C1155  C1157   1.362   .     S
C1155  O1179   1.290   .     A
C1156  C1158   1.362   .     S
C1156  O1180   1.290   .     A
C1156  O1181   1.298   .     A
C1158  C1805   1.163   .     S
C1159  C1164   1.396   .     A
C1159  H1169   1.079   .     S
C1160  C1163   1.397   .     A
C1160  H1170   1.084   .     S
C1160  C1234   1.376   .     S
C1161  C1163   1.392   .     A
C1161  H1171   1.084   .     S
C1161  C1231   1.373   .     S
C1162  C1164   1.394   .     A
C1162  H1172   1.082   .     S
C1165  C1185   1.522   .     S
C1165  N1174   1.385   .     A
C1166  N1173   1.373   .     A
C1166  C1195   1.515   .     S
C1166  C735    1.431   1_565 S
C1167  C1205   1.520   .     S
C1167  N1174   1.387   .     A
C1168  N1173   1.383   .     A
C1168  C1215   1.520   .     S
C1168  C733    1.444   1_565 S
N1173  Zn1183  2.056   .     S
N1174  Zn1184  2.056   .     S
O1175  Zn1183  1.999   .     S
O1176  Zn1184  1.999   .     S
O1177  Zn1183  1.986   .     S
O1178  Zn1184  1.986   .     S
O1179  Zn1183  1.930   .     S
O1180  Zn1184  1.930   .     S
O1181  Zn1183  1.950   .     S
O1182  Zn1184  1.950   .     S
C1185  H1193   1.089   .     S
C1185  C1186   1.543   .     S
C1185  H1194   1.106   .     S
C1186  H1192   1.111   .     S
C1186  C1187   1.520   .     S
C1186  H1191   1.111   .     S
C1187  H1190   1.107   .     S
H1188  C755    1.110   1_565 S
H1189  C755    1.109   1_565 S
C1195  C1196   1.547   .     S
C1195  H1203   1.107   .     S
C1195  H1204   1.093   .     S
C1196  H1201   1.108   .     S
C1196  C1197   1.538   .     S
C1196  H1202   1.111   .     S
C1197  H1200   1.107   .     S
C1197  H1198   1.107   .     S
C1197  H767    1.111   1_565 S
C1205  H1214   1.111   .     S
C1205  H1213   1.102   .     S
C1205  C1206   1.534   .     S
C1206  H1212   1.101   .     S
C1206  H1211   1.107   .     S
C1206  C1207   1.528   .     S
H1208  C1855   1.110   .     S
H1209  C1855   1.111   .     S
H1210  C1855   1.110   .     S
C1215  H1223   1.089   .     S
C1215  C1216   1.538   .     S
C1215  H1224   1.099   .     S
C1216  H1222   1.110   .     S
C1216  H1221   1.111   .     S
C1216  C1865   1.527   .     S
C1217  H1220   1.110   .     S
C1217  H1219   1.111   .     S
H1218  C1865   1.110   .     S
C1225  C1236   1.418   .     S
C1225  O1247   1.303   .     A
C1225  O1250   1.298   .     A
C1226  O1249   1.297   .     A
C1226  O1248   1.303   .     A
C1226  C1235   1.414   .     S
C1227  O1254   1.298   .     A
C1227  C1229   1.362   .     S
C1227  O1251   1.290   .     A
C1228  C1230   1.362   .     S
C1228  O1252   1.290   .     A
C1228  O1253   1.298   .     A
C1230  C1877   1.163   .     S
C1231  C1236   1.396   .     A
C1231  H1241   1.079   .     S
C1232  C1235   1.397   .     A
C1232  H1242   1.084   .     S
C1232  C1090   1.376   1_655 S
C1233  C1235   1.392   .     A
C1233  H1243   1.084   .     S
C1233  C1087   1.373   1_655 S
C1234  C1236   1.394   .     A
C1234  H1244   1.082   .     S
C1237  C1257   1.522   .     S
C1237  N1246   1.385   .     A
C1238  N1245   1.373   .     A
C1238  C1267   1.515   .     S
C1238  C807    1.431   1_565 S
C1239  C1277   1.520   .     S
C1239  N1246   1.387   .     A
C1240  N1245   1.383   .     A
C1240  C1287   1.520   .     S
C1240  C805    1.444   1_565 S
N1245  Zn1255  2.056   .     S
N1246  Zn1256  2.056   .     S
O1247  Zn1255  1.999   .     S
O1248  Zn1256  1.999   .     S
O1249  Zn1255  1.986   .     S
O1250  Zn1256  1.986   .     S
O1251  Zn1255  1.930   .     S
O1252  Zn1256  1.930   .     S
O1253  Zn1255  1.950   .     S
O1254  Zn1256  1.950   .     S
C1257  H1265   1.089   .     S
C1257  C1258   1.543   .     S
C1257  H1266   1.106   .     S
C1258  H1264   1.111   .     S
C1258  C1259   1.520   .     S
C1258  H1263   1.111   .     S
C1259  H1262   1.107   .     S
H1260  C827    1.110   1_565 S
H1261  C827    1.109   1_565 S
C1267  C1268   1.547   .     S
C1267  H1275   1.107   .     S
C1267  H1276   1.093   .     S
C1268  H1273   1.108   .     S
C1268  C1269   1.538   .     S
C1268  H1274   1.111   .     S
C1269  H1272   1.107   .     S
C1269  H1270   1.107   .     S
C1269  H839    1.111   1_565 S
C1277  H1286   1.111   .     S
C1277  H1285   1.102   .     S
C1277  C1278   1.534   .     S
C1278  H1284   1.101   .     S
C1278  H1283   1.107   .     S
C1278  C1279   1.528   .     S
H1280  C1927   1.110   .     S
H1281  C1927   1.111   .     S
H1282  C1927   1.110   .     S
C1287  H1295   1.089   .     S
C1287  C1288   1.538   .     S
C1287  H1296   1.099   .     S
C1288  H1294   1.110   .     S
C1288  H1293   1.111   .     S
C1288  C1937   1.527   .     S
C1289  H1292   1.110   .     S
C1289  H1291   1.111   .     S
H1290  C1937   1.110   .     S
C1297  C1308   1.418   .     S
C1297  O1319   1.303   .     A
C1297  O1322   1.298   .     A
C1298  O1321   1.297   .     A
C1298  O1320   1.303   .     A
C1298  C1307   1.414   .     S
C1299  O1326   1.298   .     A
C1299  C1301   1.362   .     S
C1299  O1323   1.290   .     A
C1300  C1302   1.362   .     S
C1300  O1324   1.290   .     A
C1300  O1325   1.298   .     A
C1302  C5      1.163   1_556 S
C1303  C1308   1.396   .     A
C1303  H1313   1.079   .     S
C1303  C1449   1.373   1_455 S
C1304  C1307   1.397   .     A
C1304  H1314   1.084   .     S
C1304  C1378   1.376   .     S
C1305  C1307   1.392   .     A
C1305  H1315   1.084   .     S
C1305  C1375   1.373   .     S
C1306  C1308   1.394   .     A
C1306  H1316   1.082   .     S
C1306  C1448   1.376   1_455 S
C1309  C1329   1.522   .     S
C1309  N1318   1.385   .     A
C1309  C1744   1.444   1_545 S
C1310  N1317   1.373   .     A
C1310  C1339   1.515   .     S
C1310  C1527   1.431   .     S
C1311  C1349   1.520   .     S
C1311  N1318   1.387   .     A
C1311  C1742   1.431   1_545 S
C1312  N1317   1.383   .     A
C1312  C1359   1.520   .     S
C1312  C1525   1.444   .     S
N1317  Zn1327  2.056   .     S
N1318  Zn1328  2.056   .     S
O1319  Zn1327  1.999   .     S
O1320  Zn1328  1.999   .     S
O1321  Zn1327  1.986   .     S
O1322  Zn1328  1.986   .     S
O1323  Zn1327  1.930   .     S
O1324  Zn1328  1.930   .     S
O1325  Zn1327  1.950   .     S
O1326  Zn1328  1.950   .     S
C1329  H1337   1.089   .     S
C1329  C1330   1.543   .     S
C1329  H1338   1.106   .     S
C1330  H1336   1.111   .     S
C1330  C1331   1.520   .     S
C1330  H1335   1.111   .     S
C1331  H1334   1.107   .     S
C1331  H1764   1.110   1_545 S
C1331  H1765   1.109   1_545 S
H1332  C1547   1.110   .     S
H1333  C1547   1.109   .     S
C1339  C1340   1.547   .     S
C1339  H1347   1.107   .     S
C1339  H1348   1.093   .     S
C1340  H1345   1.108   .     S
C1340  C1341   1.538   .     S
C1340  H1346   1.111   .     S
C1341  H1344   1.107   .     S
C1341  H1342   1.107   .     S
C1341  H1559   1.111   .     S
H1343  C1773   1.111   1_545 S
C1349  H1358   1.111   .     S
C1349  H1357   1.102   .     S
C1349  C1350   1.534   .     S
C1350  H1356   1.101   .     S
C1350  H1355   1.107   .     S
C1350  C1351   1.528   .     S
H1352  C55     1.110   1_556 S
H1353  C55     1.111   1_556 S
H1354  C55     1.110   1_556 S
C1359  H1367   1.089   .     S
C1359  C1360   1.538   .     S
C1359  H1368   1.099   .     S
C1360  H1366   1.110   .     S
C1360  H1365   1.111   .     S
C1360  C65     1.527   1_556 S
C1361  H1364   1.110   .     S
C1361  H1363   1.111   .     S
H1362  C65     1.110   1_556 S
C1369  C1380   1.418   .     S
C1369  O1391   1.303   .     A
C1369  O1394   1.298   .     A
C1370  O1393   1.297   .     A
C1370  O1392   1.303   .     A
C1370  C1379   1.414   .     S
C1371  O1398   1.298   .     A
C1371  C1373   1.362   .     S
C1371  O1395   1.290   .     A
C1372  C1374   1.362   .     S
C1372  O1396   1.290   .     A
C1372  O1397   1.298   .     A
C1374  C77     1.163   1_556 S
C1375  C1380   1.396   .     A
C1375  H1385   1.079   .     S
C1376  C1379   1.397   .     A
C1376  H1386   1.084   .     S
C1376  C1450   1.376   .     S
C1377  C1379   1.392   .     A
C1377  H1387   1.084   .     S
C1377  C1447   1.373   .     S
C1378  C1380   1.394   .     A
C1378  H1388   1.082   .     S
C1381  C1401   1.522   .     S
C1381  N1390   1.385   .     A
C1381  C1816   1.444   1_545 S
C1382  N1389   1.373   .     A
C1382  C1411   1.515   .     S
C1382  C1599   1.431   .     S
C1383  C1421   1.520   .     S
C1383  N1390   1.387   .     A
C1383  C1814   1.431   1_545 S
C1384  N1389   1.383   .     A
C1384  C1431   1.520   .     S
C1384  C1597   1.444   .     S
N1389  Zn1399  2.056   .     S
N1390  Zn1400  2.056   .     S
O1391  Zn1399  1.999   .     S
O1392  Zn1400  1.999   .     S
O1393  Zn1399  1.986   .     S
O1394  Zn1400  1.986   .     S
O1395  Zn1399  1.930   .     S
O1396  Zn1400  1.930   .     S
O1397  Zn1399  1.950   .     S
O1398  Zn1400  1.950   .     S
C1401  H1409   1.089   .     S
C1401  C1402   1.543   .     S
C1401  H1410   1.106   .     S
C1402  H1408   1.111   .     S
C1402  C1403   1.520   .     S
C1402  H1407   1.111   .     S
C1403  H1406   1.107   .     S
C1403  H1836   1.110   1_545 S
C1403  H1837   1.109   1_545 S
H1404  C1619   1.110   .     S
H1405  C1619   1.109   .     S
C1411  C1412   1.547   .     S
C1411  H1419   1.107   .     S
C1411  H1420   1.093   .     S
C1412  H1417   1.108   .     S
C1412  C1413   1.538   .     S
C1412  H1418   1.111   .     S
C1413  H1416   1.107   .     S
C1413  H1414   1.107   .     S
C1413  H1631   1.111   .     S
H1415  C1845   1.111   1_545 S
C1421  H1430   1.111   .     S
C1421  H1429   1.102   .     S
C1421  C1422   1.534   .     S
C1422  H1428   1.101   .     S
C1422  H1427   1.107   .     S
C1422  C1423   1.528   .     S
H1424  C127    1.110   1_556 S
H1425  C127    1.111   1_556 S
H1426  C127    1.110   1_556 S
C1431  H1439   1.089   .     S
C1431  C1432   1.538   .     S
C1431  H1440   1.099   .     S
C1432  H1438   1.110   .     S
C1432  H1437   1.111   .     S
C1432  C137    1.527   1_556 S
C1433  H1436   1.110   .     S
C1433  H1435   1.111   .     S
H1434  C137    1.110   1_556 S
C1441  C1452   1.418   .     S
C1441  O1463   1.303   .     A
C1441  O1466   1.298   .     A
C1442  O1465   1.297   .     A
C1442  O1464   1.303   .     A
C1442  C1451   1.414   .     S
C1443  O1470   1.298   .     A
C1443  C1445   1.362   .     S
C1443  O1467   1.290   .     A
C1444  C1446   1.362   .     S
C1444  O1468   1.290   .     A
C1444  O1469   1.298   .     A
C1446  C149    1.163   1_556 S
C1447  C1452   1.396   .     A
C1447  H1457   1.079   .     S
C1448  C1451   1.397   .     A
C1448  H1458   1.084   .     S
C1448  C1306   1.376   1_655 S
C1449  C1451   1.392   .     A
C1449  H1459   1.084   .     S
C1449  C1303   1.373   1_655 S
C1450  C1452   1.394   .     A
C1450  H1460   1.082   .     S
C1453  C1473   1.522   .     S
C1453  N1462   1.385   .     A
C1453  C1888   1.444   1_545 S
C1454  N1461   1.373   .     A
C1454  C1483   1.515   .     S
C1454  C1671   1.431   .     S
C1455  C1493   1.520   .     S
C1455  N1462   1.387   .     A
C1455  C1886   1.431   1_545 S
C1456  N1461   1.383   .     A
C1456  C1503   1.520   .     S
C1456  C1669   1.444   .     S
N1461  Zn1471  2.056   .     S
N1462  Zn1472  2.056   .     S
O1463  Zn1471  1.999   .     S
O1464  Zn1472  1.999   .     S
O1465  Zn1471  1.986   .     S
O1466  Zn1472  1.986   .     S
O1467  Zn1471  1.930   .     S
O1468  Zn1472  1.930   .     S
O1469  Zn1471  1.950   .     S
O1470  Zn1472  1.950   .     S
C1473  H1481   1.089   .     S
C1473  C1474   1.543   .     S
C1473  H1482   1.106   .     S
C1474  H1480   1.111   .     S
C1474  C1475   1.520   .     S
C1474  H1479   1.111   .     S
C1475  H1478   1.107   .     S
C1475  H1908   1.110   1_545 S
C1475  H1909   1.109   1_545 S
H1476  C1691   1.110   .     S
H1477  C1691   1.109   .     S
C1483  C1484   1.547   .     S
C1483  H1491   1.107   .     S
C1483  H1492   1.093   .     S
C1484  H1489   1.108   .     S
C1484  C1485   1.538   .     S
C1484  H1490   1.111   .     S
C1485  H1488   1.107   .     S
C1485  H1486   1.107   .     S
C1485  H1703   1.111   .     S
H1487  C1917   1.111   1_545 S
C1493  H1502   1.111   .     S
C1493  H1501   1.102   .     S
C1493  C1494   1.534   .     S
C1494  H1500   1.101   .     S
C1494  H1499   1.107   .     S
C1494  C1495   1.528   .     S
H1496  C199    1.110   1_556 S
H1497  C199    1.111   1_556 S
H1498  C199    1.110   1_556 S
C1503  H1511   1.089   .     S
C1503  C1504   1.538   .     S
C1503  H1512   1.099   .     S
C1504  H1510   1.110   .     S
C1504  H1509   1.111   .     S
C1504  C209    1.527   1_556 S
C1505  H1508   1.110   .     S
C1505  H1507   1.111   .     S
H1506  C209    1.110   1_556 S
C1513  C1524   1.418   .     S
C1513  O1535   1.303   .     A
C1513  O1538   1.298   .     A
C1514  O1537   1.297   .     A
C1514  O1536   1.303   .     A
C1514  C1523   1.414   .     S
C1515  O1542   1.298   .     A
C1515  C1517   1.362   .     S
C1515  O1539   1.290   .     A
C1516  C1518   1.362   .     S
C1516  O1540   1.290   .     A
C1516  O1541   1.298   .     A
C1518  C221    1.163   1_556 S
C1519  C1524   1.396   .     A
C1519  H1529   1.079   .     S
C1519  C1665   1.373   1_455 S
C1520  C1523   1.397   .     A
C1520  H1530   1.084   .     S
C1520  C1594   1.376   .     S
C1521  C1523   1.392   .     A
C1521  H1531   1.084   .     S
C1521  C1591   1.373   .     S
C1522  C1524   1.394   .     A
C1522  H1532   1.082   .     S
C1522  C1664   1.376   1_455 S
C1525  C1545   1.522   .     S
C1525  N1534   1.385   .     A
C1526  N1533   1.373   .     A
C1526  C1555   1.515   .     S
C1526  C1743   1.431   .     S
C1527  C1565   1.520   .     S
C1527  N1534   1.387   .     A
C1528  N1533   1.383   .     A
C1528  C1575   1.520   .     S
C1528  C1741   1.444   .     S
N1533  Zn1543  2.056   .     S
N1534  Zn1544  2.056   .     S
O1535  Zn1543  1.999   .     S
O1536  Zn1544  1.999   .     S
O1537  Zn1543  1.986   .     S
O1538  Zn1544  1.986   .     S
O1539  Zn1543  1.930   .     S
O1540  Zn1544  1.930   .     S
O1541  Zn1543  1.950   .     S
O1542  Zn1544  1.950   .     S
C1545  H1553   1.089   .     S
C1545  C1546   1.543   .     S
C1545  H1554   1.106   .     S
C1546  H1552   1.111   .     S
C1546  C1547   1.520   .     S
C1546  H1551   1.111   .     S
C1547  H1550   1.107   .     S
H1548  C1763   1.110   .     S
H1549  C1763   1.109   .     S
C1555  C1556   1.547   .     S
C1555  H1563   1.107   .     S
C1555  H1564   1.093   .     S
C1556  H1561   1.108   .     S
C1556  C1557   1.538   .     S
C1556  H1562   1.111   .     S
C1557  H1560   1.107   .     S
C1557  H1558   1.107   .     S
C1557  H1775   1.111   .     S
C1565  H1574   1.111   .     S
C1565  H1573   1.102   .     S
C1565  C1566   1.534   .     S
C1566  H1572   1.101   .     S
C1566  H1571   1.107   .     S
C1566  C1567   1.528   .     S
H1568  C271    1.110   1_556 S
H1569  C271    1.111   1_556 S
H1570  C271    1.110   1_556 S
C1575  H1583   1.089   .     S
C1575  C1576   1.538   .     S
C1575  H1584   1.099   .     S
C1576  H1582   1.110   .     S
C1576  H1581   1.111   .     S
C1576  C281    1.527   1_556 S
C1577  H1580   1.110   .     S
C1577  H1579   1.111   .     S
H1578  C281    1.110   1_556 S
C1585  C1596   1.418   .     S
C1585  O1607   1.303   .     A
C1585  O1610   1.298   .     A
C1586  O1609   1.297   .     A
C1586  O1608   1.303   .     A
C1586  C1595   1.414   .     S
C1587  O1614   1.298   .     A
C1587  C1589   1.362   .     S
C1587  O1611   1.290   .     A
C1588  C1590   1.362   .     S
C1588  O1612   1.290   .     A
C1588  O1613   1.298   .     A
C1590  C293    1.163   1_556 S
C1591  C1596   1.396   .     A
C1591  H1601   1.079   .     S
C1592  C1595   1.397   .     A
C1592  H1602   1.084   .     S
C1592  C1666   1.376   .     S
C1593  C1595   1.392   .     A
C1593  H1603   1.084   .     S
C1593  C1663   1.373   .     S
C1594  C1596   1.394   .     A
C1594  H1604   1.082   .     S
C1597  C1617   1.522   .     S
C1597  N1606   1.385   .     A
C1598  N1605   1.373   .     A
C1598  C1627   1.515   .     S
C1598  C1815   1.431   .     S
C1599  C1637   1.520   .     S
C1599  N1606   1.387   .     A
C1600  N1605   1.383   .     A
C1600  C1647   1.520   .     S
C1600  C1813   1.444   .     S
N1605  Zn1615  2.056   .     S
N1606  Zn1616  2.056   .     S
O1607  Zn1615  1.999   .     S
O1608  Zn1616  1.999   .     S
O1609  Zn1615  1.986   .     S
O1610  Zn1616  1.986   .     S
O1611  Zn1615  1.930   .     S
O1612  Zn1616  1.930   .     S
O1613  Zn1615  1.950   .     S
O1614  Zn1616  1.950   .     S
C1617  H1625   1.089   .     S
C1617  C1618   1.543   .     S
C1617  H1626   1.106   .     S
C1618  H1624   1.111   .     S
C1618  C1619   1.520   .     S
C1618  H1623   1.111   .     S
C1619  H1622   1.107   .     S
H1620  C1835   1.110   .     S
H1621  C1835   1.109   .     S
C1627  C1628   1.547   .     S
C1627  H1635   1.107   .     S
C1627  H1636   1.093   .     S
C1628  H1633   1.108   .     S
C1628  C1629   1.538   .     S
C1628  H1634   1.111   .     S
C1629  H1632   1.107   .     S
C1629  H1630   1.107   .     S
C1629  H1847   1.111   .     S
C1637  H1646   1.111   .     S
C1637  H1645   1.102   .     S
C1637  C1638   1.534   .     S
C1638  H1644   1.101   .     S
C1638  H1643   1.107   .     S
C1638  C1639   1.528   .     S
H1640  C343    1.110   1_556 S
H1641  C343    1.111   1_556 S
H1642  C343    1.110   1_556 S
C1647  H1655   1.089   .     S
C1647  C1648   1.538   .     S
C1647  H1656   1.099   .     S
C1648  H1654   1.110   .     S
C1648  H1653   1.111   .     S
C1648  C353    1.527   1_556 S
C1649  H1652   1.110   .     S
C1649  H1651   1.111   .     S
H1650  C353    1.110   1_556 S
C1657  C1668   1.418   .     S
C1657  O1679   1.303   .     A
C1657  O1682   1.298   .     A
C1658  O1681   1.297   .     A
C1658  O1680   1.303   .     A
C1658  C1667   1.414   .     S
C1659  O1686   1.298   .     A
C1659  C1661   1.362   .     S
C1659  O1683   1.290   .     A
C1660  C1662   1.362   .     S
C1660  O1684   1.290   .     A
C1660  O1685   1.298   .     A
C1662  C365    1.163   1_556 S
C1663  C1668   1.396   .     A
C1663  H1673   1.079   .     S
C1664  C1667   1.397   .     A
C1664  H1674   1.084   .     S
C1664  C1522   1.376   1_655 S
C1665  C1667   1.392   .     A
C1665  H1675   1.084   .     S
C1665  C1519   1.373   1_655 S
C1666  C1668   1.394   .     A
C1666  H1676   1.082   .     S
C1669  C1689   1.522   .     S
C1669  N1678   1.385   .     A
C1670  N1677   1.373   .     A
C1670  C1699   1.515   .     S
C1670  C1887   1.431   .     S
C1671  C1709   1.520   .     S
C1671  N1678   1.387   .     A
C1672  N1677   1.383   .     A
C1672  C1719   1.520   .     S
C1672  C1885   1.444   .     S
N1677  Zn1687  2.056   .     S
N1678  Zn1688  2.056   .     S
O1679  Zn1687  1.999   .     S
O1680  Zn1688  1.999   .     S
O1681  Zn1687  1.986   .     S
O1682  Zn1688  1.986   .     S
O1683  Zn1687  1.930   .     S
O1684  Zn1688  1.930   .     S
O1685  Zn1687  1.950   .     S
O1686  Zn1688  1.950   .     S
C1689  H1697   1.089   .     S
C1689  C1690   1.543   .     S
C1689  H1698   1.106   .     S
C1690  H1696   1.111   .     S
C1690  C1691   1.520   .     S
C1690  H1695   1.111   .     S
C1691  H1694   1.107   .     S
H1692  C1907   1.110   .     S
H1693  C1907   1.109   .     S
C1699  C1700   1.547   .     S
C1699  H1707   1.107   .     S
C1699  H1708   1.093   .     S
C1700  H1705   1.108   .     S
C1700  C1701   1.538   .     S
C1700  H1706   1.111   .     S
C1701  H1704   1.107   .     S
C1701  H1702   1.107   .     S
C1701  H1919   1.111   .     S
C1709  H1718   1.111   .     S
C1709  H1717   1.102   .     S
C1709  C1710   1.534   .     S
C1710  H1716   1.101   .     S
C1710  H1715   1.107   .     S
C1710  C1711   1.528   .     S
H1712  C415    1.110   1_556 S
H1713  C415    1.111   1_556 S
H1714  C415    1.110   1_556 S
C1719  H1727   1.089   .     S
C1719  C1720   1.538   .     S
C1719  H1728   1.099   .     S
C1720  H1726   1.110   .     S
C1720  H1725   1.111   .     S
C1720  C425    1.527   1_556 S
C1721  H1724   1.110   .     S
C1721  H1723   1.111   .     S
H1722  C425    1.110   1_556 S
C1729  C1740   1.418   .     S
C1729  O1751   1.303   .     A
C1729  O1754   1.298   .     A
C1730  O1753   1.297   .     A
C1730  O1752   1.303   .     A
C1730  C1739   1.414   .     S
C1731  O1758   1.298   .     A
C1731  C1733   1.362   .     S
C1731  O1755   1.290   .     A
C1732  C1734   1.362   .     S
C1732  O1756   1.290   .     A
C1732  O1757   1.298   .     A
C1734  C437    1.163   1_556 S
C1735  C1740   1.396   .     A
C1735  H1745   1.079   .     S
C1735  C1881   1.373   1_455 S
C1736  C1739   1.397   .     A
C1736  H1746   1.084   .     S
C1736  C1810   1.376   .     S
C1737  C1739   1.392   .     A
C1737  H1747   1.084   .     S
C1737  C1807   1.373   .     S
C1738  C1740   1.394   .     A
C1738  H1748   1.082   .     S
C1738  C1880   1.376   1_455 S
C1741  C1761   1.522   .     S
C1741  N1750   1.385   .     A
C1742  N1749   1.373   .     A
C1742  C1771   1.515   .     S
C1742  C1311   1.431   1_565 S
C1743  C1781   1.520   .     S
C1743  N1750   1.387   .     A
C1744  N1749   1.383   .     A
C1744  C1791   1.520   .     S
C1744  C1309   1.444   1_565 S
N1749  Zn1759  2.056   .     S
N1750  Zn1760  2.056   .     S
O1751  Zn1759  1.999   .     S
O1752  Zn1760  1.999   .     S
O1753  Zn1759  1.986   .     S
O1754  Zn1760  1.986   .     S
O1755  Zn1759  1.930   .     S
O1756  Zn1760  1.930   .     S
O1757  Zn1759  1.950   .     S
O1758  Zn1760  1.950   .     S
C1761  H1769   1.089   .     S
C1761  C1762   1.543   .     S
C1761  H1770   1.106   .     S
C1762  H1768   1.111   .     S
C1762  C1763   1.520   .     S
C1762  H1767   1.111   .     S
C1763  H1766   1.107   .     S
H1764  C1331   1.110   1_565 S
H1765  C1331   1.109   1_565 S
C1771  C1772   1.547   .     S
C1771  H1779   1.107   .     S
C1771  H1780   1.093   .     S
C1772  H1777   1.108   .     S
C1772  C1773   1.538   .     S
C1772  H1778   1.111   .     S
C1773  H1776   1.107   .     S
C1773  H1774   1.107   .     S
C1773  H1343   1.111   1_565 S
C1781  H1790   1.111   .     S
C1781  H1789   1.102   .     S
C1781  C1782   1.534   .     S
C1782  H1788   1.101   .     S
C1782  H1787   1.107   .     S
C1782  C1783   1.528   .     S
H1784  C487    1.110   1_556 S
H1785  C487    1.111   1_556 S
H1786  C487    1.110   1_556 S
C1791  H1799   1.089   .     S
C1791  C1792   1.538   .     S
C1791  H1800   1.099   .     S
C1792  H1798   1.110   .     S
C1792  H1797   1.111   .     S
C1792  C497    1.527   1_556 S
C1793  H1796   1.110   .     S
C1793  H1795   1.111   .     S
H1794  C497    1.110   1_556 S
C1801  C1812   1.418   .     S
C1801  O1823   1.303   .     A
C1801  O1826   1.298   .     A
C1802  O1825   1.297   .     A
C1802  O1824   1.303   .     A
C1802  C1811   1.414   .     S
C1803  O1830   1.298   .     A
C1803  C1805   1.362   .     S
C1803  O1827   1.290   .     A
C1804  C1806   1.362   .     S
C1804  O1828   1.290   .     A
C1804  O1829   1.298   .     A
C1806  C509    1.163   1_556 S
C1807  C1812   1.396   .     A
C1807  H1817   1.079   .     S
C1808  C1811   1.397   .     A
C1808  H1818   1.084   .     S
C1808  C1882   1.376   .     S
C1809  C1811   1.392   .     A
C1809  H1819   1.084   .     S
C1809  C1879   1.373   .     S
C1810  C1812   1.394   .     A
C1810  H1820   1.082   .     S
C1813  C1833   1.522   .     S
C1813  N1822   1.385   .     A
C1814  N1821   1.373   .     A
C1814  C1843   1.515   .     S
C1814  C1383   1.431   1_565 S
C1815  C1853   1.520   .     S
C1815  N1822   1.387   .     A
C1816  N1821   1.383   .     A
C1816  C1863   1.520   .     S
C1816  C1381   1.444   1_565 S
N1821  Zn1831  2.056   .     S
N1822  Zn1832  2.056   .     S
O1823  Zn1831  1.999   .     S
O1824  Zn1832  1.999   .     S
O1825  Zn1831  1.986   .     S
O1826  Zn1832  1.986   .     S
O1827  Zn1831  1.930   .     S
O1828  Zn1832  1.930   .     S
O1829  Zn1831  1.950   .     S
O1830  Zn1832  1.950   .     S
C1833  H1841   1.089   .     S
C1833  C1834   1.543   .     S
C1833  H1842   1.106   .     S
C1834  H1840   1.111   .     S
C1834  C1835   1.520   .     S
C1834  H1839   1.111   .     S
C1835  H1838   1.107   .     S
H1836  C1403   1.110   1_565 S
H1837  C1403   1.109   1_565 S
C1843  C1844   1.547   .     S
C1843  H1851   1.107   .     S
C1843  H1852   1.093   .     S
C1844  H1849   1.108   .     S
C1844  C1845   1.538   .     S
C1844  H1850   1.111   .     S
C1845  H1848   1.107   .     S
C1845  H1846   1.107   .     S
C1845  H1415   1.111   1_565 S
C1853  H1862   1.111   .     S
C1853  H1861   1.102   .     S
C1853  C1854   1.534   .     S
C1854  H1860   1.101   .     S
C1854  H1859   1.107   .     S
C1854  C1855   1.528   .     S
H1856  C559    1.110   1_556 S
H1857  C559    1.111   1_556 S
H1858  C559    1.110   1_556 S
C1863  H1871   1.089   .     S
C1863  C1864   1.538   .     S
C1863  H1872   1.099   .     S
C1864  H1870   1.110   .     S
C1864  H1869   1.111   .     S
C1864  C569    1.527   1_556 S
C1865  H1868   1.110   .     S
C1865  H1867   1.111   .     S
H1866  C569    1.110   1_556 S
C1873  C1884   1.418   .     S
C1873  O1895   1.303   .     A
C1873  O1898   1.298   .     A
C1874  O1897   1.297   .     A
C1874  O1896   1.303   .     A
C1874  C1883   1.414   .     S
C1875  O1902   1.298   .     A
C1875  C1877   1.362   .     S
C1875  O1899   1.290   .     A
C1876  C1878   1.362   .     S
C1876  O1900   1.290   .     A
C1876  O1901   1.298   .     A
C1878  C581    1.163   1_556 S
C1879  C1884   1.396   .     A
C1879  H1889   1.079   .     S
C1880  C1883   1.397   .     A
C1880  H1890   1.084   .     S
C1880  C1738   1.376   1_655 S
C1881  C1883   1.392   .     A
C1881  H1891   1.084   .     S
C1881  C1735   1.373   1_655 S
C1882  C1884   1.394   .     A
C1882  H1892   1.082   .     S
C1885  C1905   1.522   .     S
C1885  N1894   1.385   .     A
C1886  N1893   1.373   .     A
C1886  C1915   1.515   .     S
C1886  C1455   1.431   1_565 S
C1887  C1925   1.520   .     S
C1887  N1894   1.387   .     A
C1888  N1893   1.383   .     A
C1888  C1935   1.520   .     S
C1888  C1453   1.444   1_565 S
N1893  Zn1903  2.056   .     S
N1894  Zn1904  2.056   .     S
O1895  Zn1903  1.999   .     S
O1896  Zn1904  1.999   .     S
O1897  Zn1903  1.986   .     S
O1898  Zn1904  1.986   .     S
O1899  Zn1903  1.930   .     S
O1900  Zn1904  1.930   .     S
O1901  Zn1903  1.950   .     S
O1902  Zn1904  1.950   .     S
C1905  H1913   1.089   .     S
C1905  C1906   1.543   .     S
C1905  H1914   1.106   .     S
C1906  H1912   1.111   .     S
C1906  C1907   1.520   .     S
C1906  H1911   1.111   .     S
C1907  H1910   1.107   .     S
H1908  C1475   1.110   1_565 S
H1909  C1475   1.109   1_565 S
C1915  C1916   1.547   .     S
C1915  H1923   1.107   .     S
C1915  H1924   1.093   .     S
C1916  H1921   1.108   .     S
C1916  C1917   1.538   .     S
C1916  H1922   1.111   .     S
C1917  H1920   1.107   .     S
C1917  H1918   1.107   .     S
C1917  H1487   1.111   1_565 S
C1925  H1934   1.111   .     S
C1925  H1933   1.102   .     S
C1925  C1926   1.534   .     S
C1926  H1932   1.101   .     S
C1926  H1931   1.107   .     S
C1926  C1927   1.528   .     S
H1928  C631    1.110   1_556 S
H1929  C631    1.111   1_556 S
H1930  C631    1.110   1_556 S
C1935  H1943   1.089   .     S
C1935  C1936   1.538   .     S
C1935  H1944   1.099   .     S
C1936  H1942   1.110   .     S
C1936  H1941   1.111   .     S
C1936  C641    1.527   1_556 S
C1937  H1940   1.110   .     S
C1937  H1939   1.111   .     S
H1938  C641    1.110   1_556 S
