data_str_m3_o2_o10_pcu_sym.163
_audit_creation_date              2020-01-03
_audit_creation_method            'Materials Studio'
_symmetry_space_group_name_H-M    'P1'
_symmetry_Int_Tables_number       1
_symmetry_cell_setting            triclinic
loop_
_symmetry_equiv_pos_as_xyz
  x,y,z
_cell_length_a                    25.8662
_cell_length_b                    29.9725
_cell_length_c                    28.3980
_cell_angle_alpha                 89.5042
_cell_angle_beta                  98.3644
_cell_angle_gamma                 91.1426
loop_
_atom_site_label
_atom_site_type_symbol
_atom_site_fract_x
_atom_site_fract_y
_atom_site_fract_z
_atom_site_U_iso_or_equiv
_atom_site_adp_type
_atom_site_occupancy
C1     C     0.16856   0.16377   0.25050   0.00000  Uiso   1.00
C2     C     0.16669   0.33585   0.24979   0.00000  Uiso   1.00
C3     C     0.12729   0.22750   0.04769   0.00000  Uiso   1.00
C4     C     0.19090   0.28459   0.45029   0.00000  Uiso   1.00
C5     C     0.12911   0.22607   0.09780   0.00000  Uiso   1.00
C6     C     0.19304   0.28326   0.40056   0.00000  Uiso   1.00
C7     C     0.20407   0.27396   0.10713   0.00000  Uiso   1.00
C8     C     0.14068   0.21639   0.39405   0.00000  Uiso   1.00
C9     C     0.20579   0.27273   0.05763   0.00000  Uiso   1.00
C10    C     0.14238   0.21535   0.44449   0.00000  Uiso   1.00
C11    C     0.16656   0.25008   0.02669   0.00000  Uiso   1.00
C12    C     0.16664   0.24999   0.47321   0.00000  Uiso   1.00
C13    C     0.06721   0.24976   0.23781   0.00000  Uiso   1.00
C14    C     0.26616   0.25063   0.26231   0.00000  Uiso   1.00
C15    C     0.01274   0.24306   0.23251   0.00000  Uiso   1.00
C16    C     0.32092   0.25601   0.26836   0.00000  Uiso   1.00
C17    C     0.17414   0.04509   0.29314   0.00000  Uiso   1.00
C18    C     0.13580   0.45385   0.21779   0.00000  Uiso   1.00
C19    C     0.17577   0.09142   0.29459   0.00000  Uiso   1.00
C20    C     0.13239   0.40744   0.21766   0.00000  Uiso   1.00
C21    C     0.17461   0.11573   0.25174   0.00000  Uiso   1.00
C22    C     0.16818   0.38342   0.24961   0.00000  Uiso   1.00
C23    C     0.18050   0.09383   0.20953   0.00000  Uiso   1.00
C24    C     0.20690   0.40465   0.28117   0.00000  Uiso   1.00
C25    C     0.18518   0.04797   0.20899   0.00000  Uiso   1.00
C26    C     0.21234   0.45052   0.28013   0.00000  Uiso   1.00
C27    C     0.17969   0.02345   0.25048   0.00000  Uiso   1.00
C28    C     0.17622   0.47525   0.24897   0.00000  Uiso   1.00
H29    H     0.18170   0.11215   0.17667   0.00000  Uiso   1.00
H30    H     0.23404   0.38549   0.30571   0.00000  Uiso   1.00
H31    H     0.09476   0.21151   0.02560   0.00000  Uiso   1.00
H32    H     0.20739   0.31284   0.47094   0.00000  Uiso   1.00
H33    H     0.23815   0.28919   0.04400   0.00000  Uiso   1.00
H34    H     0.12534   0.18771   0.46172   0.00000  Uiso   1.00
N35    N     0.16667   0.24999   0.12624   0.00000  Uiso   1.00
N36    N     0.16667   0.25001   0.37377   0.00000  Uiso   1.00
O37    O     0.16667   0.18454   0.28974   0.00000  Uiso   1.00
O38    O     0.16666   0.31547   0.21026   0.00000  Uiso   1.00
O39    O     0.16667   0.18453   0.21026   0.00000  Uiso   1.00
O40    O     0.16666   0.31547   0.28974   0.00000  Uiso   1.00
O41    O     0.09058   0.25000   0.28045   0.00000  Uiso   1.00
O42    O     0.24275   0.25000   0.21956   0.00000  Uiso   1.00
O43    O     0.09058   0.25000   0.20097   0.00000  Uiso   1.00
O44    O     0.24275   0.25001   0.29904   0.00000  Uiso   1.00
Zn45   Zn    0.16667   0.25001   0.30307   0.00000  Uiso   1.00
Zn46   Zn    0.16667   0.25000   0.19693   0.00000  Uiso   1.00
O47    O     0.32188   0.22011   0.19270   0.00000  Uiso   1.00
C48    C     0.32575   0.17388   0.20203   0.00000  Uiso   1.00
H49    H     0.30547   0.16399   0.23262   0.00000  Uiso   1.00
H50    H     0.03393   0.16345   0.20862   0.00000  Uiso   1.00
H51    H     0.30628   0.15561   0.17030   0.00000  Uiso   1.00
O52    O     0.01186   0.28241   0.30566   0.00000  Uiso   1.00
C53    C     0.01414   0.25886   0.34921   0.00000  Uiso   1.00
H54    H     0.01876   0.22229   0.34535   0.00000  Uiso   1.00
H55    H     0.31226   0.26509   0.36598   0.00000  Uiso   1.00
H56    H     0.04831   0.27159   0.37390   0.00000  Uiso   1.00
O57    O     0.16964   0.02114   0.33431   0.00000  Uiso   1.00
C58    C     0.11622   0.01554   0.33833   0.00000  Uiso   1.00
H59    H     0.09666   0.49258   0.31054   0.00000  Uiso   1.00
H60    H     0.09567   0.04794   0.33674   0.00000  Uiso   1.00
H61    H     0.11292   0.00002   0.37339   0.00000  Uiso   1.00
O62    O     0.10179   0.47748   0.18492   0.00000  Uiso   1.00
C63    C     0.06206   0.49583   0.20756   0.00000  Uiso   1.00
H64    H     0.02826   0.00318   0.18004   0.00000  Uiso   1.00
H65    H     0.07541   0.02786   0.22497   0.00000  Uiso   1.00
H66    H     0.04780   0.47271   0.23388   0.00000  Uiso   1.00
O67    O     0.17458   0.11231   0.33757   0.00000  Uiso   1.00
C68    C     0.22636   0.11744   0.36082   0.00000  Uiso   1.00
H69    H     0.24450   0.08452   0.36984   0.00000  Uiso   1.00
H70    H     0.22561   0.13550   0.39465   0.00000  Uiso   1.00
H71    H     0.25078   0.13770   0.33908   0.00000  Uiso   1.00
O72    O     0.09667   0.38578   0.18398   0.00000  Uiso   1.00
C73    C     0.05251   0.37221   0.20482   0.00000  Uiso   1.00
H74    H     0.06280   0.35569   0.24012   0.00000  Uiso   1.00
H75    H     0.02957   0.34752   0.18103   0.00000  Uiso   1.00
H76    H     0.02691   0.40092   0.20806   0.00000  Uiso   1.00
O77    O     0.18909   0.02740   0.16626   0.00000  Uiso   1.00
C78    C     0.24166   0.01646   0.16530   0.00000  Uiso   1.00
H79    H     0.25200   0.48615   0.18710   0.00000  Uiso   1.00
H80    H     0.26923   0.04465   0.17696   0.00000  Uiso   1.00
H81    H     0.24643   0.00850   0.12813   0.00000  Uiso   1.00
O82    O     0.25024   0.47118   0.31254   0.00000  Uiso   1.00
C83    C     0.29744   0.47353   0.29332   0.00000  Uiso   1.00
H84    H     0.29518   0.49896   0.26448   0.00000  Uiso   1.00
H85    H     0.30851   0.44056   0.28036   0.00000  Uiso   1.00
H86    H     0.32911   0.48441   0.32173   0.00000  Uiso   1.00
O87    O     0.09117   0.20339   0.11883   0.00000  Uiso   1.00
C88    C     0.08781   0.15824   0.10476   0.00000  Uiso   1.00
H89    H     0.06886   0.13870   0.13110   0.00000  Uiso   1.00
H90    H     0.12692   0.14357   0.10387   0.00000  Uiso   1.00
H91    H     0.06286   0.15445   0.06969   0.00000  Uiso   1.00
O92    O     0.21813   0.31611   0.37670   0.00000  Uiso   1.00
C93    C     0.26090   0.33689   0.40536   0.00000  Uiso   1.00
H94    H     0.28517   0.31261   0.42835   0.00000  Uiso   1.00
H95    H     0.24714   0.36375   0.42694   0.00000  Uiso   1.00
H96    H     0.28651   0.35287   0.38170   0.00000  Uiso   1.00
O97    O     0.24220   0.29682   0.13719   0.00000  Uiso   1.00
C98    C     0.23718   0.34306   0.12855   0.00000  Uiso   1.00
H99    H     0.19619   0.35409   0.12796   0.00000  Uiso   1.00
H100   H     0.25169   0.35273   0.09487   0.00000  Uiso   1.00
H101   H     0.26161   0.36116   0.15793   0.00000  Uiso   1.00
O102   O     0.11382   0.18499   0.36312   0.00000  Uiso   1.00
C103   C     0.08515   0.15236   0.38507   0.00000  Uiso   1.00
H104   H     0.11175   0.13018   0.40852   0.00000  Uiso   1.00
H105   H     0.06323   0.13113   0.35685   0.00000  Uiso   1.00
H106   H     0.05584   0.16774   0.40462   0.00000  Uiso   1.00
C107   C     0.50189   0.16377   0.25050   0.00000  Uiso   1.00
C108   C     0.50002   0.33585   0.24979   0.00000  Uiso   1.00
C109   C     0.46062   0.22750   0.04769   0.00000  Uiso   1.00
C110   C     0.52423   0.28459   0.45029   0.00000  Uiso   1.00
C111   C     0.46244   0.22607   0.09780   0.00000  Uiso   1.00
C112   C     0.52637   0.28326   0.40056   0.00000  Uiso   1.00
C113   C     0.53740   0.27396   0.10713   0.00000  Uiso   1.00
C114   C     0.47401   0.21639   0.39405   0.00000  Uiso   1.00
C115   C     0.53912   0.27273   0.05763   0.00000  Uiso   1.00
C116   C     0.47571   0.21535   0.44449   0.00000  Uiso   1.00
C117   C     0.49990   0.25008   0.02669   0.00000  Uiso   1.00
C118   C     0.49998   0.24999   0.47321   0.00000  Uiso   1.00
C119   C     0.40055   0.24976   0.23781   0.00000  Uiso   1.00
C120   C     0.59949   0.25063   0.26231   0.00000  Uiso   1.00
C121   C     0.34608   0.24306   0.23251   0.00000  Uiso   1.00
C122   C     0.65426   0.25601   0.26836   0.00000  Uiso   1.00
C123   C     0.50747   0.04509   0.29314   0.00000  Uiso   1.00
C124   C     0.46913   0.45385   0.21779   0.00000  Uiso   1.00
C125   C     0.50910   0.09142   0.29459   0.00000  Uiso   1.00
C126   C     0.46572   0.40744   0.21766   0.00000  Uiso   1.00
C127   C     0.50794   0.11573   0.25174   0.00000  Uiso   1.00
C128   C     0.50152   0.38342   0.24961   0.00000  Uiso   1.00
C129   C     0.51383   0.09383   0.20953   0.00000  Uiso   1.00
C130   C     0.54023   0.40465   0.28117   0.00000  Uiso   1.00
C131   C     0.51852   0.04797   0.20899   0.00000  Uiso   1.00
C132   C     0.54567   0.45052   0.28013   0.00000  Uiso   1.00
C133   C     0.51303   0.02345   0.25048   0.00000  Uiso   1.00
C134   C     0.50955   0.47525   0.24897   0.00000  Uiso   1.00
H135   H     0.51503   0.11215   0.17667   0.00000  Uiso   1.00
H136   H     0.56737   0.38549   0.30571   0.00000  Uiso   1.00
H137   H     0.42809   0.21151   0.02560   0.00000  Uiso   1.00
H138   H     0.54073   0.31284   0.47094   0.00000  Uiso   1.00
H139   H     0.57149   0.28919   0.04400   0.00000  Uiso   1.00
H140   H     0.45867   0.18771   0.46172   0.00000  Uiso   1.00
N141   N     0.50000   0.24999   0.12624   0.00000  Uiso   1.00
N142   N     0.50000   0.25001   0.37377   0.00000  Uiso   1.00
O143   O     0.50000   0.18454   0.28974   0.00000  Uiso   1.00
O144   O     0.50000   0.31547   0.21026   0.00000  Uiso   1.00
O145   O     0.50000   0.18453   0.21026   0.00000  Uiso   1.00
O146   O     0.50000   0.31547   0.28974   0.00000  Uiso   1.00
O147   O     0.42392   0.25000   0.28045   0.00000  Uiso   1.00
O148   O     0.57608   0.25000   0.21956   0.00000  Uiso   1.00
O149   O     0.42392   0.25000   0.20097   0.00000  Uiso   1.00
O150   O     0.57608   0.25001   0.29904   0.00000  Uiso   1.00
Zn151  Zn    0.50000   0.25001   0.30307   0.00000  Uiso   1.00
Zn152  Zn    0.50000   0.25000   0.19693   0.00000  Uiso   1.00
O153   O     0.65521   0.22011   0.19270   0.00000  Uiso   1.00
C154   C     0.65909   0.17388   0.20203   0.00000  Uiso   1.00
H155   H     0.63881   0.16399   0.23262   0.00000  Uiso   1.00
H156   H     0.36726   0.16345   0.20862   0.00000  Uiso   1.00
H157   H     0.63961   0.15561   0.17030   0.00000  Uiso   1.00
O158   O     0.34520   0.28241   0.30566   0.00000  Uiso   1.00
C159   C     0.34747   0.25886   0.34921   0.00000  Uiso   1.00
H160   H     0.35209   0.22229   0.34535   0.00000  Uiso   1.00
H161   H     0.64560   0.26509   0.36598   0.00000  Uiso   1.00
H162   H     0.38165   0.27159   0.37390   0.00000  Uiso   1.00
O163   O     0.50298   0.02114   0.33431   0.00000  Uiso   1.00
C164   C     0.44956   0.01554   0.33833   0.00000  Uiso   1.00
H165   H     0.43000   0.49258   0.31054   0.00000  Uiso   1.00
H166   H     0.42901   0.04794   0.33674   0.00000  Uiso   1.00
H167   H     0.44626   0.00002   0.37339   0.00000  Uiso   1.00
O168   O     0.43512   0.47748   0.18492   0.00000  Uiso   1.00
C169   C     0.39539   0.49583   0.20756   0.00000  Uiso   1.00
H170   H     0.36159   0.00318   0.18004   0.00000  Uiso   1.00
H171   H     0.40874   0.02786   0.22497   0.00000  Uiso   1.00
H172   H     0.38113   0.47271   0.23388   0.00000  Uiso   1.00
O173   O     0.50791   0.11231   0.33757   0.00000  Uiso   1.00
C174   C     0.55969   0.11744   0.36082   0.00000  Uiso   1.00
H175   H     0.57783   0.08452   0.36984   0.00000  Uiso   1.00
H176   H     0.55894   0.13550   0.39465   0.00000  Uiso   1.00
H177   H     0.58412   0.13770   0.33908   0.00000  Uiso   1.00
O178   O     0.43000   0.38578   0.18398   0.00000  Uiso   1.00
C179   C     0.38585   0.37221   0.20482   0.00000  Uiso   1.00
H180   H     0.39613   0.35569   0.24012   0.00000  Uiso   1.00
H181   H     0.36290   0.34752   0.18103   0.00000  Uiso   1.00
H182   H     0.36024   0.40092   0.20806   0.00000  Uiso   1.00
O183   O     0.52242   0.02740   0.16626   0.00000  Uiso   1.00
C184   C     0.57499   0.01646   0.16530   0.00000  Uiso   1.00
H185   H     0.58534   0.48615   0.18710   0.00000  Uiso   1.00
H186   H     0.60256   0.04465   0.17696   0.00000  Uiso   1.00
H187   H     0.57976   0.00850   0.12813   0.00000  Uiso   1.00
O188   O     0.58357   0.47118   0.31254   0.00000  Uiso   1.00
C189   C     0.63078   0.47353   0.29332   0.00000  Uiso   1.00
H190   H     0.62851   0.49896   0.26448   0.00000  Uiso   1.00
H191   H     0.64184   0.44056   0.28036   0.00000  Uiso   1.00
H192   H     0.66244   0.48441   0.32173   0.00000  Uiso   1.00
O193   O     0.42450   0.20339   0.11883   0.00000  Uiso   1.00
C194   C     0.42114   0.15824   0.10476   0.00000  Uiso   1.00
H195   H     0.40220   0.13870   0.13110   0.00000  Uiso   1.00
H196   H     0.46025   0.14357   0.10387   0.00000  Uiso   1.00
H197   H     0.39620   0.15445   0.06969   0.00000  Uiso   1.00
O198   O     0.55147   0.31611   0.37670   0.00000  Uiso   1.00
C199   C     0.59424   0.33689   0.40536   0.00000  Uiso   1.00
H200   H     0.61851   0.31261   0.42835   0.00000  Uiso   1.00
H201   H     0.58047   0.36375   0.42694   0.00000  Uiso   1.00
H202   H     0.61984   0.35287   0.38170   0.00000  Uiso   1.00
O203   O     0.57554   0.29682   0.13719   0.00000  Uiso   1.00
C204   C     0.57051   0.34306   0.12855   0.00000  Uiso   1.00
H205   H     0.52952   0.35409   0.12796   0.00000  Uiso   1.00
H206   H     0.58503   0.35273   0.09487   0.00000  Uiso   1.00
H207   H     0.59495   0.36116   0.15793   0.00000  Uiso   1.00
O208   O     0.44716   0.18499   0.36312   0.00000  Uiso   1.00
C209   C     0.41849   0.15236   0.38507   0.00000  Uiso   1.00
H210   H     0.44508   0.13018   0.40852   0.00000  Uiso   1.00
H211   H     0.39656   0.13113   0.35685   0.00000  Uiso   1.00
H212   H     0.38917   0.16774   0.40462   0.00000  Uiso   1.00
C213   C     0.83523   0.16377   0.25050   0.00000  Uiso   1.00
C214   C     0.83336   0.33585   0.24979   0.00000  Uiso   1.00
C215   C     0.79396   0.22750   0.04769   0.00000  Uiso   1.00
C216   C     0.85757   0.28459   0.45029   0.00000  Uiso   1.00
C217   C     0.79578   0.22607   0.09780   0.00000  Uiso   1.00
C218   C     0.85970   0.28326   0.40056   0.00000  Uiso   1.00
C219   C     0.87074   0.27396   0.10713   0.00000  Uiso   1.00
C220   C     0.80734   0.21639   0.39405   0.00000  Uiso   1.00
C221   C     0.87245   0.27273   0.05763   0.00000  Uiso   1.00
C222   C     0.80905   0.21535   0.44449   0.00000  Uiso   1.00
C223   C     0.83323   0.25008   0.02669   0.00000  Uiso   1.00
C224   C     0.83331   0.24999   0.47321   0.00000  Uiso   1.00
C225   C     0.73388   0.24976   0.23781   0.00000  Uiso   1.00
C226   C     0.93282   0.25063   0.26231   0.00000  Uiso   1.00
C227   C     0.67941   0.24306   0.23251   0.00000  Uiso   1.00
C228   C     0.98759   0.25601   0.26836   0.00000  Uiso   1.00
C229   C     0.84080   0.04509   0.29314   0.00000  Uiso   1.00
C230   C     0.80246   0.45385   0.21779   0.00000  Uiso   1.00
C231   C     0.84244   0.09142   0.29459   0.00000  Uiso   1.00
C232   C     0.79906   0.40744   0.21766   0.00000  Uiso   1.00
C233   C     0.84128   0.11573   0.25174   0.00000  Uiso   1.00
C234   C     0.83485   0.38342   0.24961   0.00000  Uiso   1.00
C235   C     0.84716   0.09383   0.20953   0.00000  Uiso   1.00
C236   C     0.87356   0.40465   0.28117   0.00000  Uiso   1.00
C237   C     0.85185   0.04797   0.20899   0.00000  Uiso   1.00
C238   C     0.87900   0.45052   0.28013   0.00000  Uiso   1.00
C239   C     0.84636   0.02345   0.25048   0.00000  Uiso   1.00
C240   C     0.84289   0.47525   0.24897   0.00000  Uiso   1.00
H241   H     0.84837   0.11215   0.17667   0.00000  Uiso   1.00
H242   H     0.90070   0.38549   0.30571   0.00000  Uiso   1.00
H243   H     0.76142   0.21151   0.02560   0.00000  Uiso   1.00
H244   H     0.87406   0.31284   0.47094   0.00000  Uiso   1.00
H245   H     0.90482   0.28919   0.04400   0.00000  Uiso   1.00
H246   H     0.79201   0.18771   0.46172   0.00000  Uiso   1.00
N247   N     0.83333   0.24999   0.12624   0.00000  Uiso   1.00
N248   N     0.83333   0.25001   0.37377   0.00000  Uiso   1.00
O249   O     0.83334   0.18454   0.28974   0.00000  Uiso   1.00
O250   O     0.83333   0.31547   0.21026   0.00000  Uiso   1.00
O251   O     0.83334   0.18453   0.21026   0.00000  Uiso   1.00
O252   O     0.83333   0.31547   0.28974   0.00000  Uiso   1.00
O253   O     0.75725   0.25000   0.28045   0.00000  Uiso   1.00
O254   O     0.90942   0.25000   0.21956   0.00000  Uiso   1.00
O255   O     0.75725   0.25000   0.20097   0.00000  Uiso   1.00
O256   O     0.90942   0.25001   0.29904   0.00000  Uiso   1.00
Zn257  Zn    0.83333   0.25001   0.30307   0.00000  Uiso   1.00
Zn258  Zn    0.83333   0.25000   0.19693   0.00000  Uiso   1.00
O259   O     0.98854   0.22011   0.19270   0.00000  Uiso   1.00
C260   C     0.99242   0.17388   0.20203   0.00000  Uiso   1.00
H261   H     0.97214   0.16399   0.23262   0.00000  Uiso   1.00
H262   H     0.70060   0.16345   0.20862   0.00000  Uiso   1.00
H263   H     0.97294   0.15561   0.17030   0.00000  Uiso   1.00
O264   O     0.67853   0.28241   0.30566   0.00000  Uiso   1.00
C265   C     0.68080   0.25886   0.34921   0.00000  Uiso   1.00
H266   H     0.68542   0.22229   0.34535   0.00000  Uiso   1.00
H267   H     0.97893   0.26509   0.36598   0.00000  Uiso   1.00
H268   H     0.71498   0.27159   0.37390   0.00000  Uiso   1.00
O269   O     0.83631   0.02114   0.33431   0.00000  Uiso   1.00
C270   C     0.78289   0.01554   0.33833   0.00000  Uiso   1.00
H271   H     0.76333   0.49258   0.31054   0.00000  Uiso   1.00
H272   H     0.76234   0.04794   0.33674   0.00000  Uiso   1.00
H273   H     0.77959   0.00002   0.37339   0.00000  Uiso   1.00
O274   O     0.76846   0.47748   0.18492   0.00000  Uiso   1.00
C275   C     0.72872   0.49583   0.20756   0.00000  Uiso   1.00
H276   H     0.69492   0.00318   0.18004   0.00000  Uiso   1.00
H277   H     0.74208   0.02786   0.22497   0.00000  Uiso   1.00
H278   H     0.71446   0.47271   0.23388   0.00000  Uiso   1.00
O279   O     0.84124   0.11231   0.33757   0.00000  Uiso   1.00
C280   C     0.89302   0.11744   0.36082   0.00000  Uiso   1.00
H281   H     0.91116   0.08452   0.36984   0.00000  Uiso   1.00
H282   H     0.89227   0.13550   0.39465   0.00000  Uiso   1.00
H283   H     0.91745   0.13770   0.33908   0.00000  Uiso   1.00
O284   O     0.76334   0.38578   0.18398   0.00000  Uiso   1.00
C285   C     0.71918   0.37221   0.20482   0.00000  Uiso   1.00
H286   H     0.72946   0.35569   0.24012   0.00000  Uiso   1.00
H287   H     0.69624   0.34752   0.18103   0.00000  Uiso   1.00
H288   H     0.69358   0.40092   0.20806   0.00000  Uiso   1.00
O289   O     0.85576   0.02740   0.16626   0.00000  Uiso   1.00
C290   C     0.90833   0.01646   0.16530   0.00000  Uiso   1.00
H291   H     0.91867   0.48615   0.18710   0.00000  Uiso   1.00
H292   H     0.93590   0.04465   0.17696   0.00000  Uiso   1.00
H293   H     0.91310   0.00850   0.12813   0.00000  Uiso   1.00
O294   O     0.91690   0.47118   0.31254   0.00000  Uiso   1.00
C295   C     0.96411   0.47353   0.29332   0.00000  Uiso   1.00
H296   H     0.96184   0.49896   0.26448   0.00000  Uiso   1.00
H297   H     0.97517   0.44056   0.28036   0.00000  Uiso   1.00
H298   H     0.99577   0.48441   0.32173   0.00000  Uiso   1.00
O299   O     0.75784   0.20339   0.11883   0.00000  Uiso   1.00
C300   C     0.75447   0.15824   0.10476   0.00000  Uiso   1.00
H301   H     0.73553   0.13870   0.13110   0.00000  Uiso   1.00
H302   H     0.79358   0.14357   0.10387   0.00000  Uiso   1.00
H303   H     0.72953   0.15445   0.06969   0.00000  Uiso   1.00
O304   O     0.88480   0.31611   0.37670   0.00000  Uiso   1.00
C305   C     0.92757   0.33689   0.40536   0.00000  Uiso   1.00
H306   H     0.95184   0.31261   0.42835   0.00000  Uiso   1.00
H307   H     0.91381   0.36375   0.42694   0.00000  Uiso   1.00
H308   H     0.95317   0.35287   0.38170   0.00000  Uiso   1.00
O309   O     0.90887   0.29682   0.13719   0.00000  Uiso   1.00
C310   C     0.90385   0.34306   0.12855   0.00000  Uiso   1.00
H311   H     0.86285   0.35409   0.12796   0.00000  Uiso   1.00
H312   H     0.91836   0.35273   0.09487   0.00000  Uiso   1.00
H313   H     0.92828   0.36116   0.15793   0.00000  Uiso   1.00
O314   O     0.78049   0.18499   0.36312   0.00000  Uiso   1.00
C315   C     0.75182   0.15236   0.38507   0.00000  Uiso   1.00
H316   H     0.77842   0.13018   0.40852   0.00000  Uiso   1.00
H317   H     0.72990   0.13113   0.35685   0.00000  Uiso   1.00
H318   H     0.72250   0.16774   0.40462   0.00000  Uiso   1.00
C319   C     0.16856   0.66377   0.25050   0.00000  Uiso   1.00
C320   C     0.16669   0.83585   0.24979   0.00000  Uiso   1.00
C321   C     0.12729   0.72750   0.04769   0.00000  Uiso   1.00
C322   C     0.19090   0.78459   0.45029   0.00000  Uiso   1.00
C323   C     0.12911   0.72607   0.09780   0.00000  Uiso   1.00
C324   C     0.19304   0.78326   0.40056   0.00000  Uiso   1.00
C325   C     0.20407   0.77396   0.10713   0.00000  Uiso   1.00
C326   C     0.14068   0.71639   0.39405   0.00000  Uiso   1.00
C327   C     0.20579   0.77273   0.05763   0.00000  Uiso   1.00
C328   C     0.14238   0.71535   0.44449   0.00000  Uiso   1.00
C329   C     0.16656   0.75008   0.02669   0.00000  Uiso   1.00
C330   C     0.16664   0.74999   0.47321   0.00000  Uiso   1.00
C331   C     0.06721   0.74976   0.23781   0.00000  Uiso   1.00
C332   C     0.26616   0.75063   0.26231   0.00000  Uiso   1.00
C333   C     0.01274   0.74306   0.23251   0.00000  Uiso   1.00
C334   C     0.32092   0.75601   0.26836   0.00000  Uiso   1.00
C335   C     0.17414   0.54509   0.29314   0.00000  Uiso   1.00
C336   C     0.13580   0.95385   0.21779   0.00000  Uiso   1.00
C337   C     0.17577   0.59142   0.29459   0.00000  Uiso   1.00
C338   C     0.13239   0.90744   0.21766   0.00000  Uiso   1.00
C339   C     0.17461   0.61573   0.25174   0.00000  Uiso   1.00
C340   C     0.16818   0.88342   0.24961   0.00000  Uiso   1.00
C341   C     0.18050   0.59383   0.20953   0.00000  Uiso   1.00
C342   C     0.20690   0.90465   0.28117   0.00000  Uiso   1.00
C343   C     0.18518   0.54797   0.20899   0.00000  Uiso   1.00
C344   C     0.21234   0.95052   0.28013   0.00000  Uiso   1.00
C345   C     0.17969   0.52345   0.25048   0.00000  Uiso   1.00
C346   C     0.17622   0.97525   0.24897   0.00000  Uiso   1.00
H347   H     0.18170   0.61215   0.17667   0.00000  Uiso   1.00
H348   H     0.23404   0.88549   0.30571   0.00000  Uiso   1.00
H349   H     0.09476   0.71151   0.02560   0.00000  Uiso   1.00
H350   H     0.20739   0.81284   0.47094   0.00000  Uiso   1.00
H351   H     0.23815   0.78919   0.04400   0.00000  Uiso   1.00
H352   H     0.12534   0.68771   0.46172   0.00000  Uiso   1.00
N353   N     0.16667   0.74999   0.12624   0.00000  Uiso   1.00
N354   N     0.16667   0.75001   0.37377   0.00000  Uiso   1.00
O355   O     0.16667   0.68454   0.28974   0.00000  Uiso   1.00
O356   O     0.16666   0.81547   0.21026   0.00000  Uiso   1.00
O357   O     0.16667   0.68453   0.21026   0.00000  Uiso   1.00
O358   O     0.16666   0.81547   0.28974   0.00000  Uiso   1.00
O359   O     0.09058   0.75000   0.28045   0.00000  Uiso   1.00
O360   O     0.24275   0.75000   0.21956   0.00000  Uiso   1.00
O361   O     0.09058   0.75000   0.20097   0.00000  Uiso   1.00
O362   O     0.24275   0.75001   0.29904   0.00000  Uiso   1.00
Zn363  Zn    0.16667   0.75001   0.30307   0.00000  Uiso   1.00
Zn364  Zn    0.16667   0.75000   0.19693   0.00000  Uiso   1.00
O365   O     0.32188   0.72011   0.19270   0.00000  Uiso   1.00
C366   C     0.32575   0.67388   0.20203   0.00000  Uiso   1.00
H367   H     0.30547   0.66399   0.23262   0.00000  Uiso   1.00
H368   H     0.03393   0.66345   0.20862   0.00000  Uiso   1.00
H369   H     0.30628   0.65561   0.17030   0.00000  Uiso   1.00
O370   O     0.01186   0.78241   0.30566   0.00000  Uiso   1.00
C371   C     0.01414   0.75886   0.34921   0.00000  Uiso   1.00
H372   H     0.01876   0.72229   0.34535   0.00000  Uiso   1.00
H373   H     0.31226   0.76509   0.36598   0.00000  Uiso   1.00
H374   H     0.04831   0.77159   0.37390   0.00000  Uiso   1.00
O375   O     0.16964   0.52114   0.33431   0.00000  Uiso   1.00
C376   C     0.11622   0.51554   0.33833   0.00000  Uiso   1.00
H377   H     0.09666   0.99258   0.31054   0.00000  Uiso   1.00
H378   H     0.09567   0.54794   0.33674   0.00000  Uiso   1.00
H379   H     0.11292   0.50002   0.37339   0.00000  Uiso   1.00
O380   O     0.10179   0.97748   0.18492   0.00000  Uiso   1.00
C381   C     0.06206   0.99583   0.20756   0.00000  Uiso   1.00
H382   H     0.02826   0.50318   0.18004   0.00000  Uiso   1.00
H383   H     0.07541   0.52786   0.22497   0.00000  Uiso   1.00
H384   H     0.04780   0.97271   0.23388   0.00000  Uiso   1.00
O385   O     0.17458   0.61231   0.33757   0.00000  Uiso   1.00
C386   C     0.22636   0.61744   0.36082   0.00000  Uiso   1.00
H387   H     0.24450   0.58452   0.36984   0.00000  Uiso   1.00
H388   H     0.22561   0.63550   0.39465   0.00000  Uiso   1.00
H389   H     0.25078   0.63770   0.33908   0.00000  Uiso   1.00
O390   O     0.09667   0.88578   0.18398   0.00000  Uiso   1.00
C391   C     0.05251   0.87221   0.20482   0.00000  Uiso   1.00
H392   H     0.06280   0.85569   0.24012   0.00000  Uiso   1.00
H393   H     0.02957   0.84752   0.18103   0.00000  Uiso   1.00
H394   H     0.02691   0.90092   0.20806   0.00000  Uiso   1.00
O395   O     0.18909   0.52740   0.16626   0.00000  Uiso   1.00
C396   C     0.24166   0.51646   0.16530   0.00000  Uiso   1.00
H397   H     0.25200   0.98615   0.18710   0.00000  Uiso   1.00
H398   H     0.26923   0.54465   0.17696   0.00000  Uiso   1.00
H399   H     0.24643   0.50850   0.12813   0.00000  Uiso   1.00
O400   O     0.25024   0.97118   0.31254   0.00000  Uiso   1.00
C401   C     0.29744   0.97353   0.29332   0.00000  Uiso   1.00
H402   H     0.29518   0.99896   0.26448   0.00000  Uiso   1.00
H403   H     0.30851   0.94056   0.28036   0.00000  Uiso   1.00
H404   H     0.32911   0.98441   0.32173   0.00000  Uiso   1.00
O405   O     0.09117   0.70339   0.11883   0.00000  Uiso   1.00
C406   C     0.08781   0.65824   0.10476   0.00000  Uiso   1.00
H407   H     0.06886   0.63870   0.13110   0.00000  Uiso   1.00
H408   H     0.12692   0.64357   0.10387   0.00000  Uiso   1.00
H409   H     0.06286   0.65445   0.06969   0.00000  Uiso   1.00
O410   O     0.21813   0.81611   0.37670   0.00000  Uiso   1.00
C411   C     0.26090   0.83689   0.40536   0.00000  Uiso   1.00
H412   H     0.28517   0.81261   0.42835   0.00000  Uiso   1.00
H413   H     0.24714   0.86375   0.42694   0.00000  Uiso   1.00
H414   H     0.28651   0.85287   0.38170   0.00000  Uiso   1.00
O415   O     0.24220   0.79682   0.13719   0.00000  Uiso   1.00
C416   C     0.23718   0.84306   0.12855   0.00000  Uiso   1.00
H417   H     0.19619   0.85409   0.12796   0.00000  Uiso   1.00
H418   H     0.25169   0.85273   0.09487   0.00000  Uiso   1.00
H419   H     0.26161   0.86116   0.15793   0.00000  Uiso   1.00
O420   O     0.11382   0.68499   0.36312   0.00000  Uiso   1.00
C421   C     0.08515   0.65236   0.38507   0.00000  Uiso   1.00
H422   H     0.11175   0.63018   0.40852   0.00000  Uiso   1.00
H423   H     0.06323   0.63113   0.35685   0.00000  Uiso   1.00
H424   H     0.05584   0.66774   0.40462   0.00000  Uiso   1.00
C425   C     0.50189   0.66377   0.25050   0.00000  Uiso   1.00
C426   C     0.50002   0.83585   0.24979   0.00000  Uiso   1.00
C427   C     0.46062   0.72750   0.04769   0.00000  Uiso   1.00
C428   C     0.52423   0.78459   0.45029   0.00000  Uiso   1.00
C429   C     0.46244   0.72607   0.09780   0.00000  Uiso   1.00
C430   C     0.52637   0.78326   0.40056   0.00000  Uiso   1.00
C431   C     0.53740   0.77396   0.10713   0.00000  Uiso   1.00
C432   C     0.47401   0.71639   0.39405   0.00000  Uiso   1.00
C433   C     0.53912   0.77273   0.05763   0.00000  Uiso   1.00
C434   C     0.47571   0.71535   0.44449   0.00000  Uiso   1.00
C435   C     0.49990   0.75008   0.02669   0.00000  Uiso   1.00
C436   C     0.49998   0.74999   0.47321   0.00000  Uiso   1.00
C437   C     0.40055   0.74976   0.23781   0.00000  Uiso   1.00
C438   C     0.59949   0.75063   0.26231   0.00000  Uiso   1.00
C439   C     0.34608   0.74306   0.23251   0.00000  Uiso   1.00
C440   C     0.65426   0.75601   0.26836   0.00000  Uiso   1.00
C441   C     0.50747   0.54509   0.29314   0.00000  Uiso   1.00
C442   C     0.46913   0.95385   0.21779   0.00000  Uiso   1.00
C443   C     0.50910   0.59142   0.29459   0.00000  Uiso   1.00
C444   C     0.46572   0.90744   0.21766   0.00000  Uiso   1.00
C445   C     0.50794   0.61573   0.25174   0.00000  Uiso   1.00
C446   C     0.50152   0.88342   0.24961   0.00000  Uiso   1.00
C447   C     0.51383   0.59383   0.20953   0.00000  Uiso   1.00
C448   C     0.54023   0.90465   0.28117   0.00000  Uiso   1.00
C449   C     0.51852   0.54797   0.20899   0.00000  Uiso   1.00
C450   C     0.54567   0.95052   0.28013   0.00000  Uiso   1.00
C451   C     0.51303   0.52345   0.25048   0.00000  Uiso   1.00
C452   C     0.50955   0.97525   0.24897   0.00000  Uiso   1.00
H453   H     0.51503   0.61215   0.17667   0.00000  Uiso   1.00
H454   H     0.56737   0.88549   0.30571   0.00000  Uiso   1.00
H455   H     0.42809   0.71151   0.02560   0.00000  Uiso   1.00
H456   H     0.54073   0.81284   0.47094   0.00000  Uiso   1.00
H457   H     0.57149   0.78919   0.04400   0.00000  Uiso   1.00
H458   H     0.45867   0.68771   0.46172   0.00000  Uiso   1.00
N459   N     0.50000   0.74999   0.12624   0.00000  Uiso   1.00
N460   N     0.50000   0.75001   0.37377   0.00000  Uiso   1.00
O461   O     0.50000   0.68454   0.28974   0.00000  Uiso   1.00
O462   O     0.50000   0.81547   0.21026   0.00000  Uiso   1.00
O463   O     0.50000   0.68453   0.21026   0.00000  Uiso   1.00
O464   O     0.50000   0.81547   0.28974   0.00000  Uiso   1.00
O465   O     0.42392   0.75000   0.28045   0.00000  Uiso   1.00
O466   O     0.57608   0.75000   0.21956   0.00000  Uiso   1.00
O467   O     0.42392   0.75000   0.20097   0.00000  Uiso   1.00
O468   O     0.57608   0.75001   0.29904   0.00000  Uiso   1.00
Zn469  Zn    0.50000   0.75001   0.30307   0.00000  Uiso   1.00
Zn470  Zn    0.50000   0.75000   0.19693   0.00000  Uiso   1.00
O471   O     0.65521   0.72011   0.19270   0.00000  Uiso   1.00
C472   C     0.65909   0.67388   0.20203   0.00000  Uiso   1.00
H473   H     0.63881   0.66399   0.23262   0.00000  Uiso   1.00
H474   H     0.36726   0.66345   0.20862   0.00000  Uiso   1.00
H475   H     0.63961   0.65561   0.17030   0.00000  Uiso   1.00
O476   O     0.34520   0.78241   0.30566   0.00000  Uiso   1.00
C477   C     0.34747   0.75886   0.34921   0.00000  Uiso   1.00
H478   H     0.35209   0.72229   0.34535   0.00000  Uiso   1.00
H479   H     0.64560   0.76509   0.36598   0.00000  Uiso   1.00
H480   H     0.38165   0.77159   0.37390   0.00000  Uiso   1.00
O481   O     0.50298   0.52114   0.33431   0.00000  Uiso   1.00
C482   C     0.44956   0.51554   0.33833   0.00000  Uiso   1.00
H483   H     0.43000   0.99258   0.31054   0.00000  Uiso   1.00
H484   H     0.42901   0.54794   0.33674   0.00000  Uiso   1.00
H485   H     0.44626   0.50002   0.37339   0.00000  Uiso   1.00
O486   O     0.43512   0.97748   0.18492   0.00000  Uiso   1.00
C487   C     0.39539   0.99583   0.20756   0.00000  Uiso   1.00
H488   H     0.36159   0.50318   0.18004   0.00000  Uiso   1.00
H489   H     0.40874   0.52786   0.22497   0.00000  Uiso   1.00
H490   H     0.38113   0.97271   0.23388   0.00000  Uiso   1.00
O491   O     0.50791   0.61231   0.33757   0.00000  Uiso   1.00
C492   C     0.55969   0.61744   0.36082   0.00000  Uiso   1.00
H493   H     0.57783   0.58452   0.36984   0.00000  Uiso   1.00
H494   H     0.55894   0.63550   0.39465   0.00000  Uiso   1.00
H495   H     0.58412   0.63770   0.33908   0.00000  Uiso   1.00
O496   O     0.43000   0.88578   0.18398   0.00000  Uiso   1.00
C497   C     0.38585   0.87221   0.20482   0.00000  Uiso   1.00
H498   H     0.39613   0.85569   0.24012   0.00000  Uiso   1.00
H499   H     0.36290   0.84752   0.18103   0.00000  Uiso   1.00
H500   H     0.36024   0.90092   0.20806   0.00000  Uiso   1.00
O501   O     0.52242   0.52740   0.16626   0.00000  Uiso   1.00
C502   C     0.57499   0.51646   0.16530   0.00000  Uiso   1.00
H503   H     0.58534   0.98615   0.18710   0.00000  Uiso   1.00
H504   H     0.60256   0.54465   0.17696   0.00000  Uiso   1.00
H505   H     0.57976   0.50850   0.12813   0.00000  Uiso   1.00
O506   O     0.58357   0.97118   0.31254   0.00000  Uiso   1.00
C507   C     0.63078   0.97353   0.29332   0.00000  Uiso   1.00
H508   H     0.62851   0.99896   0.26448   0.00000  Uiso   1.00
H509   H     0.64184   0.94056   0.28036   0.00000  Uiso   1.00
H510   H     0.66244   0.98441   0.32173   0.00000  Uiso   1.00
O511   O     0.42450   0.70339   0.11883   0.00000  Uiso   1.00
C512   C     0.42114   0.65824   0.10476   0.00000  Uiso   1.00
H513   H     0.40220   0.63870   0.13110   0.00000  Uiso   1.00
H514   H     0.46025   0.64357   0.10387   0.00000  Uiso   1.00
H515   H     0.39620   0.65445   0.06969   0.00000  Uiso   1.00
O516   O     0.55147   0.81611   0.37670   0.00000  Uiso   1.00
C517   C     0.59424   0.83689   0.40536   0.00000  Uiso   1.00
H518   H     0.61851   0.81261   0.42835   0.00000  Uiso   1.00
H519   H     0.58047   0.86375   0.42694   0.00000  Uiso   1.00
H520   H     0.61984   0.85287   0.38170   0.00000  Uiso   1.00
O521   O     0.57554   0.79682   0.13719   0.00000  Uiso   1.00
C522   C     0.57051   0.84306   0.12855   0.00000  Uiso   1.00
H523   H     0.52952   0.85409   0.12796   0.00000  Uiso   1.00
H524   H     0.58503   0.85273   0.09487   0.00000  Uiso   1.00
H525   H     0.59495   0.86116   0.15793   0.00000  Uiso   1.00
O526   O     0.44716   0.68499   0.36312   0.00000  Uiso   1.00
C527   C     0.41849   0.65236   0.38507   0.00000  Uiso   1.00
H528   H     0.44508   0.63018   0.40852   0.00000  Uiso   1.00
H529   H     0.39656   0.63113   0.35685   0.00000  Uiso   1.00
H530   H     0.38917   0.66774   0.40462   0.00000  Uiso   1.00
C531   C     0.83523   0.66377   0.25050   0.00000  Uiso   1.00
C532   C     0.83336   0.83585   0.24979   0.00000  Uiso   1.00
C533   C     0.79396   0.72750   0.04769   0.00000  Uiso   1.00
C534   C     0.85757   0.78459   0.45029   0.00000  Uiso   1.00
C535   C     0.79578   0.72607   0.09780   0.00000  Uiso   1.00
C536   C     0.85970   0.78326   0.40056   0.00000  Uiso   1.00
C537   C     0.87074   0.77396   0.10713   0.00000  Uiso   1.00
C538   C     0.80734   0.71639   0.39405   0.00000  Uiso   1.00
C539   C     0.87245   0.77273   0.05763   0.00000  Uiso   1.00
C540   C     0.80905   0.71535   0.44449   0.00000  Uiso   1.00
C541   C     0.83323   0.75008   0.02669   0.00000  Uiso   1.00
C542   C     0.83331   0.74999   0.47321   0.00000  Uiso   1.00
C543   C     0.73388   0.74976   0.23781   0.00000  Uiso   1.00
C544   C     0.93282   0.75063   0.26231   0.00000  Uiso   1.00
C545   C     0.67941   0.74306   0.23251   0.00000  Uiso   1.00
C546   C     0.98759   0.75601   0.26836   0.00000  Uiso   1.00
C547   C     0.84080   0.54509   0.29314   0.00000  Uiso   1.00
C548   C     0.80246   0.95385   0.21779   0.00000  Uiso   1.00
C549   C     0.84244   0.59142   0.29459   0.00000  Uiso   1.00
C550   C     0.79906   0.90744   0.21766   0.00000  Uiso   1.00
C551   C     0.84128   0.61573   0.25174   0.00000  Uiso   1.00
C552   C     0.83485   0.88342   0.24961   0.00000  Uiso   1.00
C553   C     0.84716   0.59383   0.20953   0.00000  Uiso   1.00
C554   C     0.87356   0.90465   0.28117   0.00000  Uiso   1.00
C555   C     0.85185   0.54797   0.20899   0.00000  Uiso   1.00
C556   C     0.87900   0.95052   0.28013   0.00000  Uiso   1.00
C557   C     0.84636   0.52345   0.25048   0.00000  Uiso   1.00
C558   C     0.84289   0.97525   0.24897   0.00000  Uiso   1.00
H559   H     0.84837   0.61215   0.17667   0.00000  Uiso   1.00
H560   H     0.90070   0.88549   0.30571   0.00000  Uiso   1.00
H561   H     0.76142   0.71151   0.02560   0.00000  Uiso   1.00
H562   H     0.87406   0.81284   0.47094   0.00000  Uiso   1.00
H563   H     0.90482   0.78919   0.04400   0.00000  Uiso   1.00
H564   H     0.79201   0.68771   0.46172   0.00000  Uiso   1.00
N565   N     0.83333   0.74999   0.12624   0.00000  Uiso   1.00
N566   N     0.83333   0.75001   0.37377   0.00000  Uiso   1.00
O567   O     0.83334   0.68454   0.28974   0.00000  Uiso   1.00
O568   O     0.83333   0.81547   0.21026   0.00000  Uiso   1.00
O569   O     0.83334   0.68453   0.21026   0.00000  Uiso   1.00
O570   O     0.83333   0.81547   0.28974   0.00000  Uiso   1.00
O571   O     0.75725   0.75000   0.28045   0.00000  Uiso   1.00
O572   O     0.90942   0.75000   0.21956   0.00000  Uiso   1.00
O573   O     0.75725   0.75000   0.20097   0.00000  Uiso   1.00
O574   O     0.90942   0.75001   0.29904   0.00000  Uiso   1.00
Zn575  Zn    0.83333   0.75001   0.30307   0.00000  Uiso   1.00
Zn576  Zn    0.83333   0.75000   0.19693   0.00000  Uiso   1.00
O577   O     0.98854   0.72011   0.19270   0.00000  Uiso   1.00
C578   C     0.99242   0.67388   0.20203   0.00000  Uiso   1.00
H579   H     0.97214   0.66399   0.23262   0.00000  Uiso   1.00
H580   H     0.70060   0.66345   0.20862   0.00000  Uiso   1.00
H581   H     0.97294   0.65561   0.17030   0.00000  Uiso   1.00
O582   O     0.67853   0.78241   0.30566   0.00000  Uiso   1.00
C583   C     0.68080   0.75886   0.34921   0.00000  Uiso   1.00
H584   H     0.68542   0.72229   0.34535   0.00000  Uiso   1.00
H585   H     0.97893   0.76509   0.36598   0.00000  Uiso   1.00
H586   H     0.71498   0.77159   0.37390   0.00000  Uiso   1.00
O587   O     0.83631   0.52114   0.33431   0.00000  Uiso   1.00
C588   C     0.78289   0.51554   0.33833   0.00000  Uiso   1.00
H589   H     0.76333   0.99258   0.31054   0.00000  Uiso   1.00
H590   H     0.76234   0.54794   0.33674   0.00000  Uiso   1.00
H591   H     0.77959   0.50002   0.37339   0.00000  Uiso   1.00
O592   O     0.76846   0.97748   0.18492   0.00000  Uiso   1.00
C593   C     0.72872   0.99583   0.20756   0.00000  Uiso   1.00
H594   H     0.69492   0.50318   0.18004   0.00000  Uiso   1.00
H595   H     0.74208   0.52786   0.22497   0.00000  Uiso   1.00
H596   H     0.71446   0.97271   0.23388   0.00000  Uiso   1.00
O597   O     0.84124   0.61231   0.33757   0.00000  Uiso   1.00
C598   C     0.89302   0.61744   0.36082   0.00000  Uiso   1.00
H599   H     0.91116   0.58452   0.36984   0.00000  Uiso   1.00
H600   H     0.89227   0.63550   0.39465   0.00000  Uiso   1.00
H601   H     0.91745   0.63770   0.33908   0.00000  Uiso   1.00
O602   O     0.76334   0.88578   0.18398   0.00000  Uiso   1.00
C603   C     0.71918   0.87221   0.20482   0.00000  Uiso   1.00
H604   H     0.72946   0.85569   0.24012   0.00000  Uiso   1.00
H605   H     0.69624   0.84752   0.18103   0.00000  Uiso   1.00
H606   H     0.69358   0.90092   0.20806   0.00000  Uiso   1.00
O607   O     0.85576   0.52740   0.16626   0.00000  Uiso   1.00
C608   C     0.90833   0.51646   0.16530   0.00000  Uiso   1.00
H609   H     0.91867   0.98615   0.18710   0.00000  Uiso   1.00
H610   H     0.93590   0.54465   0.17696   0.00000  Uiso   1.00
H611   H     0.91310   0.50850   0.12813   0.00000  Uiso   1.00
O612   O     0.91690   0.97118   0.31254   0.00000  Uiso   1.00
C613   C     0.96411   0.97353   0.29332   0.00000  Uiso   1.00
H614   H     0.96184   0.99896   0.26448   0.00000  Uiso   1.00
H615   H     0.97517   0.94056   0.28036   0.00000  Uiso   1.00
H616   H     0.99577   0.98441   0.32173   0.00000  Uiso   1.00
O617   O     0.75784   0.70339   0.11883   0.00000  Uiso   1.00
C618   C     0.75447   0.65824   0.10476   0.00000  Uiso   1.00
H619   H     0.73553   0.63870   0.13110   0.00000  Uiso   1.00
H620   H     0.79358   0.64357   0.10387   0.00000  Uiso   1.00
H621   H     0.72953   0.65445   0.06969   0.00000  Uiso   1.00
O622   O     0.88480   0.81611   0.37670   0.00000  Uiso   1.00
C623   C     0.92757   0.83689   0.40536   0.00000  Uiso   1.00
H624   H     0.95184   0.81261   0.42835   0.00000  Uiso   1.00
H625   H     0.91381   0.86375   0.42694   0.00000  Uiso   1.00
H626   H     0.95317   0.85287   0.38170   0.00000  Uiso   1.00
O627   O     0.90887   0.79682   0.13719   0.00000  Uiso   1.00
C628   C     0.90385   0.84306   0.12855   0.00000  Uiso   1.00
H629   H     0.86285   0.85409   0.12796   0.00000  Uiso   1.00
H630   H     0.91836   0.85273   0.09487   0.00000  Uiso   1.00
H631   H     0.92828   0.86116   0.15793   0.00000  Uiso   1.00
O632   O     0.78049   0.68499   0.36312   0.00000  Uiso   1.00
C633   C     0.75182   0.65236   0.38507   0.00000  Uiso   1.00
H634   H     0.77842   0.63018   0.40852   0.00000  Uiso   1.00
H635   H     0.72990   0.63113   0.35685   0.00000  Uiso   1.00
H636   H     0.72250   0.66774   0.40462   0.00000  Uiso   1.00
C637   C     0.16856   0.16377   0.75050   0.00000  Uiso   1.00
C638   C     0.16669   0.33585   0.74979   0.00000  Uiso   1.00
C639   C     0.12729   0.22750   0.54769   0.00000  Uiso   1.00
C640   C     0.19090   0.28459   0.95029   0.00000  Uiso   1.00
C641   C     0.12911   0.22607   0.59780   0.00000  Uiso   1.00
C642   C     0.19304   0.28326   0.90056   0.00000  Uiso   1.00
C643   C     0.20407   0.27396   0.60713   0.00000  Uiso   1.00
C644   C     0.14068   0.21639   0.89405   0.00000  Uiso   1.00
C645   C     0.20579   0.27273   0.55763   0.00000  Uiso   1.00
C646   C     0.14238   0.21535   0.94449   0.00000  Uiso   1.00
C647   C     0.16656   0.25008   0.52669   0.00000  Uiso   1.00
C648   C     0.16664   0.24999   0.97321   0.00000  Uiso   1.00
C649   C     0.06721   0.24976   0.73781   0.00000  Uiso   1.00
C650   C     0.26616   0.25063   0.76231   0.00000  Uiso   1.00
C651   C     0.01274   0.24306   0.73251   0.00000  Uiso   1.00
C652   C     0.32092   0.25601   0.76836   0.00000  Uiso   1.00
C653   C     0.17414   0.04509   0.79314   0.00000  Uiso   1.00
C654   C     0.13580   0.45385   0.71779   0.00000  Uiso   1.00
C655   C     0.17577   0.09142   0.79459   0.00000  Uiso   1.00
C656   C     0.13239   0.40744   0.71766   0.00000  Uiso   1.00
C657   C     0.17461   0.11573   0.75174   0.00000  Uiso   1.00
C658   C     0.16818   0.38342   0.74961   0.00000  Uiso   1.00
C659   C     0.18050   0.09383   0.70953   0.00000  Uiso   1.00
C660   C     0.20690   0.40465   0.78117   0.00000  Uiso   1.00
C661   C     0.18518   0.04797   0.70899   0.00000  Uiso   1.00
C662   C     0.21234   0.45052   0.78013   0.00000  Uiso   1.00
C663   C     0.17969   0.02345   0.75048   0.00000  Uiso   1.00
C664   C     0.17622   0.47525   0.74897   0.00000  Uiso   1.00
H665   H     0.18170   0.11215   0.67667   0.00000  Uiso   1.00
H666   H     0.23404   0.38549   0.80571   0.00000  Uiso   1.00
H667   H     0.09476   0.21151   0.52560   0.00000  Uiso   1.00
H668   H     0.20739   0.31284   0.97094   0.00000  Uiso   1.00
H669   H     0.23815   0.28919   0.54400   0.00000  Uiso   1.00
H670   H     0.12534   0.18771   0.96172   0.00000  Uiso   1.00
N671   N     0.16667   0.24999   0.62624   0.00000  Uiso   1.00
N672   N     0.16667   0.25001   0.87377   0.00000  Uiso   1.00
O673   O     0.16667   0.18454   0.78974   0.00000  Uiso   1.00
O674   O     0.16666   0.31547   0.71026   0.00000  Uiso   1.00
O675   O     0.16667   0.18453   0.71026   0.00000  Uiso   1.00
O676   O     0.16666   0.31547   0.78974   0.00000  Uiso   1.00
O677   O     0.09058   0.25000   0.78045   0.00000  Uiso   1.00
O678   O     0.24275   0.25000   0.71956   0.00000  Uiso   1.00
O679   O     0.09058   0.25000   0.70097   0.00000  Uiso   1.00
O680   O     0.24275   0.25001   0.79904   0.00000  Uiso   1.00
Zn681  Zn    0.16667   0.25001   0.80307   0.00000  Uiso   1.00
Zn682  Zn    0.16667   0.25000   0.69693   0.00000  Uiso   1.00
O683   O     0.32188   0.22011   0.69270   0.00000  Uiso   1.00
C684   C     0.32575   0.17388   0.70203   0.00000  Uiso   1.00
H685   H     0.30547   0.16399   0.73262   0.00000  Uiso   1.00
H686   H     0.03393   0.16345   0.70862   0.00000  Uiso   1.00
H687   H     0.30628   0.15561   0.67030   0.00000  Uiso   1.00
O688   O     0.01186   0.28241   0.80566   0.00000  Uiso   1.00
C689   C     0.01414   0.25886   0.84921   0.00000  Uiso   1.00
H690   H     0.01876   0.22229   0.84535   0.00000  Uiso   1.00
H691   H     0.31226   0.26509   0.86598   0.00000  Uiso   1.00
H692   H     0.04831   0.27159   0.87390   0.00000  Uiso   1.00
O693   O     0.16964   0.02114   0.83431   0.00000  Uiso   1.00
C694   C     0.11622   0.01554   0.83833   0.00000  Uiso   1.00
H695   H     0.09666   0.49258   0.81054   0.00000  Uiso   1.00
H696   H     0.09567   0.04794   0.83674   0.00000  Uiso   1.00
H697   H     0.11292   0.00002   0.87339   0.00000  Uiso   1.00
O698   O     0.10179   0.47748   0.68492   0.00000  Uiso   1.00
C699   C     0.06206   0.49583   0.70756   0.00000  Uiso   1.00
H700   H     0.02826   0.00318   0.68004   0.00000  Uiso   1.00
H701   H     0.07541   0.02786   0.72497   0.00000  Uiso   1.00
H702   H     0.04780   0.47271   0.73388   0.00000  Uiso   1.00
O703   O     0.17458   0.11231   0.83757   0.00000  Uiso   1.00
C704   C     0.22636   0.11744   0.86082   0.00000  Uiso   1.00
H705   H     0.24450   0.08452   0.86984   0.00000  Uiso   1.00
H706   H     0.22561   0.13550   0.89465   0.00000  Uiso   1.00
H707   H     0.25078   0.13770   0.83908   0.00000  Uiso   1.00
O708   O     0.09667   0.38578   0.68398   0.00000  Uiso   1.00
C709   C     0.05251   0.37221   0.70482   0.00000  Uiso   1.00
H710   H     0.06280   0.35569   0.74012   0.00000  Uiso   1.00
H711   H     0.02957   0.34752   0.68103   0.00000  Uiso   1.00
H712   H     0.02691   0.40092   0.70806   0.00000  Uiso   1.00
O713   O     0.18909   0.02740   0.66626   0.00000  Uiso   1.00
C714   C     0.24166   0.01646   0.66530   0.00000  Uiso   1.00
H715   H     0.25200   0.48615   0.68710   0.00000  Uiso   1.00
H716   H     0.26923   0.04465   0.67696   0.00000  Uiso   1.00
H717   H     0.24643   0.00850   0.62813   0.00000  Uiso   1.00
O718   O     0.25024   0.47118   0.81254   0.00000  Uiso   1.00
C719   C     0.29744   0.47353   0.79332   0.00000  Uiso   1.00
H720   H     0.29518   0.49896   0.76448   0.00000  Uiso   1.00
H721   H     0.30851   0.44056   0.78036   0.00000  Uiso   1.00
H722   H     0.32911   0.48441   0.82173   0.00000  Uiso   1.00
O723   O     0.09117   0.20339   0.61883   0.00000  Uiso   1.00
C724   C     0.08781   0.15824   0.60476   0.00000  Uiso   1.00
H725   H     0.06886   0.13870   0.63110   0.00000  Uiso   1.00
H726   H     0.12692   0.14357   0.60387   0.00000  Uiso   1.00
H727   H     0.06286   0.15445   0.56969   0.00000  Uiso   1.00
O728   O     0.21813   0.31611   0.87670   0.00000  Uiso   1.00
C729   C     0.26090   0.33689   0.90536   0.00000  Uiso   1.00
H730   H     0.28517   0.31261   0.92835   0.00000  Uiso   1.00
H731   H     0.24714   0.36375   0.92694   0.00000  Uiso   1.00
H732   H     0.28651   0.35287   0.88170   0.00000  Uiso   1.00
O733   O     0.24220   0.29682   0.63719   0.00000  Uiso   1.00
C734   C     0.23718   0.34306   0.62855   0.00000  Uiso   1.00
H735   H     0.19619   0.35409   0.62796   0.00000  Uiso   1.00
H736   H     0.25169   0.35273   0.59487   0.00000  Uiso   1.00
H737   H     0.26161   0.36116   0.65793   0.00000  Uiso   1.00
O738   O     0.11382   0.18499   0.86312   0.00000  Uiso   1.00
C739   C     0.08515   0.15236   0.88507   0.00000  Uiso   1.00
H740   H     0.11175   0.13018   0.90852   0.00000  Uiso   1.00
H741   H     0.06323   0.13113   0.85685   0.00000  Uiso   1.00
H742   H     0.05584   0.16774   0.90462   0.00000  Uiso   1.00
C743   C     0.50189   0.16377   0.75050   0.00000  Uiso   1.00
C744   C     0.50002   0.33585   0.74979   0.00000  Uiso   1.00
C745   C     0.46062   0.22750   0.54769   0.00000  Uiso   1.00
C746   C     0.52423   0.28459   0.95029   0.00000  Uiso   1.00
C747   C     0.46244   0.22607   0.59780   0.00000  Uiso   1.00
C748   C     0.52637   0.28326   0.90056   0.00000  Uiso   1.00
C749   C     0.53740   0.27396   0.60713   0.00000  Uiso   1.00
C750   C     0.47401   0.21639   0.89405   0.00000  Uiso   1.00
C751   C     0.53912   0.27273   0.55763   0.00000  Uiso   1.00
C752   C     0.47571   0.21535   0.94449   0.00000  Uiso   1.00
C753   C     0.49990   0.25008   0.52669   0.00000  Uiso   1.00
C754   C     0.49998   0.24999   0.97321   0.00000  Uiso   1.00
C755   C     0.40055   0.24976   0.73781   0.00000  Uiso   1.00
C756   C     0.59949   0.25063   0.76231   0.00000  Uiso   1.00
C757   C     0.34608   0.24306   0.73251   0.00000  Uiso   1.00
C758   C     0.65426   0.25601   0.76836   0.00000  Uiso   1.00
C759   C     0.50747   0.04509   0.79314   0.00000  Uiso   1.00
C760   C     0.46913   0.45385   0.71779   0.00000  Uiso   1.00
C761   C     0.50910   0.09142   0.79459   0.00000  Uiso   1.00
C762   C     0.46572   0.40744   0.71766   0.00000  Uiso   1.00
C763   C     0.50794   0.11573   0.75174   0.00000  Uiso   1.00
C764   C     0.50152   0.38342   0.74961   0.00000  Uiso   1.00
C765   C     0.51383   0.09383   0.70953   0.00000  Uiso   1.00
C766   C     0.54023   0.40465   0.78117   0.00000  Uiso   1.00
C767   C     0.51852   0.04797   0.70899   0.00000  Uiso   1.00
C768   C     0.54567   0.45052   0.78013   0.00000  Uiso   1.00
C769   C     0.51303   0.02345   0.75048   0.00000  Uiso   1.00
C770   C     0.50955   0.47525   0.74897   0.00000  Uiso   1.00
H771   H     0.51503   0.11215   0.67667   0.00000  Uiso   1.00
H772   H     0.56737   0.38549   0.80571   0.00000  Uiso   1.00
H773   H     0.42809   0.21151   0.52560   0.00000  Uiso   1.00
H774   H     0.54073   0.31284   0.97094   0.00000  Uiso   1.00
H775   H     0.57149   0.28919   0.54400   0.00000  Uiso   1.00
H776   H     0.45867   0.18771   0.96172   0.00000  Uiso   1.00
N777   N     0.50000   0.24999   0.62624   0.00000  Uiso   1.00
N778   N     0.50000   0.25001   0.87377   0.00000  Uiso   1.00
O779   O     0.50000   0.18454   0.78974   0.00000  Uiso   1.00
O780   O     0.50000   0.31547   0.71026   0.00000  Uiso   1.00
O781   O     0.50000   0.18453   0.71026   0.00000  Uiso   1.00
O782   O     0.50000   0.31547   0.78974   0.00000  Uiso   1.00
O783   O     0.42392   0.25000   0.78045   0.00000  Uiso   1.00
O784   O     0.57608   0.25000   0.71956   0.00000  Uiso   1.00
O785   O     0.42392   0.25000   0.70097   0.00000  Uiso   1.00
O786   O     0.57608   0.25001   0.79904   0.00000  Uiso   1.00
Zn787  Zn    0.50000   0.25001   0.80307   0.00000  Uiso   1.00
Zn788  Zn    0.50000   0.25000   0.69693   0.00000  Uiso   1.00
O789   O     0.65521   0.22011   0.69270   0.00000  Uiso   1.00
C790   C     0.65909   0.17388   0.70203   0.00000  Uiso   1.00
H791   H     0.63881   0.16399   0.73262   0.00000  Uiso   1.00
H792   H     0.36726   0.16345   0.70862   0.00000  Uiso   1.00
H793   H     0.63961   0.15561   0.67030   0.00000  Uiso   1.00
O794   O     0.34520   0.28241   0.80566   0.00000  Uiso   1.00
C795   C     0.34747   0.25886   0.84921   0.00000  Uiso   1.00
H796   H     0.35209   0.22229   0.84535   0.00000  Uiso   1.00
H797   H     0.64560   0.26509   0.86598   0.00000  Uiso   1.00
H798   H     0.38165   0.27159   0.87390   0.00000  Uiso   1.00
O799   O     0.50298   0.02114   0.83431   0.00000  Uiso   1.00
C800   C     0.44956   0.01554   0.83833   0.00000  Uiso   1.00
H801   H     0.43000   0.49258   0.81054   0.00000  Uiso   1.00
H802   H     0.42901   0.04794   0.83674   0.00000  Uiso   1.00
H803   H     0.44626   0.00002   0.87339   0.00000  Uiso   1.00
O804   O     0.43512   0.47748   0.68492   0.00000  Uiso   1.00
C805   C     0.39539   0.49583   0.70756   0.00000  Uiso   1.00
H806   H     0.36159   0.00318   0.68004   0.00000  Uiso   1.00
H807   H     0.40874   0.02786   0.72497   0.00000  Uiso   1.00
H808   H     0.38113   0.47271   0.73388   0.00000  Uiso   1.00
O809   O     0.50791   0.11231   0.83757   0.00000  Uiso   1.00
C810   C     0.55969   0.11744   0.86082   0.00000  Uiso   1.00
H811   H     0.57783   0.08452   0.86984   0.00000  Uiso   1.00
H812   H     0.55894   0.13550   0.89465   0.00000  Uiso   1.00
H813   H     0.58412   0.13770   0.83908   0.00000  Uiso   1.00
O814   O     0.43000   0.38578   0.68398   0.00000  Uiso   1.00
C815   C     0.38585   0.37221   0.70482   0.00000  Uiso   1.00
H816   H     0.39613   0.35569   0.74012   0.00000  Uiso   1.00
H817   H     0.36290   0.34752   0.68103   0.00000  Uiso   1.00
H818   H     0.36024   0.40092   0.70806   0.00000  Uiso   1.00
O819   O     0.52242   0.02740   0.66626   0.00000  Uiso   1.00
C820   C     0.57499   0.01646   0.66530   0.00000  Uiso   1.00
H821   H     0.58534   0.48615   0.68710   0.00000  Uiso   1.00
H822   H     0.60256   0.04465   0.67696   0.00000  Uiso   1.00
H823   H     0.57976   0.00850   0.62813   0.00000  Uiso   1.00
O824   O     0.58357   0.47118   0.81254   0.00000  Uiso   1.00
C825   C     0.63078   0.47353   0.79332   0.00000  Uiso   1.00
H826   H     0.62851   0.49896   0.76448   0.00000  Uiso   1.00
H827   H     0.64184   0.44056   0.78036   0.00000  Uiso   1.00
H828   H     0.66244   0.48441   0.82173   0.00000  Uiso   1.00
O829   O     0.42450   0.20339   0.61883   0.00000  Uiso   1.00
C830   C     0.42114   0.15824   0.60476   0.00000  Uiso   1.00
H831   H     0.40220   0.13870   0.63110   0.00000  Uiso   1.00
H832   H     0.46025   0.14357   0.60387   0.00000  Uiso   1.00
H833   H     0.39620   0.15445   0.56969   0.00000  Uiso   1.00
O834   O     0.55147   0.31611   0.87670   0.00000  Uiso   1.00
C835   C     0.59424   0.33689   0.90536   0.00000  Uiso   1.00
H836   H     0.61851   0.31261   0.92835   0.00000  Uiso   1.00
H837   H     0.58047   0.36375   0.92694   0.00000  Uiso   1.00
H838   H     0.61984   0.35287   0.88170   0.00000  Uiso   1.00
O839   O     0.57554   0.29682   0.63719   0.00000  Uiso   1.00
C840   C     0.57051   0.34306   0.62855   0.00000  Uiso   1.00
H841   H     0.52952   0.35409   0.62796   0.00000  Uiso   1.00
H842   H     0.58503   0.35273   0.59487   0.00000  Uiso   1.00
H843   H     0.59495   0.36116   0.65793   0.00000  Uiso   1.00
O844   O     0.44716   0.18499   0.86312   0.00000  Uiso   1.00
C845   C     0.41849   0.15236   0.88507   0.00000  Uiso   1.00
H846   H     0.44508   0.13018   0.90852   0.00000  Uiso   1.00
H847   H     0.39656   0.13113   0.85685   0.00000  Uiso   1.00
H848   H     0.38917   0.16774   0.90462   0.00000  Uiso   1.00
C849   C     0.83523   0.16377   0.75050   0.00000  Uiso   1.00
C850   C     0.83336   0.33585   0.74979   0.00000  Uiso   1.00
C851   C     0.79396   0.22750   0.54769   0.00000  Uiso   1.00
C852   C     0.85757   0.28459   0.95029   0.00000  Uiso   1.00
C853   C     0.79578   0.22607   0.59780   0.00000  Uiso   1.00
C854   C     0.85970   0.28326   0.90056   0.00000  Uiso   1.00
C855   C     0.87074   0.27396   0.60713   0.00000  Uiso   1.00
C856   C     0.80734   0.21639   0.89405   0.00000  Uiso   1.00
C857   C     0.87245   0.27273   0.55763   0.00000  Uiso   1.00
C858   C     0.80905   0.21535   0.94449   0.00000  Uiso   1.00
C859   C     0.83323   0.25008   0.52669   0.00000  Uiso   1.00
C860   C     0.83331   0.24999   0.97321   0.00000  Uiso   1.00
C861   C     0.73388   0.24976   0.73781   0.00000  Uiso   1.00
C862   C     0.93282   0.25063   0.76231   0.00000  Uiso   1.00
C863   C     0.67941   0.24306   0.73251   0.00000  Uiso   1.00
C864   C     0.98759   0.25601   0.76836   0.00000  Uiso   1.00
C865   C     0.84080   0.04509   0.79314   0.00000  Uiso   1.00
C866   C     0.80246   0.45385   0.71779   0.00000  Uiso   1.00
C867   C     0.84244   0.09142   0.79459   0.00000  Uiso   1.00
C868   C     0.79906   0.40744   0.71766   0.00000  Uiso   1.00
C869   C     0.84128   0.11573   0.75174   0.00000  Uiso   1.00
C870   C     0.83485   0.38342   0.74961   0.00000  Uiso   1.00
C871   C     0.84716   0.09383   0.70953   0.00000  Uiso   1.00
C872   C     0.87356   0.40465   0.78117   0.00000  Uiso   1.00
C873   C     0.85185   0.04797   0.70899   0.00000  Uiso   1.00
C874   C     0.87900   0.45052   0.78013   0.00000  Uiso   1.00
C875   C     0.84636   0.02345   0.75048   0.00000  Uiso   1.00
C876   C     0.84289   0.47525   0.74897   0.00000  Uiso   1.00
H877   H     0.84837   0.11215   0.67667   0.00000  Uiso   1.00
H878   H     0.90070   0.38549   0.80571   0.00000  Uiso   1.00
H879   H     0.76142   0.21151   0.52560   0.00000  Uiso   1.00
H880   H     0.87406   0.31284   0.97094   0.00000  Uiso   1.00
H881   H     0.90482   0.28919   0.54400   0.00000  Uiso   1.00
H882   H     0.79201   0.18771   0.96172   0.00000  Uiso   1.00
N883   N     0.83333   0.24999   0.62624   0.00000  Uiso   1.00
N884   N     0.83333   0.25001   0.87377   0.00000  Uiso   1.00
O885   O     0.83334   0.18454   0.78974   0.00000  Uiso   1.00
O886   O     0.83333   0.31547   0.71026   0.00000  Uiso   1.00
O887   O     0.83334   0.18453   0.71026   0.00000  Uiso   1.00
O888   O     0.83333   0.31547   0.78974   0.00000  Uiso   1.00
O889   O     0.75725   0.25000   0.78045   0.00000  Uiso   1.00
O890   O     0.90942   0.25000   0.71956   0.00000  Uiso   1.00
O891   O     0.75725   0.25000   0.70097   0.00000  Uiso   1.00
O892   O     0.90942   0.25001   0.79904   0.00000  Uiso   1.00
Zn893  Zn    0.83333   0.25001   0.80307   0.00000  Uiso   1.00
Zn894  Zn    0.83333   0.25000   0.69693   0.00000  Uiso   1.00
O895   O     0.98854   0.22011   0.69270   0.00000  Uiso   1.00
C896   C     0.99242   0.17388   0.70203   0.00000  Uiso   1.00
H897   H     0.97214   0.16399   0.73262   0.00000  Uiso   1.00
H898   H     0.70060   0.16345   0.70862   0.00000  Uiso   1.00
H899   H     0.97294   0.15561   0.67030   0.00000  Uiso   1.00
O900   O     0.67853   0.28241   0.80566   0.00000  Uiso   1.00
C901   C     0.68080   0.25886   0.84921   0.00000  Uiso   1.00
H902   H     0.68542   0.22229   0.84535   0.00000  Uiso   1.00
H903   H     0.97893   0.26509   0.86598   0.00000  Uiso   1.00
H904   H     0.71498   0.27159   0.87390   0.00000  Uiso   1.00
O905   O     0.83631   0.02114   0.83431   0.00000  Uiso   1.00
C906   C     0.78289   0.01554   0.83833   0.00000  Uiso   1.00
H907   H     0.76333   0.49258   0.81054   0.00000  Uiso   1.00
H908   H     0.76234   0.04794   0.83674   0.00000  Uiso   1.00
H909   H     0.77959   0.00002   0.87339   0.00000  Uiso   1.00
O910   O     0.76846   0.47748   0.68492   0.00000  Uiso   1.00
C911   C     0.72872   0.49583   0.70756   0.00000  Uiso   1.00
H912   H     0.69492   0.00318   0.68004   0.00000  Uiso   1.00
H913   H     0.74208   0.02786   0.72497   0.00000  Uiso   1.00
H914   H     0.71446   0.47271   0.73388   0.00000  Uiso   1.00
O915   O     0.84124   0.11231   0.83757   0.00000  Uiso   1.00
C916   C     0.89302   0.11744   0.86082   0.00000  Uiso   1.00
H917   H     0.91116   0.08452   0.86984   0.00000  Uiso   1.00
H918   H     0.89227   0.13550   0.89465   0.00000  Uiso   1.00
H919   H     0.91745   0.13770   0.83908   0.00000  Uiso   1.00
O920   O     0.76334   0.38578   0.68398   0.00000  Uiso   1.00
C921   C     0.71918   0.37221   0.70482   0.00000  Uiso   1.00
H922   H     0.72946   0.35569   0.74012   0.00000  Uiso   1.00
H923   H     0.69624   0.34752   0.68103   0.00000  Uiso   1.00
H924   H     0.69358   0.40092   0.70806   0.00000  Uiso   1.00
O925   O     0.85576   0.02740   0.66626   0.00000  Uiso   1.00
C926   C     0.90833   0.01646   0.66530   0.00000  Uiso   1.00
H927   H     0.91867   0.48615   0.68710   0.00000  Uiso   1.00
H928   H     0.93590   0.04465   0.67696   0.00000  Uiso   1.00
H929   H     0.91310   0.00850   0.62813   0.00000  Uiso   1.00
O930   O     0.91690   0.47118   0.81254   0.00000  Uiso   1.00
C931   C     0.96411   0.47353   0.79332   0.00000  Uiso   1.00
H932   H     0.96184   0.49896   0.76448   0.00000  Uiso   1.00
H933   H     0.97517   0.44056   0.78036   0.00000  Uiso   1.00
H934   H     0.99577   0.48441   0.82173   0.00000  Uiso   1.00
O935   O     0.75784   0.20339   0.61883   0.00000  Uiso   1.00
C936   C     0.75447   0.15824   0.60476   0.00000  Uiso   1.00
H937   H     0.73553   0.13870   0.63110   0.00000  Uiso   1.00
H938   H     0.79358   0.14357   0.60387   0.00000  Uiso   1.00
H939   H     0.72953   0.15445   0.56969   0.00000  Uiso   1.00
O940   O     0.88480   0.31611   0.87670   0.00000  Uiso   1.00
C941   C     0.92757   0.33689   0.90536   0.00000  Uiso   1.00
H942   H     0.95184   0.31261   0.92835   0.00000  Uiso   1.00
H943   H     0.91381   0.36375   0.92694   0.00000  Uiso   1.00
H944   H     0.95317   0.35287   0.88170   0.00000  Uiso   1.00
O945   O     0.90887   0.29682   0.63719   0.00000  Uiso   1.00
C946   C     0.90385   0.34306   0.62855   0.00000  Uiso   1.00
H947   H     0.86285   0.35409   0.62796   0.00000  Uiso   1.00
H948   H     0.91836   0.35273   0.59487   0.00000  Uiso   1.00
H949   H     0.92828   0.36116   0.65793   0.00000  Uiso   1.00
O950   O     0.78049   0.18499   0.86312   0.00000  Uiso   1.00
C951   C     0.75182   0.15236   0.88507   0.00000  Uiso   1.00
H952   H     0.77842   0.13018   0.90852   0.00000  Uiso   1.00
H953   H     0.72990   0.13113   0.85685   0.00000  Uiso   1.00
H954   H     0.72250   0.16774   0.90462   0.00000  Uiso   1.00
C955   C     0.16856   0.66377   0.75050   0.00000  Uiso   1.00
C956   C     0.16669   0.83585   0.74979   0.00000  Uiso   1.00
C957   C     0.12729   0.72750   0.54769   0.00000  Uiso   1.00
C958   C     0.19090   0.78459   0.95029   0.00000  Uiso   1.00
C959   C     0.12911   0.72607   0.59780   0.00000  Uiso   1.00
C960   C     0.19304   0.78326   0.90056   0.00000  Uiso   1.00
C961   C     0.20407   0.77396   0.60713   0.00000  Uiso   1.00
C962   C     0.14068   0.71639   0.89405   0.00000  Uiso   1.00
C963   C     0.20579   0.77273   0.55763   0.00000  Uiso   1.00
C964   C     0.14238   0.71535   0.94449   0.00000  Uiso   1.00
C965   C     0.16656   0.75008   0.52669   0.00000  Uiso   1.00
C966   C     0.16664   0.74999   0.97321   0.00000  Uiso   1.00
C967   C     0.06721   0.74976   0.73781   0.00000  Uiso   1.00
C968   C     0.26616   0.75063   0.76231   0.00000  Uiso   1.00
C969   C     0.01274   0.74306   0.73251   0.00000  Uiso   1.00
C970   C     0.32092   0.75601   0.76836   0.00000  Uiso   1.00
C971   C     0.17414   0.54509   0.79314   0.00000  Uiso   1.00
C972   C     0.13580   0.95385   0.71779   0.00000  Uiso   1.00
C973   C     0.17577   0.59142   0.79459   0.00000  Uiso   1.00
C974   C     0.13239   0.90744   0.71766   0.00000  Uiso   1.00
C975   C     0.17461   0.61573   0.75174   0.00000  Uiso   1.00
C976   C     0.16818   0.88342   0.74961   0.00000  Uiso   1.00
C977   C     0.18050   0.59383   0.70953   0.00000  Uiso   1.00
C978   C     0.20690   0.90465   0.78117   0.00000  Uiso   1.00
C979   C     0.18518   0.54797   0.70899   0.00000  Uiso   1.00
C980   C     0.21234   0.95052   0.78013   0.00000  Uiso   1.00
C981   C     0.17969   0.52345   0.75048   0.00000  Uiso   1.00
C982   C     0.17622   0.97525   0.74897   0.00000  Uiso   1.00
H983   H     0.18170   0.61215   0.67667   0.00000  Uiso   1.00
H984   H     0.23404   0.88549   0.80571   0.00000  Uiso   1.00
H985   H     0.09476   0.71151   0.52560   0.00000  Uiso   1.00
H986   H     0.20739   0.81284   0.97094   0.00000  Uiso   1.00
H987   H     0.23815   0.78919   0.54400   0.00000  Uiso   1.00
H988   H     0.12534   0.68771   0.96172   0.00000  Uiso   1.00
N989   N     0.16667   0.74999   0.62624   0.00000  Uiso   1.00
N990   N     0.16667   0.75001   0.87377   0.00000  Uiso   1.00
O991   O     0.16667   0.68454   0.78974   0.00000  Uiso   1.00
O992   O     0.16666   0.81547   0.71026   0.00000  Uiso   1.00
O993   O     0.16667   0.68453   0.71026   0.00000  Uiso   1.00
O994   O     0.16666   0.81547   0.78974   0.00000  Uiso   1.00
O995   O     0.09058   0.75000   0.78045   0.00000  Uiso   1.00
O996   O     0.24275   0.75000   0.71956   0.00000  Uiso   1.00
O997   O     0.09058   0.75000   0.70097   0.00000  Uiso   1.00
O998   O     0.24275   0.75001   0.79904   0.00000  Uiso   1.00
Zn999  Zn    0.16667   0.75001   0.80307   0.00000  Uiso   1.00
Zn1000 Zn    0.16667   0.75000   0.69693   0.00000  Uiso   1.00
O1001  O     0.32188   0.72011   0.69270   0.00000  Uiso   1.00
C1002  C     0.32575   0.67388   0.70203   0.00000  Uiso   1.00
H1003  H     0.30547   0.66399   0.73262   0.00000  Uiso   1.00
H1004  H     0.03393   0.66345   0.70862   0.00000  Uiso   1.00
H1005  H     0.30628   0.65561   0.67030   0.00000  Uiso   1.00
O1006  O     0.01186   0.78241   0.80566   0.00000  Uiso   1.00
C1007  C     0.01414   0.75886   0.84921   0.00000  Uiso   1.00
H1008  H     0.01876   0.72229   0.84535   0.00000  Uiso   1.00
H1009  H     0.31226   0.76509   0.86598   0.00000  Uiso   1.00
H1010  H     0.04831   0.77159   0.87390   0.00000  Uiso   1.00
O1011  O     0.16964   0.52114   0.83431   0.00000  Uiso   1.00
C1012  C     0.11622   0.51554   0.83833   0.00000  Uiso   1.00
H1013  H     0.09666   0.99258   0.81054   0.00000  Uiso   1.00
H1014  H     0.09567   0.54794   0.83674   0.00000  Uiso   1.00
H1015  H     0.11292   0.50002   0.87339   0.00000  Uiso   1.00
O1016  O     0.10179   0.97748   0.68492   0.00000  Uiso   1.00
C1017  C     0.06206   0.99583   0.70756   0.00000  Uiso   1.00
H1018  H     0.02826   0.50318   0.68004   0.00000  Uiso   1.00
H1019  H     0.07541   0.52786   0.72497   0.00000  Uiso   1.00
H1020  H     0.04780   0.97271   0.73388   0.00000  Uiso   1.00
O1021  O     0.17458   0.61231   0.83757   0.00000  Uiso   1.00
C1022  C     0.22636   0.61744   0.86082   0.00000  Uiso   1.00
H1023  H     0.24450   0.58452   0.86984   0.00000  Uiso   1.00
H1024  H     0.22561   0.63550   0.89465   0.00000  Uiso   1.00
H1025  H     0.25078   0.63770   0.83908   0.00000  Uiso   1.00
O1026  O     0.09667   0.88578   0.68398   0.00000  Uiso   1.00
C1027  C     0.05251   0.87221   0.70482   0.00000  Uiso   1.00
H1028  H     0.06280   0.85569   0.74012   0.00000  Uiso   1.00
H1029  H     0.02957   0.84752   0.68103   0.00000  Uiso   1.00
H1030  H     0.02691   0.90092   0.70806   0.00000  Uiso   1.00
O1031  O     0.18909   0.52740   0.66626   0.00000  Uiso   1.00
C1032  C     0.24166   0.51646   0.66530   0.00000  Uiso   1.00
H1033  H     0.25200   0.98615   0.68710   0.00000  Uiso   1.00
H1034  H     0.26923   0.54465   0.67696   0.00000  Uiso   1.00
H1035  H     0.24643   0.50850   0.62813   0.00000  Uiso   1.00
O1036  O     0.25024   0.97118   0.81254   0.00000  Uiso   1.00
C1037  C     0.29744   0.97353   0.79332   0.00000  Uiso   1.00
H1038  H     0.29518   0.99896   0.76448   0.00000  Uiso   1.00
H1039  H     0.30851   0.94056   0.78036   0.00000  Uiso   1.00
H1040  H     0.32911   0.98441   0.82173   0.00000  Uiso   1.00
O1041  O     0.09117   0.70339   0.61883   0.00000  Uiso   1.00
C1042  C     0.08781   0.65824   0.60476   0.00000  Uiso   1.00
H1043  H     0.06886   0.63870   0.63110   0.00000  Uiso   1.00
H1044  H     0.12692   0.64357   0.60387   0.00000  Uiso   1.00
H1045  H     0.06286   0.65445   0.56969   0.00000  Uiso   1.00
O1046  O     0.21813   0.81611   0.87670   0.00000  Uiso   1.00
C1047  C     0.26090   0.83689   0.90536   0.00000  Uiso   1.00
H1048  H     0.28517   0.81261   0.92835   0.00000  Uiso   1.00
H1049  H     0.24714   0.86375   0.92694   0.00000  Uiso   1.00
H1050  H     0.28651   0.85287   0.88170   0.00000  Uiso   1.00
O1051  O     0.24220   0.79682   0.63719   0.00000  Uiso   1.00
C1052  C     0.23718   0.84306   0.62855   0.00000  Uiso   1.00
H1053  H     0.19619   0.85409   0.62796   0.00000  Uiso   1.00
H1054  H     0.25169   0.85273   0.59487   0.00000  Uiso   1.00
H1055  H     0.26161   0.86116   0.65793   0.00000  Uiso   1.00
O1056  O     0.11382   0.68499   0.86312   0.00000  Uiso   1.00
C1057  C     0.08515   0.65236   0.88507   0.00000  Uiso   1.00
H1058  H     0.11175   0.63018   0.90852   0.00000  Uiso   1.00
H1059  H     0.06323   0.63113   0.85685   0.00000  Uiso   1.00
H1060  H     0.05584   0.66774   0.90462   0.00000  Uiso   1.00
C1061  C     0.50189   0.66377   0.75050   0.00000  Uiso   1.00
C1062  C     0.50002   0.83585   0.74979   0.00000  Uiso   1.00
C1063  C     0.46062   0.72750   0.54769   0.00000  Uiso   1.00
C1064  C     0.52423   0.78459   0.95029   0.00000  Uiso   1.00
C1065  C     0.46244   0.72607   0.59780   0.00000  Uiso   1.00
C1066  C     0.52637   0.78326   0.90056   0.00000  Uiso   1.00
C1067  C     0.53740   0.77396   0.60713   0.00000  Uiso   1.00
C1068  C     0.47401   0.71639   0.89405   0.00000  Uiso   1.00
C1069  C     0.53912   0.77273   0.55763   0.00000  Uiso   1.00
C1070  C     0.47571   0.71535   0.94449   0.00000  Uiso   1.00
C1071  C     0.49990   0.75008   0.52669   0.00000  Uiso   1.00
C1072  C     0.49998   0.74999   0.97321   0.00000  Uiso   1.00
C1073  C     0.40055   0.74976   0.73781   0.00000  Uiso   1.00
C1074  C     0.59949   0.75063   0.76231   0.00000  Uiso   1.00
C1075  C     0.34608   0.74306   0.73251   0.00000  Uiso   1.00
C1076  C     0.65426   0.75601   0.76836   0.00000  Uiso   1.00
C1077  C     0.50747   0.54509   0.79314   0.00000  Uiso   1.00
C1078  C     0.46913   0.95385   0.71779   0.00000  Uiso   1.00
C1079  C     0.50910   0.59142   0.79459   0.00000  Uiso   1.00
C1080  C     0.46572   0.90744   0.71766   0.00000  Uiso   1.00
C1081  C     0.50794   0.61573   0.75174   0.00000  Uiso   1.00
C1082  C     0.50152   0.88342   0.74961   0.00000  Uiso   1.00
C1083  C     0.51383   0.59383   0.70953   0.00000  Uiso   1.00
C1084  C     0.54023   0.90465   0.78117   0.00000  Uiso   1.00
C1085  C     0.51852   0.54797   0.70899   0.00000  Uiso   1.00
C1086  C     0.54567   0.95052   0.78013   0.00000  Uiso   1.00
C1087  C     0.51303   0.52345   0.75048   0.00000  Uiso   1.00
C1088  C     0.50955   0.97525   0.74897   0.00000  Uiso   1.00
H1089  H     0.51503   0.61215   0.67667   0.00000  Uiso   1.00
H1090  H     0.56737   0.88549   0.80571   0.00000  Uiso   1.00
H1091  H     0.42809   0.71151   0.52560   0.00000  Uiso   1.00
H1092  H     0.54073   0.81284   0.97094   0.00000  Uiso   1.00
H1093  H     0.57149   0.78919   0.54400   0.00000  Uiso   1.00
H1094  H     0.45867   0.68771   0.96172   0.00000  Uiso   1.00
N1095  N     0.50000   0.74999   0.62624   0.00000  Uiso   1.00
N1096  N     0.50000   0.75001   0.87377   0.00000  Uiso   1.00
O1097  O     0.50000   0.68454   0.78974   0.00000  Uiso   1.00
O1098  O     0.50000   0.81547   0.71026   0.00000  Uiso   1.00
O1099  O     0.50000   0.68453   0.71026   0.00000  Uiso   1.00
O1100  O     0.50000   0.81547   0.78974   0.00000  Uiso   1.00
O1101  O     0.42392   0.75000   0.78045   0.00000  Uiso   1.00
O1102  O     0.57608   0.75000   0.71956   0.00000  Uiso   1.00
O1103  O     0.42392   0.75000   0.70097   0.00000  Uiso   1.00
O1104  O     0.57608   0.75001   0.79904   0.00000  Uiso   1.00
Zn1105 Zn    0.50000   0.75001   0.80307   0.00000  Uiso   1.00
Zn1106 Zn    0.50000   0.75000   0.69693   0.00000  Uiso   1.00
O1107  O     0.65521   0.72011   0.69270   0.00000  Uiso   1.00
C1108  C     0.65909   0.67388   0.70203   0.00000  Uiso   1.00
H1109  H     0.63881   0.66399   0.73262   0.00000  Uiso   1.00
H1110  H     0.36726   0.66345   0.70862   0.00000  Uiso   1.00
H1111  H     0.63961   0.65561   0.67030   0.00000  Uiso   1.00
O1112  O     0.34520   0.78241   0.80566   0.00000  Uiso   1.00
C1113  C     0.34747   0.75886   0.84921   0.00000  Uiso   1.00
H1114  H     0.35209   0.72229   0.84535   0.00000  Uiso   1.00
H1115  H     0.64560   0.76509   0.86598   0.00000  Uiso   1.00
H1116  H     0.38165   0.77159   0.87390   0.00000  Uiso   1.00
O1117  O     0.50298   0.52114   0.83431   0.00000  Uiso   1.00
C1118  C     0.44956   0.51554   0.83833   0.00000  Uiso   1.00
H1119  H     0.43000   0.99258   0.81054   0.00000  Uiso   1.00
H1120  H     0.42901   0.54794   0.83674   0.00000  Uiso   1.00
H1121  H     0.44626   0.50002   0.87339   0.00000  Uiso   1.00
O1122  O     0.43512   0.97748   0.68492   0.00000  Uiso   1.00
C1123  C     0.39539   0.99583   0.70756   0.00000  Uiso   1.00
H1124  H     0.36159   0.50318   0.68004   0.00000  Uiso   1.00
H1125  H     0.40874   0.52786   0.72497   0.00000  Uiso   1.00
H1126  H     0.38113   0.97271   0.73388   0.00000  Uiso   1.00
O1127  O     0.50791   0.61231   0.83757   0.00000  Uiso   1.00
C1128  C     0.55969   0.61744   0.86082   0.00000  Uiso   1.00
H1129  H     0.57783   0.58452   0.86984   0.00000  Uiso   1.00
H1130  H     0.55894   0.63550   0.89465   0.00000  Uiso   1.00
H1131  H     0.58412   0.63770   0.83908   0.00000  Uiso   1.00
O1132  O     0.43000   0.88578   0.68398   0.00000  Uiso   1.00
C1133  C     0.38585   0.87221   0.70482   0.00000  Uiso   1.00
H1134  H     0.39613   0.85569   0.74012   0.00000  Uiso   1.00
H1135  H     0.36290   0.84752   0.68103   0.00000  Uiso   1.00
H1136  H     0.36024   0.90092   0.70806   0.00000  Uiso   1.00
O1137  O     0.52242   0.52740   0.66626   0.00000  Uiso   1.00
C1138  C     0.57499   0.51646   0.66530   0.00000  Uiso   1.00
H1139  H     0.58534   0.98615   0.68710   0.00000  Uiso   1.00
H1140  H     0.60256   0.54465   0.67696   0.00000  Uiso   1.00
H1141  H     0.57976   0.50850   0.62813   0.00000  Uiso   1.00
O1142  O     0.58357   0.97118   0.81254   0.00000  Uiso   1.00
C1143  C     0.63078   0.97353   0.79332   0.00000  Uiso   1.00
H1144  H     0.62851   0.99896   0.76448   0.00000  Uiso   1.00
H1145  H     0.64184   0.94056   0.78036   0.00000  Uiso   1.00
H1146  H     0.66244   0.98441   0.82173   0.00000  Uiso   1.00
O1147  O     0.42450   0.70339   0.61883   0.00000  Uiso   1.00
C1148  C     0.42114   0.65824   0.60476   0.00000  Uiso   1.00
H1149  H     0.40220   0.63870   0.63110   0.00000  Uiso   1.00
H1150  H     0.46025   0.64357   0.60387   0.00000  Uiso   1.00
H1151  H     0.39620   0.65445   0.56969   0.00000  Uiso   1.00
O1152  O     0.55147   0.81611   0.87670   0.00000  Uiso   1.00
C1153  C     0.59424   0.83689   0.90536   0.00000  Uiso   1.00
H1154  H     0.61851   0.81261   0.92835   0.00000  Uiso   1.00
H1155  H     0.58047   0.86375   0.92694   0.00000  Uiso   1.00
H1156  H     0.61984   0.85287   0.88170   0.00000  Uiso   1.00
O1157  O     0.57554   0.79682   0.63719   0.00000  Uiso   1.00
C1158  C     0.57051   0.84306   0.62855   0.00000  Uiso   1.00
H1159  H     0.52952   0.85409   0.62796   0.00000  Uiso   1.00
H1160  H     0.58503   0.85273   0.59487   0.00000  Uiso   1.00
H1161  H     0.59495   0.86116   0.65793   0.00000  Uiso   1.00
O1162  O     0.44716   0.68499   0.86312   0.00000  Uiso   1.00
C1163  C     0.41849   0.65236   0.88507   0.00000  Uiso   1.00
H1164  H     0.44508   0.63018   0.90852   0.00000  Uiso   1.00
H1165  H     0.39656   0.63113   0.85685   0.00000  Uiso   1.00
H1166  H     0.38917   0.66774   0.90462   0.00000  Uiso   1.00
C1167  C     0.83523   0.66377   0.75050   0.00000  Uiso   1.00
C1168  C     0.83336   0.83585   0.74979   0.00000  Uiso   1.00
C1169  C     0.79396   0.72750   0.54769   0.00000  Uiso   1.00
C1170  C     0.85757   0.78459   0.95029   0.00000  Uiso   1.00
C1171  C     0.79578   0.72607   0.59780   0.00000  Uiso   1.00
C1172  C     0.85970   0.78326   0.90056   0.00000  Uiso   1.00
C1173  C     0.87074   0.77396   0.60713   0.00000  Uiso   1.00
C1174  C     0.80734   0.71639   0.89405   0.00000  Uiso   1.00
C1175  C     0.87245   0.77273   0.55763   0.00000  Uiso   1.00
C1176  C     0.80905   0.71535   0.94449   0.00000  Uiso   1.00
C1177  C     0.83323   0.75008   0.52669   0.00000  Uiso   1.00
C1178  C     0.83331   0.74999   0.97321   0.00000  Uiso   1.00
C1179  C     0.73388   0.74976   0.73781   0.00000  Uiso   1.00
C1180  C     0.93282   0.75063   0.76231   0.00000  Uiso   1.00
C1181  C     0.67941   0.74306   0.73251   0.00000  Uiso   1.00
C1182  C     0.98759   0.75601   0.76836   0.00000  Uiso   1.00
C1183  C     0.84080   0.54509   0.79314   0.00000  Uiso   1.00
C1184  C     0.80246   0.95385   0.71779   0.00000  Uiso   1.00
C1185  C     0.84244   0.59142   0.79459   0.00000  Uiso   1.00
C1186  C     0.79906   0.90744   0.71766   0.00000  Uiso   1.00
C1187  C     0.84128   0.61573   0.75174   0.00000  Uiso   1.00
C1188  C     0.83485   0.88342   0.74961   0.00000  Uiso   1.00
C1189  C     0.84716   0.59383   0.70953   0.00000  Uiso   1.00
C1190  C     0.87356   0.90465   0.78117   0.00000  Uiso   1.00
C1191  C     0.85185   0.54797   0.70899   0.00000  Uiso   1.00
C1192  C     0.87900   0.95052   0.78013   0.00000  Uiso   1.00
C1193  C     0.84636   0.52345   0.75048   0.00000  Uiso   1.00
C1194  C     0.84289   0.97525   0.74897   0.00000  Uiso   1.00
H1195  H     0.84837   0.61215   0.67667   0.00000  Uiso   1.00
H1196  H     0.90070   0.88549   0.80571   0.00000  Uiso   1.00
H1197  H     0.76142   0.71151   0.52560   0.00000  Uiso   1.00
H1198  H     0.87406   0.81284   0.97094   0.00000  Uiso   1.00
H1199  H     0.90482   0.78919   0.54400   0.00000  Uiso   1.00
H1200  H     0.79201   0.68771   0.96172   0.00000  Uiso   1.00
N1201  N     0.83333   0.74999   0.62624   0.00000  Uiso   1.00
N1202  N     0.83333   0.75001   0.87377   0.00000  Uiso   1.00
O1203  O     0.83334   0.68454   0.78974   0.00000  Uiso   1.00
O1204  O     0.83333   0.81547   0.71026   0.00000  Uiso   1.00
O1205  O     0.83334   0.68453   0.71026   0.00000  Uiso   1.00
O1206  O     0.83333   0.81547   0.78974   0.00000  Uiso   1.00
O1207  O     0.75725   0.75000   0.78045   0.00000  Uiso   1.00
O1208  O     0.90942   0.75000   0.71956   0.00000  Uiso   1.00
O1209  O     0.75725   0.75000   0.70097   0.00000  Uiso   1.00
O1210  O     0.90942   0.75001   0.79904   0.00000  Uiso   1.00
Zn1211 Zn    0.83333   0.75001   0.80307   0.00000  Uiso   1.00
Zn1212 Zn    0.83333   0.75000   0.69693   0.00000  Uiso   1.00
O1213  O     0.98854   0.72011   0.69270   0.00000  Uiso   1.00
C1214  C     0.99242   0.67388   0.70203   0.00000  Uiso   1.00
H1215  H     0.97214   0.66399   0.73262   0.00000  Uiso   1.00
H1216  H     0.70060   0.66345   0.70862   0.00000  Uiso   1.00
H1217  H     0.97294   0.65561   0.67030   0.00000  Uiso   1.00
O1218  O     0.67853   0.78241   0.80566   0.00000  Uiso   1.00
C1219  C     0.68080   0.75886   0.84921   0.00000  Uiso   1.00
H1220  H     0.68542   0.72229   0.84535   0.00000  Uiso   1.00
H1221  H     0.97893   0.76509   0.86598   0.00000  Uiso   1.00
H1222  H     0.71498   0.77159   0.87390   0.00000  Uiso   1.00
O1223  O     0.83631   0.52114   0.83431   0.00000  Uiso   1.00
C1224  C     0.78289   0.51554   0.83833   0.00000  Uiso   1.00
H1225  H     0.76333   0.99258   0.81054   0.00000  Uiso   1.00
H1226  H     0.76234   0.54794   0.83674   0.00000  Uiso   1.00
H1227  H     0.77959   0.50002   0.87339   0.00000  Uiso   1.00
O1228  O     0.76846   0.97748   0.68492   0.00000  Uiso   1.00
C1229  C     0.72872   0.99583   0.70756   0.00000  Uiso   1.00
H1230  H     0.69492   0.50318   0.68004   0.00000  Uiso   1.00
H1231  H     0.74208   0.52786   0.72497   0.00000  Uiso   1.00
H1232  H     0.71446   0.97271   0.73388   0.00000  Uiso   1.00
O1233  O     0.84124   0.61231   0.83757   0.00000  Uiso   1.00
C1234  C     0.89302   0.61744   0.86082   0.00000  Uiso   1.00
H1235  H     0.91116   0.58452   0.86984   0.00000  Uiso   1.00
H1236  H     0.89227   0.63550   0.89465   0.00000  Uiso   1.00
H1237  H     0.91745   0.63770   0.83908   0.00000  Uiso   1.00
O1238  O     0.76334   0.88578   0.68398   0.00000  Uiso   1.00
C1239  C     0.71918   0.87221   0.70482   0.00000  Uiso   1.00
H1240  H     0.72946   0.85569   0.74012   0.00000  Uiso   1.00
H1241  H     0.69624   0.84752   0.68103   0.00000  Uiso   1.00
H1242  H     0.69358   0.90092   0.70806   0.00000  Uiso   1.00
O1243  O     0.85576   0.52740   0.66626   0.00000  Uiso   1.00
C1244  C     0.90833   0.51646   0.66530   0.00000  Uiso   1.00
H1245  H     0.91867   0.98615   0.68710   0.00000  Uiso   1.00
H1246  H     0.93590   0.54465   0.67696   0.00000  Uiso   1.00
H1247  H     0.91310   0.50850   0.62813   0.00000  Uiso   1.00
O1248  O     0.91690   0.97118   0.81254   0.00000  Uiso   1.00
C1249  C     0.96411   0.97353   0.79332   0.00000  Uiso   1.00
H1250  H     0.96184   0.99896   0.76448   0.00000  Uiso   1.00
H1251  H     0.97517   0.94056   0.78036   0.00000  Uiso   1.00
H1252  H     0.99577   0.98441   0.82173   0.00000  Uiso   1.00
O1253  O     0.75784   0.70339   0.61883   0.00000  Uiso   1.00
C1254  C     0.75447   0.65824   0.60476   0.00000  Uiso   1.00
H1255  H     0.73553   0.63870   0.63110   0.00000  Uiso   1.00
H1256  H     0.79358   0.64357   0.60387   0.00000  Uiso   1.00
H1257  H     0.72953   0.65445   0.56969   0.00000  Uiso   1.00
O1258  O     0.88480   0.81611   0.87670   0.00000  Uiso   1.00
C1259  C     0.92757   0.83689   0.90536   0.00000  Uiso   1.00
H1260  H     0.95184   0.81261   0.92835   0.00000  Uiso   1.00
H1261  H     0.91381   0.86375   0.92694   0.00000  Uiso   1.00
H1262  H     0.95317   0.85287   0.88170   0.00000  Uiso   1.00
O1263  O     0.90887   0.79682   0.63719   0.00000  Uiso   1.00
C1264  C     0.90385   0.84306   0.62855   0.00000  Uiso   1.00
H1265  H     0.86285   0.85409   0.62796   0.00000  Uiso   1.00
H1266  H     0.91836   0.85273   0.59487   0.00000  Uiso   1.00
H1267  H     0.92828   0.86116   0.65793   0.00000  Uiso   1.00
O1268  O     0.78049   0.68499   0.86312   0.00000  Uiso   1.00
C1269  C     0.75182   0.65236   0.88507   0.00000  Uiso   1.00
H1270  H     0.77842   0.63018   0.90852   0.00000  Uiso   1.00
H1271  H     0.72990   0.63113   0.85685   0.00000  Uiso   1.00
H1272  H     0.72250   0.66774   0.90462   0.00000  Uiso   1.00
loop_
_geom_bond_atom_site_label_1
_geom_bond_atom_site_label_2
_geom_bond_distance
_geom_bond_site_symmetry_2
_ccdc_geom_bond_type
C1     C21     1.451   .     S
C1     O37     1.289   .     A
C1     O39     1.292   .     A
C2     C22     1.425   .     S
C2     O38     1.283   .     A
C2     O40     1.284   .     A
C3     H31     1.080   .     S
C3     C5      1.417   .     A
C3     C11     1.410   .     A
C4     C12     1.405   .     A
C4     H32     1.079   .     S
C4     C6      1.422   .     A
C5     N35     1.365   .     A
C5     O87     1.385   .     S
C6     O92     1.393   .     S
C6     N36     1.368   .     A
C7     C9      1.413   .     A
C7     O97     1.382   .     S
C7     N35     1.366   .     A
C8     N36     1.369   .     A
C8     C10     1.427   .     A
C8     O102    1.397   .     S
C9     H33     1.081   .     S
C9     C11     1.409   .     A
C10    H34     1.078   .     S
C10    C12     1.406   .     A
C11    C648    1.519   1_554 S
C12    C647    1.519   .     S
C13    O41     1.272   .     A
C13    C15     1.406   .     S
C13    O43     1.282   .     A
C14    O42     1.276   .     A
C14    C16     1.408   .     S
C14    O44     1.280   .     A
C15    C228    1.349   1_455 S
C15    O259    1.391   1_455 S
C16    C121    1.349   .     S
C16    O158    1.394   .     S
C17    C27     1.406   .     A
C17    C19     1.389   .     A
C17    O57     1.385   .     S
C18    C28     1.415   .     A
C18    O62     1.386   .     S
C18    C20     1.392   .     A
C19    C21     1.410   .     A
C19    O67     1.381   .     S
C20    C22     1.403   .     A
C20    O72     1.386   .     S
C21    C23     1.401   .     A
C22    C24     1.391   .     A
C23    H29     1.083   .     S
C23    C25     1.383   .     A
C24    C26     1.380   .     A
C24    H30     1.084   .     S
C25    O77     1.383   .     S
C25    C27     1.406   .     A
C26    O82     1.384   .     S
C26    C28     1.407   .     A
C27    C346    1.446   1_545 S
C28    C345    1.446   .     S
N35    Zn46    2.008   .     S
N36    Zn45    2.008   .     S
O37    Zn45    2.002   .     S
O38    Zn46    2.002   .     S
O39    Zn46    1.995   .     S
O40    Zn45    1.995   .     S
O41    Zn45    1.979   .     S
O42    Zn46    1.979   .     S
O43    Zn46    1.988   .     S
O44    Zn45    1.988   .     S
O47    C48     1.411   .     S
O47    C121    1.391   .     S
C48    H51     1.109   .     S
C48    H49     1.114   .     S
C48    H156    1.113   .     S
H50    C260    1.113   1_455 S
O52    C53     1.413   .     S
O52    C228    1.394   1_455 S
C53    H54     1.113   .     S
C53    H56     1.109   .     S
C53    H267    1.107   1_455 S
H55    C159    1.107   .     S
O57    C58     1.410   .     S
C58    H60     1.114   .     S
C58    H61     1.109   .     S
C58    H377    1.110   1_545 S
H59    C376    1.110   .     S
O62    C63     1.412   .     S
C63    H66     1.112   .     S
C63    H382    1.109   .     S
C63    H383    1.109   .     S
H64    C381    1.109   1_545 S
H65    C381    1.109   1_545 S
O67    C68     1.411   .     S
C68    H69     1.113   .     S
C68    H71     1.114   .     S
C68    H70     1.109   .     S
O72    C73     1.412   .     S
C73    H74     1.113   .     S
C73    H75     1.109   .     S
C73    H76     1.109   .     S
O77    C78     1.409   .     S
C78    H80     1.115   .     S
C78    H81     1.109   .     S
C78    H397    1.110   1_545 S
H79    C396    1.110   .     S
O82    C83     1.408   .     S
C83    H84     1.110   .     S
C83    H85     1.114   .     S
C83    H86     1.109   .     S
O87    C88     1.412   .     S
C88    H91     1.110   .     S
C88    H90     1.115   .     S
C88    H89     1.109   .     S
O92    C93     1.412   .     S
C93    H94     1.114   .     S
C93    H96     1.109   .     S
C93    H95     1.111   .     S
O97    C98     1.411   .     S
C98    H100    1.111   .     S
C98    H101    1.109   .     S
C98    H99     1.115   .     S
O102   C103    1.411   .     S
C103   H105    1.109   .     S
C103   H106    1.112   .     S
C103   H104    1.112   .     S
C107   C127    1.451   .     S
C107   O143    1.289   .     A
C107   O145    1.292   .     A
C108   C128    1.425   .     S
C108   O144    1.283   .     A
C108   O146    1.284   .     A
C109   H137    1.080   .     S
C109   C111    1.417   .     A
C109   C117    1.410   .     A
C110   C118    1.405   .     A
C110   H138    1.079   .     S
C110   C112    1.422   .     A
C111   N141    1.365   .     A
C111   O193    1.385   .     S
C112   O198    1.393   .     S
C112   N142    1.368   .     A
C113   C115    1.413   .     A
C113   O203    1.382   .     S
C113   N141    1.366   .     A
C114   N142    1.369   .     A
C114   C116    1.427   .     A
C114   O208    1.397   .     S
C115   H139    1.081   .     S
C115   C117    1.409   .     A
C116   H140    1.078   .     S
C116   C118    1.406   .     A
C117   C754    1.519   1_554 S
C118   C753    1.519   .     S
C119   O147    1.272   .     A
C119   C121    1.406   .     S
C119   O149    1.282   .     A
C120   O148    1.276   .     A
C120   C122    1.408   .     S
C120   O150    1.280   .     A
C122   C227    1.349   .     S
C122   O264    1.394   .     S
C123   C133    1.406   .     A
C123   C125    1.389   .     A
C123   O163    1.385   .     S
C124   C134    1.415   .     A
C124   O168    1.386   .     S
C124   C126    1.392   .     A
C125   C127    1.410   .     A
C125   O173    1.381   .     S
C126   C128    1.403   .     A
C126   O178    1.386   .     S
C127   C129    1.401   .     A
C128   C130    1.391   .     A
C129   H135    1.083   .     S
C129   C131    1.383   .     A
C130   C132    1.380   .     A
C130   H136    1.084   .     S
C131   O183    1.383   .     S
C131   C133    1.406   .     A
C132   O188    1.384   .     S
C132   C134    1.407   .     A
C133   C452    1.446   1_545 S
C134   C451    1.446   .     S
N141   Zn152   2.008   .     S
N142   Zn151   2.008   .     S
O143   Zn151   2.002   .     S
O144   Zn152   2.002   .     S
O145   Zn152   1.995   .     S
O146   Zn151   1.995   .     S
O147   Zn151   1.979   .     S
O148   Zn152   1.979   .     S
O149   Zn152   1.988   .     S
O150   Zn151   1.988   .     S
O153   C154    1.411   .     S
O153   C227    1.391   .     S
C154   H157    1.109   .     S
C154   H155    1.114   .     S
C154   H262    1.113   .     S
O158   C159    1.413   .     S
C159   H160    1.113   .     S
C159   H162    1.109   .     S
H161   C265    1.107   .     S
O163   C164    1.410   .     S
C164   H166    1.114   .     S
C164   H167    1.109   .     S
C164   H483    1.110   1_545 S
H165   C482    1.110   .     S
O168   C169    1.412   .     S
C169   H172    1.112   .     S
C169   H488    1.109   .     S
C169   H489    1.109   .     S
H170   C487    1.109   1_545 S
H171   C487    1.109   1_545 S
O173   C174    1.411   .     S
C174   H175    1.113   .     S
C174   H177    1.114   .     S
C174   H176    1.109   .     S
O178   C179    1.412   .     S
C179   H180    1.113   .     S
C179   H181    1.109   .     S
C179   H182    1.109   .     S
O183   C184    1.409   .     S
C184   H186    1.115   .     S
C184   H187    1.109   .     S
C184   H503    1.110   1_545 S
H185   C502    1.110   .     S
O188   C189    1.408   .     S
C189   H190    1.110   .     S
C189   H191    1.114   .     S
C189   H192    1.109   .     S
O193   C194    1.412   .     S
C194   H197    1.110   .     S
C194   H196    1.115   .     S
C194   H195    1.109   .     S
O198   C199    1.412   .     S
C199   H200    1.114   .     S
C199   H202    1.109   .     S
C199   H201    1.111   .     S
O203   C204    1.411   .     S
C204   H206    1.111   .     S
C204   H207    1.109   .     S
C204   H205    1.115   .     S
O208   C209    1.411   .     S
C209   H211    1.109   .     S
C209   H212    1.112   .     S
C209   H210    1.112   .     S
C213   C233    1.451   .     S
C213   O249    1.289   .     A
C213   O251    1.292   .     A
C214   C234    1.425   .     S
C214   O250    1.283   .     A
C214   O252    1.284   .     A
C215   H243    1.080   .     S
C215   C217    1.417   .     A
C215   C223    1.410   .     A
C216   C224    1.405   .     A
C216   H244    1.079   .     S
C216   C218    1.422   .     A
C217   N247    1.365   .     A
C217   O299    1.385   .     S
C218   O304    1.393   .     S
C218   N248    1.368   .     A
C219   C221    1.413   .     A
C219   O309    1.382   .     S
C219   N247    1.366   .     A
C220   N248    1.369   .     A
C220   C222    1.427   .     A
C220   O314    1.397   .     S
C221   H245    1.081   .     S
C221   C223    1.409   .     A
C222   H246    1.078   .     S
C222   C224    1.406   .     A
C223   C860    1.519   1_554 S
C224   C859    1.519   .     S
C225   O253    1.272   .     A
C225   C227    1.406   .     S
C225   O255    1.282   .     A
C226   O254    1.276   .     A
C226   C228    1.408   .     S
C226   O256    1.280   .     A
C228   C15     1.349   1_655 S
C228   O52     1.394   1_655 S
C229   C239    1.406   .     A
C229   C231    1.389   .     A
C229   O269    1.385   .     S
C230   C240    1.415   .     A
C230   O274    1.386   .     S
C230   C232    1.392   .     A
C231   C233    1.410   .     A
C231   O279    1.381   .     S
C232   C234    1.403   .     A
C232   O284    1.386   .     S
C233   C235    1.401   .     A
C234   C236    1.391   .     A
C235   H241    1.083   .     S
C235   C237    1.383   .     A
C236   C238    1.380   .     A
C236   H242    1.084   .     S
C237   O289    1.383   .     S
C237   C239    1.406   .     A
C238   O294    1.384   .     S
C238   C240    1.407   .     A
C239   C558    1.446   1_545 S
C240   C557    1.446   .     S
N247   Zn258   2.008   .     S
N248   Zn257   2.008   .     S
O249   Zn257   2.002   .     S
O250   Zn258   2.002   .     S
O251   Zn258   1.995   .     S
O252   Zn257   1.995   .     S
O253   Zn257   1.979   .     S
O254   Zn258   1.979   .     S
O255   Zn258   1.988   .     S
O256   Zn257   1.988   .     S
O259   C260    1.411   .     S
O259   C15     1.391   1_655 S
C260   H263    1.109   .     S
C260   H261    1.114   .     S
C260   H50     1.113   1_655 S
O264   C265    1.413   .     S
C265   H266    1.113   .     S
C265   H268    1.109   .     S
H267   C53     1.107   1_655 S
O269   C270    1.410   .     S
C270   H272    1.114   .     S
C270   H273    1.109   .     S
C270   H589    1.110   1_545 S
H271   C588    1.110   .     S
O274   C275    1.412   .     S
C275   H278    1.112   .     S
C275   H594    1.109   .     S
C275   H595    1.109   .     S
H276   C593    1.109   1_545 S
H277   C593    1.109   1_545 S
O279   C280    1.411   .     S
C280   H281    1.113   .     S
C280   H283    1.114   .     S
C280   H282    1.109   .     S
O284   C285    1.412   .     S
C285   H286    1.113   .     S
C285   H287    1.109   .     S
C285   H288    1.109   .     S
O289   C290    1.409   .     S
C290   H292    1.115   .     S
C290   H293    1.109   .     S
C290   H609    1.110   1_545 S
H291   C608    1.110   .     S
O294   C295    1.408   .     S
C295   H296    1.110   .     S
C295   H297    1.114   .     S
C295   H298    1.109   .     S
O299   C300    1.412   .     S
C300   H303    1.110   .     S
C300   H302    1.115   .     S
C300   H301    1.109   .     S
O304   C305    1.412   .     S
C305   H306    1.114   .     S
C305   H308    1.109   .     S
C305   H307    1.111   .     S
O309   C310    1.411   .     S
C310   H312    1.111   .     S
C310   H313    1.109   .     S
C310   H311    1.115   .     S
O314   C315    1.411   .     S
C315   H317    1.109   .     S
C315   H318    1.112   .     S
C315   H316    1.112   .     S
C319   C339    1.451   .     S
C319   O355    1.289   .     A
C319   O357    1.292   .     A
C320   C340    1.425   .     S
C320   O356    1.283   .     A
C320   O358    1.284   .     A
C321   H349    1.080   .     S
C321   C323    1.417   .     A
C321   C329    1.410   .     A
C322   C330    1.405   .     A
C322   H350    1.079   .     S
C322   C324    1.422   .     A
C323   N353    1.365   .     A
C323   O405    1.385   .     S
C324   O410    1.393   .     S
C324   N354    1.368   .     A
C325   C327    1.413   .     A
C325   O415    1.382   .     S
C325   N353    1.366   .     A
C326   N354    1.369   .     A
C326   C328    1.427   .     A
C326   O420    1.397   .     S
C327   H351    1.081   .     S
C327   C329    1.409   .     A
C328   H352    1.078   .     S
C328   C330    1.406   .     A
C329   C966    1.519   1_554 S
C330   C965    1.519   .     S
C331   O359    1.272   .     A
C331   C333    1.406   .     S
C331   O361    1.282   .     A
C332   O360    1.276   .     A
C332   C334    1.408   .     S
C332   O362    1.280   .     A
C333   C546    1.349   1_455 S
C333   O577    1.391   1_455 S
C334   C439    1.349   .     S
C334   O476    1.394   .     S
C335   C345    1.406   .     A
C335   C337    1.389   .     A
C335   O375    1.385   .     S
C336   C346    1.415   .     A
C336   O380    1.386   .     S
C336   C338    1.392   .     A
C337   C339    1.410   .     A
C337   O385    1.381   .     S
C338   C340    1.403   .     A
C338   O390    1.386   .     S
C339   C341    1.401   .     A
C340   C342    1.391   .     A
C341   H347    1.083   .     S
C341   C343    1.383   .     A
C342   C344    1.380   .     A
C342   H348    1.084   .     S
C343   O395    1.383   .     S
C343   C345    1.406   .     A
C344   O400    1.384   .     S
C344   C346    1.407   .     A
C346   C27     1.446   1_565 S
N353   Zn364   2.008   .     S
N354   Zn363   2.008   .     S
O355   Zn363   2.002   .     S
O356   Zn364   2.002   .     S
O357   Zn364   1.995   .     S
O358   Zn363   1.995   .     S
O359   Zn363   1.979   .     S
O360   Zn364   1.979   .     S
O361   Zn364   1.988   .     S
O362   Zn363   1.988   .     S
O365   C366    1.411   .     S
O365   C439    1.391   .     S
C366   H369    1.109   .     S
C366   H367    1.114   .     S
C366   H474    1.113   .     S
H368   C578    1.113   1_455 S
O370   C371    1.413   .     S
O370   C546    1.394   1_455 S
C371   H372    1.113   .     S
C371   H374    1.109   .     S
C371   H585    1.107   1_455 S
H373   C477    1.107   .     S
O375   C376    1.410   .     S
C376   H378    1.114   .     S
C376   H379    1.109   .     S
H377   C58     1.110   1_565 S
O380   C381    1.412   .     S
C381   H384    1.112   .     S
C381   H64     1.109   1_565 S
C381   H65     1.109   1_565 S
O385   C386    1.411   .     S
C386   H387    1.113   .     S
C386   H389    1.114   .     S
C386   H388    1.109   .     S
O390   C391    1.412   .     S
C391   H392    1.113   .     S
C391   H393    1.109   .     S
C391   H394    1.109   .     S
O395   C396    1.409   .     S
C396   H398    1.115   .     S
C396   H399    1.109   .     S
H397   C78     1.110   1_565 S
O400   C401    1.408   .     S
C401   H402    1.110   .     S
C401   H403    1.114   .     S
C401   H404    1.109   .     S
O405   C406    1.412   .     S
C406   H409    1.110   .     S
C406   H408    1.115   .     S
C406   H407    1.109   .     S
O410   C411    1.412   .     S
C411   H412    1.114   .     S
C411   H414    1.109   .     S
C411   H413    1.111   .     S
O415   C416    1.411   .     S
C416   H418    1.111   .     S
C416   H419    1.109   .     S
C416   H417    1.115   .     S
O420   C421    1.411   .     S
C421   H423    1.109   .     S
C421   H424    1.112   .     S
C421   H422    1.112   .     S
C425   C445    1.451   .     S
C425   O461    1.289   .     A
C425   O463    1.292   .     A
C426   C446    1.425   .     S
C426   O462    1.283   .     A
C426   O464    1.284   .     A
C427   H455    1.080   .     S
C427   C429    1.417   .     A
C427   C435    1.410   .     A
C428   C436    1.405   .     A
C428   H456    1.079   .     S
C428   C430    1.422   .     A
C429   N459    1.365   .     A
C429   O511    1.385   .     S
C430   O516    1.393   .     S
C430   N460    1.368   .     A
C431   C433    1.413   .     A
C431   O521    1.382   .     S
C431   N459    1.366   .     A
C432   N460    1.369   .     A
C432   C434    1.427   .     A
C432   O526    1.397   .     S
C433   H457    1.081   .     S
C433   C435    1.409   .     A
C434   H458    1.078   .     S
C434   C436    1.406   .     A
C435   C1072   1.519   1_554 S
C436   C1071   1.519   .     S
C437   O465    1.272   .     A
C437   C439    1.406   .     S
C437   O467    1.282   .     A
C438   O466    1.276   .     A
C438   C440    1.408   .     S
C438   O468    1.280   .     A
C440   C545    1.349   .     S
C440   O582    1.394   .     S
C441   C451    1.406   .     A
C441   C443    1.389   .     A
C441   O481    1.385   .     S
C442   C452    1.415   .     A
C442   O486    1.386   .     S
C442   C444    1.392   .     A
C443   C445    1.410   .     A
C443   O491    1.381   .     S
C444   C446    1.403   .     A
C444   O496    1.386   .     S
C445   C447    1.401   .     A
C446   C448    1.391   .     A
C447   H453    1.083   .     S
C447   C449    1.383   .     A
C448   C450    1.380   .     A
C448   H454    1.084   .     S
C449   O501    1.383   .     S
C449   C451    1.406   .     A
C450   O506    1.384   .     S
C450   C452    1.407   .     A
C452   C133    1.446   1_565 S
N459   Zn470   2.008   .     S
N460   Zn469   2.008   .     S
O461   Zn469   2.002   .     S
O462   Zn470   2.002   .     S
O463   Zn470   1.995   .     S
O464   Zn469   1.995   .     S
O465   Zn469   1.979   .     S
O466   Zn470   1.979   .     S
O467   Zn470   1.988   .     S
O468   Zn469   1.988   .     S
O471   C472    1.411   .     S
O471   C545    1.391   .     S
C472   H475    1.109   .     S
C472   H473    1.114   .     S
C472   H580    1.113   .     S
O476   C477    1.413   .     S
C477   H478    1.113   .     S
C477   H480    1.109   .     S
H479   C583    1.107   .     S
O481   C482    1.410   .     S
C482   H484    1.114   .     S
C482   H485    1.109   .     S
H483   C164    1.110   1_565 S
O486   C487    1.412   .     S
C487   H490    1.112   .     S
C487   H170    1.109   1_565 S
C487   H171    1.109   1_565 S
O491   C492    1.411   .     S
C492   H493    1.113   .     S
C492   H495    1.114   .     S
C492   H494    1.109   .     S
O496   C497    1.412   .     S
C497   H498    1.113   .     S
C497   H499    1.109   .     S
C497   H500    1.109   .     S
O501   C502    1.409   .     S
C502   H504    1.115   .     S
C502   H505    1.109   .     S
H503   C184    1.110   1_565 S
O506   C507    1.408   .     S
C507   H508    1.110   .     S
C507   H509    1.114   .     S
C507   H510    1.109   .     S
O511   C512    1.412   .     S
C512   H515    1.110   .     S
C512   H514    1.115   .     S
C512   H513    1.109   .     S
O516   C517    1.412   .     S
C517   H518    1.114   .     S
C517   H520    1.109   .     S
C517   H519    1.111   .     S
O521   C522    1.411   .     S
C522   H524    1.111   .     S
C522   H525    1.109   .     S
C522   H523    1.115   .     S
O526   C527    1.411   .     S
C527   H529    1.109   .     S
C527   H530    1.112   .     S
C527   H528    1.112   .     S
C531   C551    1.451   .     S
C531   O567    1.289   .     A
C531   O569    1.292   .     A
C532   C552    1.425   .     S
C532   O568    1.283   .     A
C532   O570    1.284   .     A
C533   H561    1.080   .     S
C533   C535    1.417   .     A
C533   C541    1.410   .     A
C534   C542    1.405   .     A
C534   H562    1.079   .     S
C534   C536    1.422   .     A
C535   N565    1.365   .     A
C535   O617    1.385   .     S
C536   O622    1.393   .     S
C536   N566    1.368   .     A
C537   C539    1.413   .     A
C537   O627    1.382   .     S
C537   N565    1.366   .     A
C538   N566    1.369   .     A
C538   C540    1.427   .     A
C538   O632    1.397   .     S
C539   H563    1.081   .     S
C539   C541    1.409   .     A
C540   H564    1.078   .     S
C540   C542    1.406   .     A
C541   C1178   1.519   1_554 S
C542   C1177   1.519   .     S
C543   O571    1.272   .     A
C543   C545    1.406   .     S
C543   O573    1.282   .     A
C544   O572    1.276   .     A
C544   C546    1.408   .     S
C544   O574    1.280   .     A
C546   C333    1.349   1_655 S
C546   O370    1.394   1_655 S
C547   C557    1.406   .     A
C547   C549    1.389   .     A
C547   O587    1.385   .     S
C548   C558    1.415   .     A
C548   O592    1.386   .     S
C548   C550    1.392   .     A
C549   C551    1.410   .     A
C549   O597    1.381   .     S
C550   C552    1.403   .     A
C550   O602    1.386   .     S
C551   C553    1.401   .     A
C552   C554    1.391   .     A
C553   H559    1.083   .     S
C553   C555    1.383   .     A
C554   C556    1.380   .     A
C554   H560    1.084   .     S
C555   O607    1.383   .     S
C555   C557    1.406   .     A
C556   O612    1.384   .     S
C556   C558    1.407   .     A
C558   C239    1.446   1_565 S
N565   Zn576   2.008   .     S
N566   Zn575   2.008   .     S
O567   Zn575   2.002   .     S
O568   Zn576   2.002   .     S
O569   Zn576   1.995   .     S
O570   Zn575   1.995   .     S
O571   Zn575   1.979   .     S
O572   Zn576   1.979   .     S
O573   Zn576   1.988   .     S
O574   Zn575   1.988   .     S
O577   C578    1.411   .     S
O577   C333    1.391   1_655 S
C578   H581    1.109   .     S
C578   H579    1.114   .     S
C578   H368    1.113   1_655 S
O582   C583    1.413   .     S
C583   H584    1.113   .     S
C583   H586    1.109   .     S
H585   C371    1.107   1_655 S
O587   C588    1.410   .     S
C588   H590    1.114   .     S
C588   H591    1.109   .     S
H589   C270    1.110   1_565 S
O592   C593    1.412   .     S
C593   H596    1.112   .     S
C593   H276    1.109   1_565 S
C593   H277    1.109   1_565 S
O597   C598    1.411   .     S
C598   H599    1.113   .     S
C598   H601    1.114   .     S
C598   H600    1.109   .     S
O602   C603    1.412   .     S
C603   H604    1.113   .     S
C603   H605    1.109   .     S
C603   H606    1.109   .     S
O607   C608    1.409   .     S
C608   H610    1.115   .     S
C608   H611    1.109   .     S
H609   C290    1.110   1_565 S
O612   C613    1.408   .     S
C613   H614    1.110   .     S
C613   H615    1.114   .     S
C613   H616    1.109   .     S
O617   C618    1.412   .     S
C618   H621    1.110   .     S
C618   H620    1.115   .     S
C618   H619    1.109   .     S
O622   C623    1.412   .     S
C623   H624    1.114   .     S
C623   H626    1.109   .     S
C623   H625    1.111   .     S
O627   C628    1.411   .     S
C628   H630    1.111   .     S
C628   H631    1.109   .     S
C628   H629    1.115   .     S
O632   C633    1.411   .     S
C633   H635    1.109   .     S
C633   H636    1.112   .     S
C633   H634    1.112   .     S
C637   C657    1.451   .     S
C637   O673    1.289   .     A
C637   O675    1.292   .     A
C638   C658    1.425   .     S
C638   O674    1.283   .     A
C638   O676    1.284   .     A
C639   H667    1.080   .     S
C639   C641    1.417   .     A
C639   C647    1.410   .     A
C640   C648    1.405   .     A
C640   H668    1.079   .     S
C640   C642    1.422   .     A
C641   N671    1.365   .     A
C641   O723    1.385   .     S
C642   O728    1.393   .     S
C642   N672    1.368   .     A
C643   C645    1.413   .     A
C643   O733    1.382   .     S
C643   N671    1.366   .     A
C644   N672    1.369   .     A
C644   C646    1.427   .     A
C644   O738    1.397   .     S
C645   H669    1.081   .     S
C645   C647    1.409   .     A
C646   H670    1.078   .     S
C646   C648    1.406   .     A
C648   C11     1.519   1_556 S
C649   O677    1.272   .     A
C649   C651    1.406   .     S
C649   O679    1.282   .     A
C650   O678    1.276   .     A
C650   C652    1.408   .     S
C650   O680    1.280   .     A
C651   C864    1.349   1_455 S
C651   O895    1.391   1_455 S
C652   C757    1.349   .     S
C652   O794    1.394   .     S
C653   C663    1.406   .     A
C653   C655    1.389   .     A
C653   O693    1.385   .     S
C654   C664    1.415   .     A
C654   O698    1.386   .     S
C654   C656    1.392   .     A
C655   C657    1.410   .     A
C655   O703    1.381   .     S
C656   C658    1.403   .     A
C656   O708    1.386   .     S
C657   C659    1.401   .     A
C658   C660    1.391   .     A
C659   H665    1.083   .     S
C659   C661    1.383   .     A
C660   C662    1.380   .     A
C660   H666    1.084   .     S
C661   O713    1.383   .     S
C661   C663    1.406   .     A
C662   O718    1.384   .     S
C662   C664    1.407   .     A
C663   C982    1.446   1_545 S
C664   C981    1.446   .     S
N671   Zn682   2.008   .     S
N672   Zn681   2.008   .     S
O673   Zn681   2.002   .     S
O674   Zn682   2.002   .     S
O675   Zn682   1.995   .     S
O676   Zn681   1.995   .     S
O677   Zn681   1.979   .     S
O678   Zn682   1.979   .     S
O679   Zn682   1.988   .     S
O680   Zn681   1.988   .     S
O683   C684    1.411   .     S
O683   C757    1.391   .     S
C684   H687    1.109   .     S
C684   H685    1.114   .     S
C684   H792    1.113   .     S
H686   C896    1.113   1_455 S
O688   C689    1.413   .     S
O688   C864    1.394   1_455 S
C689   H690    1.113   .     S
C689   H692    1.109   .     S
C689   H903    1.107   1_455 S
H691   C795    1.107   .     S
O693   C694    1.410   .     S
C694   H696    1.114   .     S
C694   H697    1.109   .     S
C694   H1013   1.110   1_545 S
H695   C1012   1.110   .     S
O698   C699    1.412   .     S
C699   H702    1.112   .     S
C699   H1018   1.109   .     S
C699   H1019   1.109   .     S
H700   C1017   1.109   1_545 S
H701   C1017   1.109   1_545 S
O703   C704    1.411   .     S
C704   H705    1.113   .     S
C704   H707    1.114   .     S
C704   H706    1.109   .     S
O708   C709    1.412   .     S
C709   H710    1.113   .     S
C709   H711    1.109   .     S
C709   H712    1.109   .     S
O713   C714    1.409   .     S
C714   H716    1.115   .     S
C714   H717    1.109   .     S
C714   H1033   1.110   1_545 S
H715   C1032   1.110   .     S
O718   C719    1.408   .     S
C719   H720    1.110   .     S
C719   H721    1.114   .     S
C719   H722    1.109   .     S
O723   C724    1.412   .     S
C724   H727    1.110   .     S
C724   H726    1.115   .     S
C724   H725    1.109   .     S
O728   C729    1.412   .     S
C729   H730    1.114   .     S
C729   H732    1.109   .     S
C729   H731    1.111   .     S
O733   C734    1.411   .     S
C734   H736    1.111   .     S
C734   H737    1.109   .     S
C734   H735    1.115   .     S
O738   C739    1.411   .     S
C739   H741    1.109   .     S
C739   H742    1.112   .     S
C739   H740    1.112   .     S
C743   C763    1.451   .     S
C743   O779    1.289   .     A
C743   O781    1.292   .     A
C744   C764    1.425   .     S
C744   O780    1.283   .     A
C744   O782    1.284   .     A
C745   H773    1.080   .     S
C745   C747    1.417   .     A
C745   C753    1.410   .     A
C746   C754    1.405   .     A
C746   H774    1.079   .     S
C746   C748    1.422   .     A
C747   N777    1.365   .     A
C747   O829    1.385   .     S
C748   O834    1.393   .     S
C748   N778    1.368   .     A
C749   C751    1.413   .     A
C749   O839    1.382   .     S
C749   N777    1.366   .     A
C750   N778    1.369   .     A
C750   C752    1.427   .     A
C750   O844    1.397   .     S
C751   H775    1.081   .     S
C751   C753    1.409   .     A
C752   H776    1.078   .     S
C752   C754    1.406   .     A
C754   C117    1.519   1_556 S
C755   O783    1.272   .     A
C755   C757    1.406   .     S
C755   O785    1.282   .     A
C756   O784    1.276   .     A
C756   C758    1.408   .     S
C756   O786    1.280   .     A
C758   C863    1.349   .     S
C758   O900    1.394   .     S
C759   C769    1.406   .     A
C759   C761    1.389   .     A
C759   O799    1.385   .     S
C760   C770    1.415   .     A
C760   O804    1.386   .     S
C760   C762    1.392   .     A
C761   C763    1.410   .     A
C761   O809    1.381   .     S
C762   C764    1.403   .     A
C762   O814    1.386   .     S
C763   C765    1.401   .     A
C764   C766    1.391   .     A
C765   H771    1.083   .     S
C765   C767    1.383   .     A
C766   C768    1.380   .     A
C766   H772    1.084   .     S
C767   O819    1.383   .     S
C767   C769    1.406   .     A
C768   O824    1.384   .     S
C768   C770    1.407   .     A
C769   C1088   1.446   1_545 S
C770   C1087   1.446   .     S
N777   Zn788   2.008   .     S
N778   Zn787   2.008   .     S
O779   Zn787   2.002   .     S
O780   Zn788   2.002   .     S
O781   Zn788   1.995   .     S
O782   Zn787   1.995   .     S
O783   Zn787   1.979   .     S
O784   Zn788   1.979   .     S
O785   Zn788   1.988   .     S
O786   Zn787   1.988   .     S
O789   C790    1.411   .     S
O789   C863    1.391   .     S
C790   H793    1.109   .     S
C790   H791    1.114   .     S
C790   H898    1.113   .     S
O794   C795    1.413   .     S
C795   H796    1.113   .     S
C795   H798    1.109   .     S
H797   C901    1.107   .     S
O799   C800    1.410   .     S
C800   H802    1.114   .     S
C800   H803    1.109   .     S
C800   H1119   1.110   1_545 S
H801   C1118   1.110   .     S
O804   C805    1.412   .     S
C805   H808    1.112   .     S
C805   H1124   1.109   .     S
C805   H1125   1.109   .     S
H806   C1123   1.109   1_545 S
H807   C1123   1.109   1_545 S
O809   C810    1.411   .     S
C810   H811    1.113   .     S
C810   H813    1.114   .     S
C810   H812    1.109   .     S
O814   C815    1.412   .     S
C815   H816    1.113   .     S
C815   H817    1.109   .     S
C815   H818    1.109   .     S
O819   C820    1.409   .     S
C820   H822    1.115   .     S
C820   H823    1.109   .     S
C820   H1139   1.110   1_545 S
H821   C1138   1.110   .     S
O824   C825    1.408   .     S
C825   H826    1.110   .     S
C825   H827    1.114   .     S
C825   H828    1.109   .     S
O829   C830    1.412   .     S
C830   H833    1.110   .     S
C830   H832    1.115   .     S
C830   H831    1.109   .     S
O834   C835    1.412   .     S
C835   H836    1.114   .     S
C835   H838    1.109   .     S
C835   H837    1.111   .     S
O839   C840    1.411   .     S
C840   H842    1.111   .     S
C840   H843    1.109   .     S
C840   H841    1.115   .     S
O844   C845    1.411   .     S
C845   H847    1.109   .     S
C845   H848    1.112   .     S
C845   H846    1.112   .     S
C849   C869    1.451   .     S
C849   O885    1.289   .     A
C849   O887    1.292   .     A
C850   C870    1.425   .     S
C850   O886    1.283   .     A
C850   O888    1.284   .     A
C851   H879    1.080   .     S
C851   C853    1.417   .     A
C851   C859    1.410   .     A
C852   C860    1.405   .     A
C852   H880    1.079   .     S
C852   C854    1.422   .     A
C853   N883    1.365   .     A
C853   O935    1.385   .     S
C854   O940    1.393   .     S
C854   N884    1.368   .     A
C855   C857    1.413   .     A
C855   O945    1.382   .     S
C855   N883    1.366   .     A
C856   N884    1.369   .     A
C856   C858    1.427   .     A
C856   O950    1.397   .     S
C857   H881    1.081   .     S
C857   C859    1.409   .     A
C858   H882    1.078   .     S
C858   C860    1.406   .     A
C860   C223    1.519   1_556 S
C861   O889    1.272   .     A
C861   C863    1.406   .     S
C861   O891    1.282   .     A
C862   O890    1.276   .     A
C862   C864    1.408   .     S
C862   O892    1.280   .     A
C864   C651    1.349   1_655 S
C864   O688    1.394   1_655 S
C865   C875    1.406   .     A
C865   C867    1.389   .     A
C865   O905    1.385   .     S
C866   C876    1.415   .     A
C866   O910    1.386   .     S
C866   C868    1.392   .     A
C867   C869    1.410   .     A
C867   O915    1.381   .     S
C868   C870    1.403   .     A
C868   O920    1.386   .     S
C869   C871    1.401   .     A
C870   C872    1.391   .     A
C871   H877    1.083   .     S
C871   C873    1.383   .     A
C872   C874    1.380   .     A
C872   H878    1.084   .     S
C873   O925    1.383   .     S
C873   C875    1.406   .     A
C874   O930    1.384   .     S
C874   C876    1.407   .     A
C875   C1194   1.446   1_545 S
C876   C1193   1.446   .     S
N883   Zn894   2.008   .     S
N884   Zn893   2.008   .     S
O885   Zn893   2.002   .     S
O886   Zn894   2.002   .     S
O887   Zn894   1.995   .     S
O888   Zn893   1.995   .     S
O889   Zn893   1.979   .     S
O890   Zn894   1.979   .     S
O891   Zn894   1.988   .     S
O892   Zn893   1.988   .     S
O895   C896    1.411   .     S
O895   C651    1.391   1_655 S
C896   H899    1.109   .     S
C896   H897    1.114   .     S
C896   H686    1.113   1_655 S
O900   C901    1.413   .     S
C901   H902    1.113   .     S
C901   H904    1.109   .     S
H903   C689    1.107   1_655 S
O905   C906    1.410   .     S
C906   H908    1.114   .     S
C906   H909    1.109   .     S
C906   H1225   1.110   1_545 S
H907   C1224   1.110   .     S
O910   C911    1.412   .     S
C911   H914    1.112   .     S
C911   H1230   1.109   .     S
C911   H1231   1.109   .     S
H912   C1229   1.109   1_545 S
H913   C1229   1.109   1_545 S
O915   C916    1.411   .     S
C916   H917    1.113   .     S
C916   H919    1.114   .     S
C916   H918    1.109   .     S
O920   C921    1.412   .     S
C921   H922    1.113   .     S
C921   H923    1.109   .     S
C921   H924    1.109   .     S
O925   C926    1.409   .     S
C926   H928    1.115   .     S
C926   H929    1.109   .     S
C926   H1245   1.110   1_545 S
H927   C1244   1.110   .     S
O930   C931    1.408   .     S
C931   H932    1.110   .     S
C931   H933    1.114   .     S
C931   H934    1.109   .     S
O935   C936    1.412   .     S
C936   H939    1.110   .     S
C936   H938    1.115   .     S
C936   H937    1.109   .     S
O940   C941    1.412   .     S
C941   H942    1.114   .     S
C941   H944    1.109   .     S
C941   H943    1.111   .     S
O945   C946    1.411   .     S
C946   H948    1.111   .     S
C946   H949    1.109   .     S
C946   H947    1.115   .     S
O950   C951    1.411   .     S
C951   H953    1.109   .     S
C951   H954    1.112   .     S
C951   H952    1.112   .     S
C955   C975    1.451   .     S
C955   O991    1.289   .     A
C955   O993    1.292   .     A
C956   C976    1.425   .     S
C956   O992    1.283   .     A
C956   O994    1.284   .     A
C957   H985    1.080   .     S
C957   C959    1.417   .     A
C957   C965    1.410   .     A
C958   C966    1.405   .     A
C958   H986    1.079   .     S
C958   C960    1.422   .     A
C959   N989    1.365   .     A
C959   O1041   1.385   .     S
C960   O1046   1.393   .     S
C960   N990    1.368   .     A
C961   C963    1.413   .     A
C961   O1051   1.382   .     S
C961   N989    1.366   .     A
C962   N990    1.369   .     A
C962   C964    1.427   .     A
C962   O1056   1.397   .     S
C963   H987    1.081   .     S
C963   C965    1.409   .     A
C964   H988    1.078   .     S
C964   C966    1.406   .     A
C966   C329    1.519   1_556 S
C967   O995    1.272   .     A
C967   C969    1.406   .     S
C967   O997    1.282   .     A
C968   O996    1.276   .     A
C968   C970    1.408   .     S
C968   O998    1.280   .     A
C969   C1182   1.349   1_455 S
C969   O1213   1.391   1_455 S
C970   C1075   1.349   .     S
C970   O1112   1.394   .     S
C971   C981    1.406   .     A
C971   C973    1.389   .     A
C971   O1011   1.385   .     S
C972   C982    1.415   .     A
C972   O1016   1.386   .     S
C972   C974    1.392   .     A
C973   C975    1.410   .     A
C973   O1021   1.381   .     S
C974   C976    1.403   .     A
C974   O1026   1.386   .     S
C975   C977    1.401   .     A
C976   C978    1.391   .     A
C977   H983    1.083   .     S
C977   C979    1.383   .     A
C978   C980    1.380   .     A
C978   H984    1.084   .     S
C979   O1031   1.383   .     S
C979   C981    1.406   .     A
C980   O1036   1.384   .     S
C980   C982    1.407   .     A
C982   C663    1.446   1_565 S
N989   Zn1000  2.008   .     S
N990   Zn999   2.008   .     S
O991   Zn999   2.002   .     S
O992   Zn1000  2.002   .     S
O993   Zn1000  1.995   .     S
O994   Zn999   1.995   .     S
O995   Zn999   1.979   .     S
O996   Zn1000  1.979   .     S
O997   Zn1000  1.988   .     S
O998   Zn999   1.988   .     S
O1001  C1002   1.411   .     S
O1001  C1075   1.391   .     S
C1002  H1005   1.109   .     S
C1002  H1003   1.114   .     S
C1002  H1110   1.113   .     S
H1004  C1214   1.113   1_455 S
O1006  C1007   1.413   .     S
O1006  C1182   1.394   1_455 S
C1007  H1008   1.113   .     S
C1007  H1010   1.109   .     S
C1007  H1221   1.107   1_455 S
H1009  C1113   1.107   .     S
O1011  C1012   1.410   .     S
C1012  H1014   1.114   .     S
C1012  H1015   1.109   .     S
H1013  C694    1.110   1_565 S
O1016  C1017   1.412   .     S
C1017  H1020   1.112   .     S
C1017  H700    1.109   1_565 S
C1017  H701    1.109   1_565 S
O1021  C1022   1.411   .     S
C1022  H1023   1.113   .     S
C1022  H1025   1.114   .     S
C1022  H1024   1.109   .     S
O1026  C1027   1.412   .     S
C1027  H1028   1.113   .     S
C1027  H1029   1.109   .     S
C1027  H1030   1.109   .     S
O1031  C1032   1.409   .     S
C1032  H1034   1.115   .     S
C1032  H1035   1.109   .     S
H1033  C714    1.110   1_565 S
O1036  C1037   1.408   .     S
C1037  H1038   1.110   .     S
C1037  H1039   1.114   .     S
C1037  H1040   1.109   .     S
O1041  C1042   1.412   .     S
C1042  H1045   1.110   .     S
C1042  H1044   1.115   .     S
C1042  H1043   1.109   .     S
O1046  C1047   1.412   .     S
C1047  H1048   1.114   .     S
C1047  H1050   1.109   .     S
C1047  H1049   1.111   .     S
O1051  C1052   1.411   .     S
C1052  H1054   1.111   .     S
C1052  H1055   1.109   .     S
C1052  H1053   1.115   .     S
O1056  C1057   1.411   .     S
C1057  H1059   1.109   .     S
C1057  H1060   1.112   .     S
C1057  H1058   1.112   .     S
C1061  C1081   1.451   .     S
C1061  O1097   1.289   .     A
C1061  O1099   1.292   .     A
C1062  C1082   1.425   .     S
C1062  O1098   1.283   .     A
C1062  O1100   1.284   .     A
C1063  H1091   1.080   .     S
C1063  C1065   1.417   .     A
C1063  C1071   1.410   .     A
C1064  C1072   1.405   .     A
C1064  H1092   1.079   .     S
C1064  C1066   1.422   .     A
C1065  N1095   1.365   .     A
C1065  O1147   1.385   .     S
C1066  O1152   1.393   .     S
C1066  N1096   1.368   .     A
C1067  C1069   1.413   .     A
C1067  O1157   1.382   .     S
C1067  N1095   1.366   .     A
C1068  N1096   1.369   .     A
C1068  C1070   1.427   .     A
C1068  O1162   1.397   .     S
C1069  H1093   1.081   .     S
C1069  C1071   1.409   .     A
C1070  H1094   1.078   .     S
C1070  C1072   1.406   .     A
C1072  C435    1.519   1_556 S
C1073  O1101   1.272   .     A
C1073  C1075   1.406   .     S
C1073  O1103   1.282   .     A
C1074  O1102   1.276   .     A
C1074  C1076   1.408   .     S
C1074  O1104   1.280   .     A
C1076  C1181   1.349   .     S
C1076  O1218   1.394   .     S
C1077  C1087   1.406   .     A
C1077  C1079   1.389   .     A
C1077  O1117   1.385   .     S
C1078  C1088   1.415   .     A
C1078  O1122   1.386   .     S
C1078  C1080   1.392   .     A
C1079  C1081   1.410   .     A
C1079  O1127   1.381   .     S
C1080  C1082   1.403   .     A
C1080  O1132   1.386   .     S
C1081  C1083   1.401   .     A
C1082  C1084   1.391   .     A
C1083  H1089   1.083   .     S
C1083  C1085   1.383   .     A
C1084  C1086   1.380   .     A
C1084  H1090   1.084   .     S
C1085  O1137   1.383   .     S
C1085  C1087   1.406   .     A
C1086  O1142   1.384   .     S
C1086  C1088   1.407   .     A
C1088  C769    1.446   1_565 S
N1095  Zn1106  2.008   .     S
N1096  Zn1105  2.008   .     S
O1097  Zn1105  2.002   .     S
O1098  Zn1106  2.002   .     S
O1099  Zn1106  1.995   .     S
O1100  Zn1105  1.995   .     S
O1101  Zn1105  1.979   .     S
O1102  Zn1106  1.979   .     S
O1103  Zn1106  1.988   .     S
O1104  Zn1105  1.988   .     S
O1107  C1108   1.411   .     S
O1107  C1181   1.391   .     S
C1108  H1111   1.109   .     S
C1108  H1109   1.114   .     S
C1108  H1216   1.113   .     S
O1112  C1113   1.413   .     S
C1113  H1114   1.113   .     S
C1113  H1116   1.109   .     S
H1115  C1219   1.107   .     S
O1117  C1118   1.410   .     S
C1118  H1120   1.114   .     S
C1118  H1121   1.109   .     S
H1119  C800    1.110   1_565 S
O1122  C1123   1.412   .     S
C1123  H1126   1.112   .     S
C1123  H806    1.109   1_565 S
C1123  H807    1.109   1_565 S
O1127  C1128   1.411   .     S
C1128  H1129   1.113   .     S
C1128  H1131   1.114   .     S
C1128  H1130   1.109   .     S
O1132  C1133   1.412   .     S
C1133  H1134   1.113   .     S
C1133  H1135   1.109   .     S
C1133  H1136   1.109   .     S
O1137  C1138   1.409   .     S
C1138  H1140   1.115   .     S
C1138  H1141   1.109   .     S
H1139  C820    1.110   1_565 S
O1142  C1143   1.408   .     S
C1143  H1144   1.110   .     S
C1143  H1145   1.114   .     S
C1143  H1146   1.109   .     S
O1147  C1148   1.412   .     S
C1148  H1151   1.110   .     S
C1148  H1150   1.115   .     S
C1148  H1149   1.109   .     S
O1152  C1153   1.412   .     S
C1153  H1154   1.114   .     S
C1153  H1156   1.109   .     S
C1153  H1155   1.111   .     S
O1157  C1158   1.411   .     S
C1158  H1160   1.111   .     S
C1158  H1161   1.109   .     S
C1158  H1159   1.115   .     S
O1162  C1163   1.411   .     S
C1163  H1165   1.109   .     S
C1163  H1166   1.112   .     S
C1163  H1164   1.112   .     S
C1167  C1187   1.451   .     S
C1167  O1203   1.289   .     A
C1167  O1205   1.292   .     A
C1168  C1188   1.425   .     S
C1168  O1204   1.283   .     A
C1168  O1206   1.284   .     A
C1169  H1197   1.080   .     S
C1169  C1171   1.417   .     A
C1169  C1177   1.410   .     A
C1170  C1178   1.405   .     A
C1170  H1198   1.079   .     S
C1170  C1172   1.422   .     A
C1171  N1201   1.365   .     A
C1171  O1253   1.385   .     S
C1172  O1258   1.393   .     S
C1172  N1202   1.368   .     A
C1173  C1175   1.413   .     A
C1173  O1263   1.382   .     S
C1173  N1201   1.366   .     A
C1174  N1202   1.369   .     A
C1174  C1176   1.427   .     A
C1174  O1268   1.397   .     S
C1175  H1199   1.081   .     S
C1175  C1177   1.409   .     A
C1176  H1200   1.078   .     S
C1176  C1178   1.406   .     A
C1178  C541    1.519   1_556 S
C1179  O1207   1.272   .     A
C1179  C1181   1.406   .     S
C1179  O1209   1.282   .     A
C1180  O1208   1.276   .     A
C1180  C1182   1.408   .     S
C1180  O1210   1.280   .     A
C1182  C969    1.349   1_655 S
C1182  O1006   1.394   1_655 S
C1183  C1193   1.406   .     A
C1183  C1185   1.389   .     A
C1183  O1223   1.385   .     S
C1184  C1194   1.415   .     A
C1184  O1228   1.386   .     S
C1184  C1186   1.392   .     A
C1185  C1187   1.410   .     A
C1185  O1233   1.381   .     S
C1186  C1188   1.403   .     A
C1186  O1238   1.386   .     S
C1187  C1189   1.401   .     A
C1188  C1190   1.391   .     A
C1189  H1195   1.083   .     S
C1189  C1191   1.383   .     A
C1190  C1192   1.380   .     A
C1190  H1196   1.084   .     S
C1191  O1243   1.383   .     S
C1191  C1193   1.406   .     A
C1192  O1248   1.384   .     S
C1192  C1194   1.407   .     A
C1194  C875    1.446   1_565 S
N1201  Zn1212  2.008   .     S
N1202  Zn1211  2.008   .     S
O1203  Zn1211  2.002   .     S
O1204  Zn1212  2.002   .     S
O1205  Zn1212  1.995   .     S
O1206  Zn1211  1.995   .     S
O1207  Zn1211  1.979   .     S
O1208  Zn1212  1.979   .     S
O1209  Zn1212  1.988   .     S
O1210  Zn1211  1.988   .     S
O1213  C1214   1.411   .     S
O1213  C969    1.391   1_655 S
C1214  H1217   1.109   .     S
C1214  H1215   1.114   .     S
C1214  H1004   1.113   1_655 S
O1218  C1219   1.413   .     S
C1219  H1220   1.113   .     S
C1219  H1222   1.109   .     S
H1221  C1007   1.107   1_655 S
O1223  C1224   1.410   .     S
C1224  H1226   1.114   .     S
C1224  H1227   1.109   .     S
H1225  C906    1.110   1_565 S
O1228  C1229   1.412   .     S
C1229  H1232   1.112   .     S
C1229  H912    1.109   1_565 S
C1229  H913    1.109   1_565 S
O1233  C1234   1.411   .     S
C1234  H1235   1.113   .     S
C1234  H1237   1.114   .     S
C1234  H1236   1.109   .     S
O1238  C1239   1.412   .     S
C1239  H1240   1.113   .     S
C1239  H1241   1.109   .     S
C1239  H1242   1.109   .     S
O1243  C1244   1.409   .     S
C1244  H1246   1.115   .     S
C1244  H1247   1.109   .     S
H1245  C926    1.110   1_565 S
O1248  C1249   1.408   .     S
C1249  H1250   1.110   .     S
C1249  H1251   1.114   .     S
C1249  H1252   1.109   .     S
O1253  C1254   1.412   .     S
C1254  H1257   1.110   .     S
C1254  H1256   1.115   .     S
C1254  H1255   1.109   .     S
O1258  C1259   1.412   .     S
C1259  H1260   1.114   .     S
C1259  H1262   1.109   .     S
C1259  H1261   1.111   .     S
O1263  C1264   1.411   .     S
C1264  H1266   1.111   .     S
C1264  H1267   1.109   .     S
C1264  H1265   1.115   .     S
O1268  C1269   1.411   .     S
C1269  H1271   1.109   .     S
C1269  H1272   1.112   .     S
C1269  H1270   1.112   .     S
