data_str_m3_o1_o16_pcu_sym.199
_audit_creation_date              2020-01-03
_audit_creation_method            'Materials Studio'
_symmetry_space_group_name_H-M    'P1'
_symmetry_Int_Tables_number       1
_symmetry_cell_setting            triclinic
loop_
_symmetry_equiv_pos_as_xyz
  x,y,z
_cell_length_a                    29.9874
_cell_length_b                    31.9186
_cell_length_c                    26.1896
_cell_angle_alpha                 90.0017
_cell_angle_beta                  73.4399
_cell_angle_gamma                 90.2876
loop_
_atom_site_label
_atom_site_type_symbol
_atom_site_fract_x
_atom_site_fract_y
_atom_site_fract_z
_atom_site_U_iso_or_equiv
_atom_site_adp_type
_atom_site_occupancy
O1     O     0.12846   0.22775   0.25001   0.00000  Uiso   1.00
O2     O     0.20490   0.22774   0.25001   0.00000  Uiso   1.00
C3     C     0.16725   0.24647   0.24811   0.00000  Uiso   1.00
O4     O     0.10947   0.16666   0.32681   0.00000  Uiso   1.00
O5     O     0.18591   0.16665   0.32681   0.00000  Uiso   1.00
C6     C     0.14265   0.15714   0.34881   0.00000  Uiso   1.00
Zn7    Zn    0.11562   0.16667   0.25000   0.00000  Uiso   1.00
Zn8    Zn    0.21771   0.16666   0.25000   0.00000  Uiso   1.00
O9     O     0.12843   0.10559   0.25000   0.00000  Uiso   1.00
O10    O     0.20488   0.10558   0.25000   0.00000  Uiso   1.00
O11    O     0.14742   0.16668   0.17319   0.00000  Uiso   1.00
O12    O     0.22387   0.16667   0.17319   0.00000  Uiso   1.00
C13    C     0.16671   0.08689   0.24941   0.00000  Uiso   1.00
C14    C     0.19163   0.16892   0.14857   0.00000  Uiso   1.00
C15    C     0.26700   0.16027   0.00896   0.00000  Uiso   1.00
H16    H     0.27897   0.16949   0.08450   0.00000  Uiso   1.00
H17    H     0.28425   0.13923   0.40540   0.00000  Uiso   1.00
C18    C     0.20553   0.16964   0.09063   0.00000  Uiso   1.00
C19    C     0.09015   0.11940   0.42756   0.00000  Uiso   1.00
C20    C     0.08051   0.10820   0.48159   0.00000  Uiso   1.00
C21    C     0.11008   0.12183   0.01079   0.00000  Uiso   1.00
C22    C     0.15364   0.13911   0.48388   0.00000  Uiso   1.00
C23    C     0.16766   0.13638   0.42838   0.00000  Uiso   1.00
C24    C     0.18603   0.15286   0.00981   0.00000  Uiso   1.00
C25    C     0.23391   0.15251   0.48168   0.00000  Uiso   1.00
C26    C     0.24792   0.14124   0.42770   0.00000  Uiso   1.00
C27    C     0.21518   0.12948   0.40243   0.00000  Uiso   1.00
C28    C     0.17206   0.16734   0.06245   0.00000  Uiso   1.00
C29    C     0.25280   0.16767   0.06331   0.00000  Uiso   1.00
C30    C     0.13280   0.13786   0.40203   0.00000  Uiso   1.00
H31    H     0.06598   0.11271   0.40492   0.00000  Uiso   1.00
H32    H     0.10085   0.11499   0.05290   0.00000  Uiso   1.00
H33    H     0.04965   0.09072   0.00190   0.00000  Uiso   1.00
C34    C     0.20668   0.31270   0.21289   0.00000  Uiso   1.00
C35    C     0.20604   0.02263   0.21559   0.00000  Uiso   1.00
H36    H     0.23509   0.04083   0.19140   0.00000  Uiso   1.00
C37    C     0.16699   0.04279   0.24783   0.00000  Uiso   1.00
C38    C     0.12818   0.02100   0.27800   0.00000  Uiso   1.00
H39    H     0.09809   0.03713   0.30302   0.00000  Uiso   1.00
C40    C     0.12879   0.31148   0.27711   0.00000  Uiso   1.00
H41    H     0.09910   0.29442   0.30191   0.00000  Uiso   1.00
C42    C     0.16789   0.29079   0.24537   0.00000  Uiso   1.00
C43    C     0.31385   0.13348   0.23056   0.00000  Uiso   1.00
H44    H     0.29957   0.10692   0.21475   0.00000  Uiso   1.00
C45    C     0.02807   0.13312   0.23051   0.00000  Uiso   1.00
N46    N     0.04760   0.16668   0.25002   0.00000  Uiso   1.00
C47    C     0.01906   0.19983   0.26977   0.00000  Uiso   1.00
H48    H     0.03284   0.22657   0.28578   0.00000  Uiso   1.00
C49    C     0.30480   0.19979   0.26982   0.00000  Uiso   1.00
H50    H     0.28331   0.22650   0.28587   0.00000  Uiso   1.00
N51    N     0.28573   0.16665   0.25001   0.00000  Uiso   1.00
N52    N     0.05489   0.09673   0.21015   0.00000  Uiso   1.00
O53    O     0.09058   0.09970   0.16825   0.00000  Uiso   1.00
O54    O     0.03792   0.05977   0.22578   0.00000  Uiso   1.00
N55    N     0.31442   0.15115   0.48450   0.00000  Uiso   1.00
O56    O     0.32433   0.11371   0.46531   0.00000  Uiso   1.00
O57    O     0.01354   0.17570   0.49168   0.00000  Uiso   1.00
N58    N     0.12926   0.19035   0.08062   0.00000  Uiso   1.00
O59    O     0.09241   0.17397   0.11357   0.00000  Uiso   1.00
O60    O     0.12555   0.22601   0.05820   0.00000  Uiso   1.00
C61    C     0.23084   0.10094   0.35629   0.00000  Uiso   1.00
H62    H     0.26669   0.10171   0.33175   0.00000  Uiso   1.00
O63    O     0.20458   0.07428   0.34768   0.00000  Uiso   1.00
C64    C     0.24640   0.29150   0.17440   0.00000  Uiso   1.00
H65    H     0.24348   0.25921   0.16284   0.00000  Uiso   1.00
O66    O     0.28291   0.31016   0.15444   0.00000  Uiso   1.00
O67    O     0.46179   0.22775   0.25001   0.00000  Uiso   1.00
O68    O     0.53823   0.22774   0.25001   0.00000  Uiso   1.00
C69    C     0.50058   0.24647   0.24811   0.00000  Uiso   1.00
O70    O     0.44280   0.16666   0.32681   0.00000  Uiso   1.00
O71    O     0.51924   0.16665   0.32681   0.00000  Uiso   1.00
C72    C     0.47598   0.15714   0.34881   0.00000  Uiso   1.00
Zn73   Zn    0.44896   0.16667   0.25000   0.00000  Uiso   1.00
Zn74   Zn    0.55104   0.16666   0.25000   0.00000  Uiso   1.00
O75    O     0.46177   0.10559   0.25000   0.00000  Uiso   1.00
O76    O     0.53821   0.10558   0.25000   0.00000  Uiso   1.00
O77    O     0.48076   0.16668   0.17319   0.00000  Uiso   1.00
O78    O     0.55720   0.16667   0.17319   0.00000  Uiso   1.00
C79    C     0.50004   0.08689   0.24941   0.00000  Uiso   1.00
C80    C     0.52496   0.16892   0.14857   0.00000  Uiso   1.00
C81    C     0.60033   0.16027   0.00896   0.00000  Uiso   1.00
H82    H     0.61230   0.16949   0.08450   0.00000  Uiso   1.00
H83    H     0.61759   0.13923   0.40540   0.00000  Uiso   1.00
C84    C     0.53886   0.16964   0.09063   0.00000  Uiso   1.00
C85    C     0.42348   0.11940   0.42756   0.00000  Uiso   1.00
C86    C     0.41384   0.10820   0.48159   0.00000  Uiso   1.00
C87    C     0.44341   0.12183   0.01079   0.00000  Uiso   1.00
C88    C     0.48697   0.13911   0.48388   0.00000  Uiso   1.00
C89    C     0.50099   0.13638   0.42838   0.00000  Uiso   1.00
C90    C     0.51937   0.15286   0.00981   0.00000  Uiso   1.00
C91    C     0.56724   0.15251   0.48168   0.00000  Uiso   1.00
C92    C     0.58125   0.14124   0.42770   0.00000  Uiso   1.00
C93    C     0.54851   0.12948   0.40243   0.00000  Uiso   1.00
C94    C     0.50540   0.16734   0.06245   0.00000  Uiso   1.00
C95    C     0.58613   0.16767   0.06331   0.00000  Uiso   1.00
C96    C     0.46614   0.13786   0.40203   0.00000  Uiso   1.00
H97    H     0.39932   0.11271   0.40492   0.00000  Uiso   1.00
H98    H     0.43418   0.11499   0.05290   0.00000  Uiso   1.00
H99    H     0.38298   0.09072   0.00190   0.00000  Uiso   1.00
C100   C     0.54001   0.31270   0.21289   0.00000  Uiso   1.00
C101   C     0.53938   0.02263   0.21559   0.00000  Uiso   1.00
H102   H     0.56842   0.04083   0.19140   0.00000  Uiso   1.00
C103   C     0.50032   0.04279   0.24783   0.00000  Uiso   1.00
C104   C     0.46151   0.02100   0.27800   0.00000  Uiso   1.00
H105   H     0.43142   0.03713   0.30302   0.00000  Uiso   1.00
C106   C     0.46212   0.31148   0.27711   0.00000  Uiso   1.00
H107   H     0.43243   0.29442   0.30191   0.00000  Uiso   1.00
C108   C     0.50123   0.29079   0.24537   0.00000  Uiso   1.00
C109   C     0.64719   0.13348   0.23056   0.00000  Uiso   1.00
H110   H     0.63291   0.10692   0.21475   0.00000  Uiso   1.00
C111   C     0.36141   0.13312   0.23051   0.00000  Uiso   1.00
N112   N     0.38093   0.16668   0.25002   0.00000  Uiso   1.00
C113   C     0.35240   0.19983   0.26977   0.00000  Uiso   1.00
H114   H     0.36617   0.22657   0.28578   0.00000  Uiso   1.00
C115   C     0.63813   0.19979   0.26982   0.00000  Uiso   1.00
H116   H     0.61665   0.22650   0.28587   0.00000  Uiso   1.00
N117   N     0.61906   0.16665   0.25001   0.00000  Uiso   1.00
N118   N     0.38822   0.09673   0.21015   0.00000  Uiso   1.00
O119   O     0.42392   0.09970   0.16825   0.00000  Uiso   1.00
O120   O     0.37126   0.05977   0.22578   0.00000  Uiso   1.00
N121   N     0.64776   0.15115   0.48450   0.00000  Uiso   1.00
O122   O     0.65766   0.11371   0.46531   0.00000  Uiso   1.00
O123   O     0.34687   0.17570   0.49168   0.00000  Uiso   1.00
N124   N     0.46260   0.19035   0.08062   0.00000  Uiso   1.00
O125   O     0.42575   0.17397   0.11357   0.00000  Uiso   1.00
O126   O     0.45889   0.22601   0.05820   0.00000  Uiso   1.00
C127   C     0.56417   0.10094   0.35629   0.00000  Uiso   1.00
H128   H     0.60002   0.10171   0.33175   0.00000  Uiso   1.00
O129   O     0.53791   0.07428   0.34768   0.00000  Uiso   1.00
C130   C     0.57974   0.29150   0.17440   0.00000  Uiso   1.00
H131   H     0.57682   0.25921   0.16284   0.00000  Uiso   1.00
O132   O     0.61624   0.31016   0.15444   0.00000  Uiso   1.00
O133   O     0.79512   0.22775   0.25001   0.00000  Uiso   1.00
O134   O     0.87157   0.22774   0.25001   0.00000  Uiso   1.00
C135   C     0.83391   0.24647   0.24811   0.00000  Uiso   1.00
O136   O     0.77613   0.16666   0.32681   0.00000  Uiso   1.00
O137   O     0.85258   0.16665   0.32681   0.00000  Uiso   1.00
C138   C     0.80931   0.15714   0.34881   0.00000  Uiso   1.00
Zn139  Zn    0.78229   0.16667   0.25000   0.00000  Uiso   1.00
Zn140  Zn    0.88438   0.16666   0.25000   0.00000  Uiso   1.00
O141   O     0.79510   0.10559   0.25000   0.00000  Uiso   1.00
O142   O     0.87154   0.10558   0.25000   0.00000  Uiso   1.00
O143   O     0.81409   0.16668   0.17319   0.00000  Uiso   1.00
O144   O     0.89053   0.16667   0.17319   0.00000  Uiso   1.00
C145   C     0.83337   0.08689   0.24941   0.00000  Uiso   1.00
C146   C     0.85829   0.16892   0.14857   0.00000  Uiso   1.00
C147   C     0.93367   0.16027   0.00896   0.00000  Uiso   1.00
H148   H     0.94563   0.16949   0.08450   0.00000  Uiso   1.00
H149   H     0.95092   0.13923   0.40540   0.00000  Uiso   1.00
C150   C     0.87220   0.16964   0.09063   0.00000  Uiso   1.00
C151   C     0.75681   0.11940   0.42756   0.00000  Uiso   1.00
C152   C     0.74718   0.10820   0.48159   0.00000  Uiso   1.00
C153   C     0.77675   0.12183   0.01079   0.00000  Uiso   1.00
C154   C     0.82030   0.13911   0.48388   0.00000  Uiso   1.00
C155   C     0.83432   0.13638   0.42838   0.00000  Uiso   1.00
C156   C     0.85270   0.15286   0.00981   0.00000  Uiso   1.00
C157   C     0.90057   0.15251   0.48168   0.00000  Uiso   1.00
C158   C     0.91459   0.14124   0.42770   0.00000  Uiso   1.00
C159   C     0.88185   0.12948   0.40243   0.00000  Uiso   1.00
C160   C     0.83873   0.16734   0.06245   0.00000  Uiso   1.00
C161   C     0.91947   0.16767   0.06331   0.00000  Uiso   1.00
C162   C     0.79947   0.13786   0.40203   0.00000  Uiso   1.00
H163   H     0.73265   0.11271   0.40492   0.00000  Uiso   1.00
H164   H     0.76751   0.11499   0.05290   0.00000  Uiso   1.00
H165   H     0.71632   0.09072   0.00190   0.00000  Uiso   1.00
C166   C     0.87335   0.31270   0.21289   0.00000  Uiso   1.00
C167   C     0.87271   0.02263   0.21559   0.00000  Uiso   1.00
H168   H     0.90175   0.04083   0.19140   0.00000  Uiso   1.00
C169   C     0.83366   0.04279   0.24783   0.00000  Uiso   1.00
C170   C     0.79485   0.02100   0.27800   0.00000  Uiso   1.00
H171   H     0.76475   0.03713   0.30302   0.00000  Uiso   1.00
C172   C     0.79546   0.31148   0.27711   0.00000  Uiso   1.00
H173   H     0.76577   0.29442   0.30191   0.00000  Uiso   1.00
C174   C     0.83456   0.29079   0.24537   0.00000  Uiso   1.00
C175   C     0.98052   0.13348   0.23056   0.00000  Uiso   1.00
H176   H     0.96624   0.10692   0.21475   0.00000  Uiso   1.00
C177   C     0.69474   0.13312   0.23051   0.00000  Uiso   1.00
N178   N     0.71426   0.16668   0.25002   0.00000  Uiso   1.00
C179   C     0.68573   0.19983   0.26977   0.00000  Uiso   1.00
H180   H     0.69950   0.22657   0.28578   0.00000  Uiso   1.00
C181   C     0.97147   0.19979   0.26982   0.00000  Uiso   1.00
H182   H     0.94998   0.22650   0.28587   0.00000  Uiso   1.00
N183   N     0.95239   0.16665   0.25001   0.00000  Uiso   1.00
N184   N     0.72156   0.09673   0.21015   0.00000  Uiso   1.00
O185   O     0.75725   0.09970   0.16825   0.00000  Uiso   1.00
O186   O     0.70459   0.05977   0.22578   0.00000  Uiso   1.00
N187   N     0.98109   0.15115   0.48450   0.00000  Uiso   1.00
O188   O     0.99099   0.11371   0.46531   0.00000  Uiso   1.00
O189   O     0.68020   0.17570   0.49168   0.00000  Uiso   1.00
N190   N     0.79593   0.19035   0.08062   0.00000  Uiso   1.00
O191   O     0.75908   0.17397   0.11357   0.00000  Uiso   1.00
O192   O     0.79222   0.22601   0.05820   0.00000  Uiso   1.00
C193   C     0.89750   0.10094   0.35629   0.00000  Uiso   1.00
H194   H     0.93336   0.10171   0.33175   0.00000  Uiso   1.00
O195   O     0.87124   0.07428   0.34768   0.00000  Uiso   1.00
C196   C     0.91307   0.29150   0.17440   0.00000  Uiso   1.00
H197   H     0.91015   0.25921   0.16284   0.00000  Uiso   1.00
O198   O     0.94957   0.31016   0.15444   0.00000  Uiso   1.00
O199   O     0.12846   0.56108   0.25001   0.00000  Uiso   1.00
O200   O     0.20490   0.56107   0.25001   0.00000  Uiso   1.00
C201   C     0.16725   0.57980   0.24811   0.00000  Uiso   1.00
O202   O     0.10947   0.50000   0.32681   0.00000  Uiso   1.00
O203   O     0.18591   0.49999   0.32681   0.00000  Uiso   1.00
C204   C     0.14265   0.49047   0.34881   0.00000  Uiso   1.00
Zn205  Zn    0.11562   0.50001   0.25000   0.00000  Uiso   1.00
Zn206  Zn    0.21771   0.49999   0.25000   0.00000  Uiso   1.00
O207   O     0.12843   0.43893   0.25000   0.00000  Uiso   1.00
O208   O     0.20488   0.43892   0.25000   0.00000  Uiso   1.00
O209   O     0.14742   0.50001   0.17319   0.00000  Uiso   1.00
O210   O     0.22387   0.50000   0.17319   0.00000  Uiso   1.00
C211   C     0.16671   0.42023   0.24941   0.00000  Uiso   1.00
C212   C     0.19163   0.50225   0.14857   0.00000  Uiso   1.00
C213   C     0.26700   0.49360   0.00896   0.00000  Uiso   1.00
H214   H     0.27897   0.50282   0.08450   0.00000  Uiso   1.00
H215   H     0.28425   0.47256   0.40540   0.00000  Uiso   1.00
C216   C     0.20553   0.50297   0.09063   0.00000  Uiso   1.00
C217   C     0.09015   0.45273   0.42756   0.00000  Uiso   1.00
C218   C     0.08051   0.44154   0.48159   0.00000  Uiso   1.00
C219   C     0.11008   0.45517   0.01079   0.00000  Uiso   1.00
C220   C     0.15364   0.47245   0.48388   0.00000  Uiso   1.00
C221   C     0.16766   0.46971   0.42838   0.00000  Uiso   1.00
C222   C     0.18603   0.48619   0.00981   0.00000  Uiso   1.00
C223   C     0.23391   0.48584   0.48168   0.00000  Uiso   1.00
C224   C     0.24792   0.47458   0.42770   0.00000  Uiso   1.00
C225   C     0.21518   0.46282   0.40243   0.00000  Uiso   1.00
C226   C     0.17206   0.50068   0.06245   0.00000  Uiso   1.00
C227   C     0.25280   0.50100   0.06331   0.00000  Uiso   1.00
C228   C     0.13280   0.47120   0.40203   0.00000  Uiso   1.00
H229   H     0.06598   0.44605   0.40492   0.00000  Uiso   1.00
H230   H     0.10085   0.44832   0.05290   0.00000  Uiso   1.00
H231   H     0.04965   0.42406   0.00190   0.00000  Uiso   1.00
C232   C     0.20668   0.64603   0.21289   0.00000  Uiso   1.00
C233   C     0.20604   0.35597   0.21559   0.00000  Uiso   1.00
H234   H     0.23509   0.37416   0.19140   0.00000  Uiso   1.00
C235   C     0.16699   0.37612   0.24783   0.00000  Uiso   1.00
C236   C     0.12818   0.35434   0.27800   0.00000  Uiso   1.00
H237   H     0.09809   0.37046   0.30302   0.00000  Uiso   1.00
C238   C     0.12879   0.64481   0.27711   0.00000  Uiso   1.00
H239   H     0.09910   0.62776   0.30191   0.00000  Uiso   1.00
C240   C     0.16789   0.62412   0.24537   0.00000  Uiso   1.00
C241   C     0.31385   0.46681   0.23056   0.00000  Uiso   1.00
H242   H     0.29957   0.44025   0.21475   0.00000  Uiso   1.00
C243   C     0.02807   0.46646   0.23051   0.00000  Uiso   1.00
N244   N     0.04760   0.50001   0.25002   0.00000  Uiso   1.00
C245   C     0.01906   0.53317   0.26977   0.00000  Uiso   1.00
H246   H     0.03284   0.55990   0.28578   0.00000  Uiso   1.00
C247   C     0.30480   0.53312   0.26982   0.00000  Uiso   1.00
H248   H     0.28331   0.55983   0.28587   0.00000  Uiso   1.00
N249   N     0.28573   0.49998   0.25001   0.00000  Uiso   1.00
N250   N     0.05489   0.43007   0.21015   0.00000  Uiso   1.00
O251   O     0.09058   0.43303   0.16825   0.00000  Uiso   1.00
O252   O     0.03792   0.39311   0.22578   0.00000  Uiso   1.00
N253   N     0.31442   0.48448   0.48450   0.00000  Uiso   1.00
O254   O     0.32433   0.44704   0.46531   0.00000  Uiso   1.00
O255   O     0.01354   0.50903   0.49168   0.00000  Uiso   1.00
N256   N     0.12926   0.52368   0.08062   0.00000  Uiso   1.00
O257   O     0.09241   0.50730   0.11357   0.00000  Uiso   1.00
O258   O     0.12555   0.55935   0.05820   0.00000  Uiso   1.00
C259   C     0.23084   0.43427   0.35629   0.00000  Uiso   1.00
H260   H     0.26669   0.43505   0.33175   0.00000  Uiso   1.00
O261   O     0.20458   0.40761   0.34768   0.00000  Uiso   1.00
C262   C     0.24640   0.62483   0.17440   0.00000  Uiso   1.00
H263   H     0.24348   0.59254   0.16284   0.00000  Uiso   1.00
O264   O     0.28291   0.64350   0.15444   0.00000  Uiso   1.00
O265   O     0.46179   0.56108   0.25001   0.00000  Uiso   1.00
O266   O     0.53823   0.56107   0.25001   0.00000  Uiso   1.00
C267   C     0.50058   0.57980   0.24811   0.00000  Uiso   1.00
O268   O     0.44280   0.50000   0.32681   0.00000  Uiso   1.00
O269   O     0.51924   0.49999   0.32681   0.00000  Uiso   1.00
C270   C     0.47598   0.49047   0.34881   0.00000  Uiso   1.00
Zn271  Zn    0.44896   0.50001   0.25000   0.00000  Uiso   1.00
Zn272  Zn    0.55104   0.49999   0.25000   0.00000  Uiso   1.00
O273   O     0.46177   0.43893   0.25000   0.00000  Uiso   1.00
O274   O     0.53821   0.43892   0.25000   0.00000  Uiso   1.00
O275   O     0.48076   0.50001   0.17319   0.00000  Uiso   1.00
O276   O     0.55720   0.50000   0.17319   0.00000  Uiso   1.00
C277   C     0.50004   0.42023   0.24941   0.00000  Uiso   1.00
C278   C     0.52496   0.50225   0.14857   0.00000  Uiso   1.00
C279   C     0.60033   0.49360   0.00896   0.00000  Uiso   1.00
H280   H     0.61230   0.50282   0.08450   0.00000  Uiso   1.00
H281   H     0.61759   0.47256   0.40540   0.00000  Uiso   1.00
C282   C     0.53886   0.50297   0.09063   0.00000  Uiso   1.00
C283   C     0.42348   0.45273   0.42756   0.00000  Uiso   1.00
C284   C     0.41384   0.44154   0.48159   0.00000  Uiso   1.00
C285   C     0.44341   0.45517   0.01079   0.00000  Uiso   1.00
C286   C     0.48697   0.47245   0.48388   0.00000  Uiso   1.00
C287   C     0.50099   0.46971   0.42838   0.00000  Uiso   1.00
C288   C     0.51937   0.48619   0.00981   0.00000  Uiso   1.00
C289   C     0.56724   0.48584   0.48168   0.00000  Uiso   1.00
C290   C     0.58125   0.47458   0.42770   0.00000  Uiso   1.00
C291   C     0.54851   0.46282   0.40243   0.00000  Uiso   1.00
C292   C     0.50540   0.50068   0.06245   0.00000  Uiso   1.00
C293   C     0.58613   0.50100   0.06331   0.00000  Uiso   1.00
C294   C     0.46614   0.47120   0.40203   0.00000  Uiso   1.00
H295   H     0.39932   0.44605   0.40492   0.00000  Uiso   1.00
H296   H     0.43418   0.44832   0.05290   0.00000  Uiso   1.00
H297   H     0.38298   0.42406   0.00190   0.00000  Uiso   1.00
C298   C     0.54001   0.64603   0.21289   0.00000  Uiso   1.00
C299   C     0.53938   0.35597   0.21559   0.00000  Uiso   1.00
H300   H     0.56842   0.37416   0.19140   0.00000  Uiso   1.00
C301   C     0.50032   0.37612   0.24783   0.00000  Uiso   1.00
C302   C     0.46151   0.35434   0.27800   0.00000  Uiso   1.00
H303   H     0.43142   0.37046   0.30302   0.00000  Uiso   1.00
C304   C     0.46212   0.64481   0.27711   0.00000  Uiso   1.00
H305   H     0.43243   0.62776   0.30191   0.00000  Uiso   1.00
C306   C     0.50123   0.62412   0.24537   0.00000  Uiso   1.00
C307   C     0.64719   0.46681   0.23056   0.00000  Uiso   1.00
H308   H     0.63291   0.44025   0.21475   0.00000  Uiso   1.00
C309   C     0.36141   0.46646   0.23051   0.00000  Uiso   1.00
N310   N     0.38093   0.50001   0.25002   0.00000  Uiso   1.00
C311   C     0.35240   0.53317   0.26977   0.00000  Uiso   1.00
H312   H     0.36617   0.55990   0.28578   0.00000  Uiso   1.00
C313   C     0.63813   0.53312   0.26982   0.00000  Uiso   1.00
H314   H     0.61665   0.55983   0.28587   0.00000  Uiso   1.00
N315   N     0.61906   0.49998   0.25001   0.00000  Uiso   1.00
N316   N     0.38822   0.43007   0.21015   0.00000  Uiso   1.00
O317   O     0.42392   0.43303   0.16825   0.00000  Uiso   1.00
O318   O     0.37126   0.39311   0.22578   0.00000  Uiso   1.00
N319   N     0.64776   0.48448   0.48450   0.00000  Uiso   1.00
O320   O     0.65766   0.44704   0.46531   0.00000  Uiso   1.00
O321   O     0.34687   0.50903   0.49168   0.00000  Uiso   1.00
N322   N     0.46260   0.52368   0.08062   0.00000  Uiso   1.00
O323   O     0.42575   0.50730   0.11357   0.00000  Uiso   1.00
O324   O     0.45889   0.55935   0.05820   0.00000  Uiso   1.00
C325   C     0.56417   0.43427   0.35629   0.00000  Uiso   1.00
H326   H     0.60002   0.43505   0.33175   0.00000  Uiso   1.00
O327   O     0.53791   0.40761   0.34768   0.00000  Uiso   1.00
C328   C     0.57974   0.62483   0.17440   0.00000  Uiso   1.00
H329   H     0.57682   0.59254   0.16284   0.00000  Uiso   1.00
O330   O     0.61624   0.64350   0.15444   0.00000  Uiso   1.00
O331   O     0.79512   0.56108   0.25001   0.00000  Uiso   1.00
O332   O     0.87157   0.56107   0.25001   0.00000  Uiso   1.00
C333   C     0.83391   0.57980   0.24811   0.00000  Uiso   1.00
O334   O     0.77613   0.50000   0.32681   0.00000  Uiso   1.00
O335   O     0.85258   0.49999   0.32681   0.00000  Uiso   1.00
C336   C     0.80931   0.49047   0.34881   0.00000  Uiso   1.00
Zn337  Zn    0.78229   0.50001   0.25000   0.00000  Uiso   1.00
Zn338  Zn    0.88438   0.49999   0.25000   0.00000  Uiso   1.00
O339   O     0.79510   0.43893   0.25000   0.00000  Uiso   1.00
O340   O     0.87154   0.43892   0.25000   0.00000  Uiso   1.00
O341   O     0.81409   0.50001   0.17319   0.00000  Uiso   1.00
O342   O     0.89053   0.50000   0.17319   0.00000  Uiso   1.00
C343   C     0.83337   0.42023   0.24941   0.00000  Uiso   1.00
C344   C     0.85829   0.50225   0.14857   0.00000  Uiso   1.00
C345   C     0.93367   0.49360   0.00896   0.00000  Uiso   1.00
H346   H     0.94563   0.50282   0.08450   0.00000  Uiso   1.00
H347   H     0.95092   0.47256   0.40540   0.00000  Uiso   1.00
C348   C     0.87220   0.50297   0.09063   0.00000  Uiso   1.00
C349   C     0.75681   0.45273   0.42756   0.00000  Uiso   1.00
C350   C     0.74718   0.44154   0.48159   0.00000  Uiso   1.00
C351   C     0.77675   0.45517   0.01079   0.00000  Uiso   1.00
C352   C     0.82030   0.47245   0.48388   0.00000  Uiso   1.00
C353   C     0.83432   0.46971   0.42838   0.00000  Uiso   1.00
C354   C     0.85270   0.48619   0.00981   0.00000  Uiso   1.00
C355   C     0.90057   0.48584   0.48168   0.00000  Uiso   1.00
C356   C     0.91459   0.47458   0.42770   0.00000  Uiso   1.00
C357   C     0.88185   0.46282   0.40243   0.00000  Uiso   1.00
C358   C     0.83873   0.50068   0.06245   0.00000  Uiso   1.00
C359   C     0.91947   0.50100   0.06331   0.00000  Uiso   1.00
C360   C     0.79947   0.47120   0.40203   0.00000  Uiso   1.00
H361   H     0.73265   0.44605   0.40492   0.00000  Uiso   1.00
H362   H     0.76751   0.44832   0.05290   0.00000  Uiso   1.00
H363   H     0.71632   0.42406   0.00190   0.00000  Uiso   1.00
C364   C     0.87335   0.64603   0.21289   0.00000  Uiso   1.00
C365   C     0.87271   0.35597   0.21559   0.00000  Uiso   1.00
H366   H     0.90175   0.37416   0.19140   0.00000  Uiso   1.00
C367   C     0.83366   0.37612   0.24783   0.00000  Uiso   1.00
C368   C     0.79485   0.35434   0.27800   0.00000  Uiso   1.00
H369   H     0.76475   0.37046   0.30302   0.00000  Uiso   1.00
C370   C     0.79546   0.64481   0.27711   0.00000  Uiso   1.00
H371   H     0.76577   0.62776   0.30191   0.00000  Uiso   1.00
C372   C     0.83456   0.62412   0.24537   0.00000  Uiso   1.00
C373   C     0.98052   0.46681   0.23056   0.00000  Uiso   1.00
H374   H     0.96624   0.44025   0.21475   0.00000  Uiso   1.00
C375   C     0.69474   0.46646   0.23051   0.00000  Uiso   1.00
N376   N     0.71426   0.50001   0.25002   0.00000  Uiso   1.00
C377   C     0.68573   0.53317   0.26977   0.00000  Uiso   1.00
H378   H     0.69950   0.55990   0.28578   0.00000  Uiso   1.00
C379   C     0.97147   0.53312   0.26982   0.00000  Uiso   1.00
H380   H     0.94998   0.55983   0.28587   0.00000  Uiso   1.00
N381   N     0.95239   0.49998   0.25001   0.00000  Uiso   1.00
N382   N     0.72156   0.43007   0.21015   0.00000  Uiso   1.00
O383   O     0.75725   0.43303   0.16825   0.00000  Uiso   1.00
O384   O     0.70459   0.39311   0.22578   0.00000  Uiso   1.00
N385   N     0.98109   0.48448   0.48450   0.00000  Uiso   1.00
O386   O     0.99099   0.44704   0.46531   0.00000  Uiso   1.00
O387   O     0.68020   0.50903   0.49168   0.00000  Uiso   1.00
N388   N     0.79593   0.52368   0.08062   0.00000  Uiso   1.00
O389   O     0.75908   0.50730   0.11357   0.00000  Uiso   1.00
O390   O     0.79222   0.55935   0.05820   0.00000  Uiso   1.00
C391   C     0.89750   0.43427   0.35629   0.00000  Uiso   1.00
H392   H     0.93336   0.43505   0.33175   0.00000  Uiso   1.00
O393   O     0.87124   0.40761   0.34768   0.00000  Uiso   1.00
C394   C     0.91307   0.62483   0.17440   0.00000  Uiso   1.00
H395   H     0.91015   0.59254   0.16284   0.00000  Uiso   1.00
O396   O     0.94957   0.64350   0.15444   0.00000  Uiso   1.00
O397   O     0.12846   0.89442   0.25001   0.00000  Uiso   1.00
O398   O     0.20490   0.89441   0.25001   0.00000  Uiso   1.00
C399   C     0.16725   0.91313   0.24811   0.00000  Uiso   1.00
O400   O     0.10947   0.83333   0.32681   0.00000  Uiso   1.00
O401   O     0.18591   0.83332   0.32681   0.00000  Uiso   1.00
C402   C     0.14265   0.82381   0.34881   0.00000  Uiso   1.00
Zn403  Zn    0.11562   0.83334   0.25000   0.00000  Uiso   1.00
Zn404  Zn    0.21771   0.83333   0.25000   0.00000  Uiso   1.00
O405   O     0.12843   0.77226   0.25000   0.00000  Uiso   1.00
O406   O     0.20488   0.77225   0.25000   0.00000  Uiso   1.00
O407   O     0.14742   0.83335   0.17319   0.00000  Uiso   1.00
O408   O     0.22387   0.83334   0.17319   0.00000  Uiso   1.00
C409   C     0.16671   0.75356   0.24941   0.00000  Uiso   1.00
C410   C     0.19163   0.83559   0.14857   0.00000  Uiso   1.00
C411   C     0.26700   0.82693   0.00896   0.00000  Uiso   1.00
H412   H     0.27897   0.83615   0.08450   0.00000  Uiso   1.00
H413   H     0.28425   0.80589   0.40540   0.00000  Uiso   1.00
C414   C     0.20553   0.83631   0.09063   0.00000  Uiso   1.00
C415   C     0.09015   0.78606   0.42756   0.00000  Uiso   1.00
C416   C     0.08051   0.77487   0.48159   0.00000  Uiso   1.00
C417   C     0.11008   0.78850   0.01079   0.00000  Uiso   1.00
C418   C     0.15364   0.80578   0.48388   0.00000  Uiso   1.00
C419   C     0.16766   0.80304   0.42838   0.00000  Uiso   1.00
C420   C     0.18603   0.81953   0.00981   0.00000  Uiso   1.00
C421   C     0.23391   0.81917   0.48168   0.00000  Uiso   1.00
C422   C     0.24792   0.80791   0.42770   0.00000  Uiso   1.00
C423   C     0.21518   0.79615   0.40243   0.00000  Uiso   1.00
C424   C     0.17206   0.83401   0.06245   0.00000  Uiso   1.00
C425   C     0.25280   0.83433   0.06331   0.00000  Uiso   1.00
C426   C     0.13280   0.80453   0.40203   0.00000  Uiso   1.00
H427   H     0.06598   0.77938   0.40492   0.00000  Uiso   1.00
H428   H     0.10085   0.78166   0.05290   0.00000  Uiso   1.00
H429   H     0.04965   0.75739   0.00190   0.00000  Uiso   1.00
C430   C     0.20668   0.97937   0.21289   0.00000  Uiso   1.00
C431   C     0.20604   0.68930   0.21559   0.00000  Uiso   1.00
H432   H     0.23509   0.70749   0.19140   0.00000  Uiso   1.00
C433   C     0.16699   0.70946   0.24783   0.00000  Uiso   1.00
C434   C     0.12818   0.68767   0.27800   0.00000  Uiso   1.00
H435   H     0.09809   0.70379   0.30302   0.00000  Uiso   1.00
C436   C     0.12879   0.97814   0.27711   0.00000  Uiso   1.00
H437   H     0.09910   0.96109   0.30191   0.00000  Uiso   1.00
C438   C     0.16789   0.95745   0.24537   0.00000  Uiso   1.00
C439   C     0.31385   0.80015   0.23056   0.00000  Uiso   1.00
H440   H     0.29957   0.77359   0.21475   0.00000  Uiso   1.00
C441   C     0.02807   0.79979   0.23051   0.00000  Uiso   1.00
N442   N     0.04760   0.83334   0.25002   0.00000  Uiso   1.00
C443   C     0.01906   0.86650   0.26977   0.00000  Uiso   1.00
H444   H     0.03284   0.89324   0.28578   0.00000  Uiso   1.00
C445   C     0.30480   0.86645   0.26982   0.00000  Uiso   1.00
H446   H     0.28331   0.89316   0.28587   0.00000  Uiso   1.00
N447   N     0.28573   0.83331   0.25001   0.00000  Uiso   1.00
N448   N     0.05489   0.76340   0.21015   0.00000  Uiso   1.00
O449   O     0.09058   0.76637   0.16825   0.00000  Uiso   1.00
O450   O     0.03792   0.72644   0.22578   0.00000  Uiso   1.00
N451   N     0.31442   0.81781   0.48450   0.00000  Uiso   1.00
O452   O     0.32433   0.78038   0.46531   0.00000  Uiso   1.00
O453   O     0.01354   0.84236   0.49168   0.00000  Uiso   1.00
N454   N     0.12926   0.85702   0.08062   0.00000  Uiso   1.00
O455   O     0.09241   0.84064   0.11357   0.00000  Uiso   1.00
O456   O     0.12555   0.89268   0.05820   0.00000  Uiso   1.00
C457   C     0.23084   0.76760   0.35629   0.00000  Uiso   1.00
H458   H     0.26669   0.76838   0.33175   0.00000  Uiso   1.00
O459   O     0.20458   0.74094   0.34768   0.00000  Uiso   1.00
C460   C     0.24640   0.95816   0.17440   0.00000  Uiso   1.00
H461   H     0.24348   0.92587   0.16284   0.00000  Uiso   1.00
O462   O     0.28291   0.97683   0.15444   0.00000  Uiso   1.00
O463   O     0.46179   0.89442   0.25001   0.00000  Uiso   1.00
O464   O     0.53823   0.89441   0.25001   0.00000  Uiso   1.00
C465   C     0.50058   0.91313   0.24811   0.00000  Uiso   1.00
O466   O     0.44280   0.83333   0.32681   0.00000  Uiso   1.00
O467   O     0.51924   0.83332   0.32681   0.00000  Uiso   1.00
C468   C     0.47598   0.82381   0.34881   0.00000  Uiso   1.00
Zn469  Zn    0.44896   0.83334   0.25000   0.00000  Uiso   1.00
Zn470  Zn    0.55104   0.83333   0.25000   0.00000  Uiso   1.00
O471   O     0.46177   0.77226   0.25000   0.00000  Uiso   1.00
O472   O     0.53821   0.77225   0.25000   0.00000  Uiso   1.00
O473   O     0.48076   0.83335   0.17319   0.00000  Uiso   1.00
O474   O     0.55720   0.83334   0.17319   0.00000  Uiso   1.00
C475   C     0.50004   0.75356   0.24941   0.00000  Uiso   1.00
C476   C     0.52496   0.83559   0.14857   0.00000  Uiso   1.00
C477   C     0.60033   0.82693   0.00896   0.00000  Uiso   1.00
H478   H     0.61230   0.83615   0.08450   0.00000  Uiso   1.00
H479   H     0.61759   0.80589   0.40540   0.00000  Uiso   1.00
C480   C     0.53886   0.83631   0.09063   0.00000  Uiso   1.00
C481   C     0.42348   0.78606   0.42756   0.00000  Uiso   1.00
C482   C     0.41384   0.77487   0.48159   0.00000  Uiso   1.00
C483   C     0.44341   0.78850   0.01079   0.00000  Uiso   1.00
C484   C     0.48697   0.80578   0.48388   0.00000  Uiso   1.00
C485   C     0.50099   0.80304   0.42838   0.00000  Uiso   1.00
C486   C     0.51937   0.81953   0.00981   0.00000  Uiso   1.00
C487   C     0.56724   0.81917   0.48168   0.00000  Uiso   1.00
C488   C     0.58125   0.80791   0.42770   0.00000  Uiso   1.00
C489   C     0.54851   0.79615   0.40243   0.00000  Uiso   1.00
C490   C     0.50540   0.83401   0.06245   0.00000  Uiso   1.00
C491   C     0.58613   0.83433   0.06331   0.00000  Uiso   1.00
C492   C     0.46614   0.80453   0.40203   0.00000  Uiso   1.00
H493   H     0.39932   0.77938   0.40492   0.00000  Uiso   1.00
H494   H     0.43418   0.78166   0.05290   0.00000  Uiso   1.00
H495   H     0.38298   0.75739   0.00190   0.00000  Uiso   1.00
C496   C     0.54001   0.97937   0.21289   0.00000  Uiso   1.00
C497   C     0.53938   0.68930   0.21559   0.00000  Uiso   1.00
H498   H     0.56842   0.70749   0.19140   0.00000  Uiso   1.00
C499   C     0.50032   0.70946   0.24783   0.00000  Uiso   1.00
C500   C     0.46151   0.68767   0.27800   0.00000  Uiso   1.00
H501   H     0.43142   0.70379   0.30302   0.00000  Uiso   1.00
C502   C     0.46212   0.97814   0.27711   0.00000  Uiso   1.00
H503   H     0.43243   0.96109   0.30191   0.00000  Uiso   1.00
C504   C     0.50123   0.95745   0.24537   0.00000  Uiso   1.00
C505   C     0.64719   0.80015   0.23056   0.00000  Uiso   1.00
H506   H     0.63291   0.77359   0.21475   0.00000  Uiso   1.00
C507   C     0.36141   0.79979   0.23051   0.00000  Uiso   1.00
N508   N     0.38093   0.83334   0.25002   0.00000  Uiso   1.00
C509   C     0.35240   0.86650   0.26977   0.00000  Uiso   1.00
H510   H     0.36617   0.89324   0.28578   0.00000  Uiso   1.00
C511   C     0.63813   0.86645   0.26982   0.00000  Uiso   1.00
H512   H     0.61665   0.89316   0.28587   0.00000  Uiso   1.00
N513   N     0.61906   0.83331   0.25001   0.00000  Uiso   1.00
N514   N     0.38822   0.76340   0.21015   0.00000  Uiso   1.00
O515   O     0.42392   0.76637   0.16825   0.00000  Uiso   1.00
O516   O     0.37126   0.72644   0.22578   0.00000  Uiso   1.00
N517   N     0.64776   0.81781   0.48450   0.00000  Uiso   1.00
O518   O     0.65766   0.78038   0.46531   0.00000  Uiso   1.00
O519   O     0.34687   0.84236   0.49168   0.00000  Uiso   1.00
N520   N     0.46260   0.85702   0.08062   0.00000  Uiso   1.00
O521   O     0.42575   0.84064   0.11357   0.00000  Uiso   1.00
O522   O     0.45889   0.89268   0.05820   0.00000  Uiso   1.00
C523   C     0.56417   0.76760   0.35629   0.00000  Uiso   1.00
H524   H     0.60002   0.76838   0.33175   0.00000  Uiso   1.00
O525   O     0.53791   0.74094   0.34768   0.00000  Uiso   1.00
C526   C     0.57974   0.95816   0.17440   0.00000  Uiso   1.00
H527   H     0.57682   0.92587   0.16284   0.00000  Uiso   1.00
O528   O     0.61624   0.97683   0.15444   0.00000  Uiso   1.00
O529   O     0.79512   0.89442   0.25001   0.00000  Uiso   1.00
O530   O     0.87157   0.89441   0.25001   0.00000  Uiso   1.00
C531   C     0.83391   0.91313   0.24811   0.00000  Uiso   1.00
O532   O     0.77613   0.83333   0.32681   0.00000  Uiso   1.00
O533   O     0.85258   0.83332   0.32681   0.00000  Uiso   1.00
C534   C     0.80931   0.82381   0.34881   0.00000  Uiso   1.00
Zn535  Zn    0.78229   0.83334   0.25000   0.00000  Uiso   1.00
Zn536  Zn    0.88438   0.83333   0.25000   0.00000  Uiso   1.00
O537   O     0.79510   0.77226   0.25000   0.00000  Uiso   1.00
O538   O     0.87154   0.77225   0.25000   0.00000  Uiso   1.00
O539   O     0.81409   0.83335   0.17319   0.00000  Uiso   1.00
O540   O     0.89053   0.83334   0.17319   0.00000  Uiso   1.00
C541   C     0.83337   0.75356   0.24941   0.00000  Uiso   1.00
C542   C     0.85829   0.83559   0.14857   0.00000  Uiso   1.00
C543   C     0.93367   0.82693   0.00896   0.00000  Uiso   1.00
H544   H     0.94563   0.83615   0.08450   0.00000  Uiso   1.00
H545   H     0.95092   0.80589   0.40540   0.00000  Uiso   1.00
C546   C     0.87220   0.83631   0.09063   0.00000  Uiso   1.00
C547   C     0.75681   0.78606   0.42756   0.00000  Uiso   1.00
C548   C     0.74718   0.77487   0.48159   0.00000  Uiso   1.00
C549   C     0.77675   0.78850   0.01079   0.00000  Uiso   1.00
C550   C     0.82030   0.80578   0.48388   0.00000  Uiso   1.00
C551   C     0.83432   0.80304   0.42838   0.00000  Uiso   1.00
C552   C     0.85270   0.81953   0.00981   0.00000  Uiso   1.00
C553   C     0.90057   0.81917   0.48168   0.00000  Uiso   1.00
C554   C     0.91459   0.80791   0.42770   0.00000  Uiso   1.00
C555   C     0.88185   0.79615   0.40243   0.00000  Uiso   1.00
C556   C     0.83873   0.83401   0.06245   0.00000  Uiso   1.00
C557   C     0.91947   0.83433   0.06331   0.00000  Uiso   1.00
C558   C     0.79947   0.80453   0.40203   0.00000  Uiso   1.00
H559   H     0.73265   0.77938   0.40492   0.00000  Uiso   1.00
H560   H     0.76751   0.78166   0.05290   0.00000  Uiso   1.00
H561   H     0.71632   0.75739   0.00190   0.00000  Uiso   1.00
C562   C     0.87335   0.97937   0.21289   0.00000  Uiso   1.00
C563   C     0.87271   0.68930   0.21559   0.00000  Uiso   1.00
H564   H     0.90175   0.70749   0.19140   0.00000  Uiso   1.00
C565   C     0.83366   0.70946   0.24783   0.00000  Uiso   1.00
C566   C     0.79485   0.68767   0.27800   0.00000  Uiso   1.00
H567   H     0.76475   0.70379   0.30302   0.00000  Uiso   1.00
C568   C     0.79546   0.97814   0.27711   0.00000  Uiso   1.00
H569   H     0.76577   0.96109   0.30191   0.00000  Uiso   1.00
C570   C     0.83456   0.95745   0.24537   0.00000  Uiso   1.00
C571   C     0.98052   0.80015   0.23056   0.00000  Uiso   1.00
H572   H     0.96624   0.77359   0.21475   0.00000  Uiso   1.00
C573   C     0.69474   0.79979   0.23051   0.00000  Uiso   1.00
N574   N     0.71426   0.83334   0.25002   0.00000  Uiso   1.00
C575   C     0.68573   0.86650   0.26977   0.00000  Uiso   1.00
H576   H     0.69950   0.89324   0.28578   0.00000  Uiso   1.00
C577   C     0.97147   0.86645   0.26982   0.00000  Uiso   1.00
H578   H     0.94998   0.89316   0.28587   0.00000  Uiso   1.00
N579   N     0.95239   0.83331   0.25001   0.00000  Uiso   1.00
N580   N     0.72156   0.76340   0.21015   0.00000  Uiso   1.00
O581   O     0.75725   0.76637   0.16825   0.00000  Uiso   1.00
O582   O     0.70459   0.72644   0.22578   0.00000  Uiso   1.00
N583   N     0.98109   0.81781   0.48450   0.00000  Uiso   1.00
O584   O     0.99099   0.78038   0.46531   0.00000  Uiso   1.00
O585   O     0.68020   0.84236   0.49168   0.00000  Uiso   1.00
N586   N     0.79593   0.85702   0.08062   0.00000  Uiso   1.00
O587   O     0.75908   0.84064   0.11357   0.00000  Uiso   1.00
O588   O     0.79222   0.89268   0.05820   0.00000  Uiso   1.00
C589   C     0.89750   0.76760   0.35629   0.00000  Uiso   1.00
H590   H     0.93336   0.76838   0.33175   0.00000  Uiso   1.00
O591   O     0.87124   0.74094   0.34768   0.00000  Uiso   1.00
C592   C     0.91307   0.95816   0.17440   0.00000  Uiso   1.00
H593   H     0.91015   0.92587   0.16284   0.00000  Uiso   1.00
O594   O     0.94957   0.97683   0.15444   0.00000  Uiso   1.00
O595   O     0.12846   0.22775   0.75001   0.00000  Uiso   1.00
O596   O     0.20490   0.22774   0.75001   0.00000  Uiso   1.00
C597   C     0.16725   0.24647   0.74811   0.00000  Uiso   1.00
O598   O     0.10947   0.16666   0.82681   0.00000  Uiso   1.00
O599   O     0.18591   0.16665   0.82681   0.00000  Uiso   1.00
C600   C     0.14265   0.15714   0.84881   0.00000  Uiso   1.00
Zn601  Zn    0.11562   0.16667   0.75000   0.00000  Uiso   1.00
Zn602  Zn    0.21771   0.16666   0.75000   0.00000  Uiso   1.00
O603   O     0.12843   0.10559   0.75000   0.00000  Uiso   1.00
O604   O     0.20488   0.10558   0.75000   0.00000  Uiso   1.00
O605   O     0.14742   0.16668   0.67319   0.00000  Uiso   1.00
O606   O     0.22387   0.16667   0.67319   0.00000  Uiso   1.00
C607   C     0.16671   0.08689   0.74941   0.00000  Uiso   1.00
C608   C     0.19163   0.16892   0.64857   0.00000  Uiso   1.00
C609   C     0.26700   0.16027   0.50896   0.00000  Uiso   1.00
H610   H     0.27897   0.16949   0.58450   0.00000  Uiso   1.00
H611   H     0.28425   0.13923   0.90540   0.00000  Uiso   1.00
C612   C     0.20553   0.16964   0.59063   0.00000  Uiso   1.00
C613   C     0.09015   0.11940   0.92756   0.00000  Uiso   1.00
C614   C     0.08051   0.10820   0.98159   0.00000  Uiso   1.00
C615   C     0.11008   0.12183   0.51079   0.00000  Uiso   1.00
C616   C     0.15364   0.13911   0.98388   0.00000  Uiso   1.00
C617   C     0.16766   0.13638   0.92838   0.00000  Uiso   1.00
C618   C     0.18603   0.15286   0.50981   0.00000  Uiso   1.00
C619   C     0.23391   0.15251   0.98168   0.00000  Uiso   1.00
C620   C     0.24792   0.14124   0.92770   0.00000  Uiso   1.00
C621   C     0.21518   0.12948   0.90243   0.00000  Uiso   1.00
C622   C     0.17206   0.16734   0.56245   0.00000  Uiso   1.00
C623   C     0.25280   0.16767   0.56331   0.00000  Uiso   1.00
C624   C     0.13280   0.13786   0.90203   0.00000  Uiso   1.00
H625   H     0.06598   0.11271   0.90492   0.00000  Uiso   1.00
H626   H     0.10085   0.11499   0.55290   0.00000  Uiso   1.00
H627   H     0.04965   0.09072   0.50190   0.00000  Uiso   1.00
C628   C     0.20668   0.31270   0.71289   0.00000  Uiso   1.00
C629   C     0.20604   0.02263   0.71559   0.00000  Uiso   1.00
H630   H     0.23509   0.04083   0.69140   0.00000  Uiso   1.00
C631   C     0.16699   0.04279   0.74783   0.00000  Uiso   1.00
C632   C     0.12818   0.02100   0.77800   0.00000  Uiso   1.00
H633   H     0.09809   0.03713   0.80302   0.00000  Uiso   1.00
C634   C     0.12879   0.31148   0.77711   0.00000  Uiso   1.00
H635   H     0.09910   0.29442   0.80191   0.00000  Uiso   1.00
C636   C     0.16789   0.29079   0.74537   0.00000  Uiso   1.00
C637   C     0.31385   0.13348   0.73056   0.00000  Uiso   1.00
H638   H     0.29957   0.10692   0.71475   0.00000  Uiso   1.00
C639   C     0.02807   0.13312   0.73051   0.00000  Uiso   1.00
N640   N     0.04760   0.16668   0.75002   0.00000  Uiso   1.00
C641   C     0.01906   0.19983   0.76977   0.00000  Uiso   1.00
H642   H     0.03284   0.22657   0.78578   0.00000  Uiso   1.00
C643   C     0.30480   0.19979   0.76982   0.00000  Uiso   1.00
H644   H     0.28331   0.22650   0.78587   0.00000  Uiso   1.00
N645   N     0.28573   0.16665   0.75001   0.00000  Uiso   1.00
N646   N     0.05489   0.09673   0.71015   0.00000  Uiso   1.00
O647   O     0.09058   0.09970   0.66825   0.00000  Uiso   1.00
O648   O     0.03792   0.05977   0.72578   0.00000  Uiso   1.00
N649   N     0.31442   0.15115   0.98450   0.00000  Uiso   1.00
O650   O     0.32433   0.11371   0.96531   0.00000  Uiso   1.00
O651   O     0.01354   0.17570   0.99168   0.00000  Uiso   1.00
N652   N     0.12926   0.19035   0.58062   0.00000  Uiso   1.00
O653   O     0.09241   0.17397   0.61357   0.00000  Uiso   1.00
O654   O     0.12555   0.22601   0.55820   0.00000  Uiso   1.00
C655   C     0.23084   0.10094   0.85629   0.00000  Uiso   1.00
H656   H     0.26669   0.10171   0.83175   0.00000  Uiso   1.00
O657   O     0.20458   0.07428   0.84768   0.00000  Uiso   1.00
C658   C     0.24640   0.29150   0.67440   0.00000  Uiso   1.00
H659   H     0.24348   0.25921   0.66284   0.00000  Uiso   1.00
O660   O     0.28291   0.31016   0.65444   0.00000  Uiso   1.00
O661   O     0.46179   0.22775   0.75001   0.00000  Uiso   1.00
O662   O     0.53823   0.22774   0.75001   0.00000  Uiso   1.00
C663   C     0.50058   0.24647   0.74811   0.00000  Uiso   1.00
O664   O     0.44280   0.16666   0.82681   0.00000  Uiso   1.00
O665   O     0.51924   0.16665   0.82681   0.00000  Uiso   1.00
C666   C     0.47598   0.15714   0.84881   0.00000  Uiso   1.00
Zn667  Zn    0.44896   0.16667   0.75000   0.00000  Uiso   1.00
Zn668  Zn    0.55104   0.16666   0.75000   0.00000  Uiso   1.00
O669   O     0.46177   0.10559   0.75000   0.00000  Uiso   1.00
O670   O     0.53821   0.10558   0.75000   0.00000  Uiso   1.00
O671   O     0.48076   0.16668   0.67319   0.00000  Uiso   1.00
O672   O     0.55720   0.16667   0.67319   0.00000  Uiso   1.00
C673   C     0.50004   0.08689   0.74941   0.00000  Uiso   1.00
C674   C     0.52496   0.16892   0.64857   0.00000  Uiso   1.00
C675   C     0.60033   0.16027   0.50896   0.00000  Uiso   1.00
H676   H     0.61230   0.16949   0.58450   0.00000  Uiso   1.00
H677   H     0.61759   0.13923   0.90540   0.00000  Uiso   1.00
C678   C     0.53886   0.16964   0.59063   0.00000  Uiso   1.00
C679   C     0.42348   0.11940   0.92756   0.00000  Uiso   1.00
C680   C     0.41384   0.10820   0.98159   0.00000  Uiso   1.00
C681   C     0.44341   0.12183   0.51079   0.00000  Uiso   1.00
C682   C     0.48697   0.13911   0.98388   0.00000  Uiso   1.00
C683   C     0.50099   0.13638   0.92838   0.00000  Uiso   1.00
C684   C     0.51937   0.15286   0.50981   0.00000  Uiso   1.00
C685   C     0.56724   0.15251   0.98168   0.00000  Uiso   1.00
C686   C     0.58125   0.14124   0.92770   0.00000  Uiso   1.00
C687   C     0.54851   0.12948   0.90243   0.00000  Uiso   1.00
C688   C     0.50540   0.16734   0.56245   0.00000  Uiso   1.00
C689   C     0.58613   0.16767   0.56331   0.00000  Uiso   1.00
C690   C     0.46614   0.13786   0.90203   0.00000  Uiso   1.00
H691   H     0.39932   0.11271   0.90492   0.00000  Uiso   1.00
H692   H     0.43418   0.11499   0.55290   0.00000  Uiso   1.00
H693   H     0.38298   0.09072   0.50190   0.00000  Uiso   1.00
C694   C     0.54001   0.31270   0.71289   0.00000  Uiso   1.00
C695   C     0.53938   0.02263   0.71559   0.00000  Uiso   1.00
H696   H     0.56842   0.04083   0.69140   0.00000  Uiso   1.00
C697   C     0.50032   0.04279   0.74783   0.00000  Uiso   1.00
C698   C     0.46151   0.02100   0.77800   0.00000  Uiso   1.00
H699   H     0.43142   0.03713   0.80302   0.00000  Uiso   1.00
C700   C     0.46212   0.31148   0.77711   0.00000  Uiso   1.00
H701   H     0.43243   0.29442   0.80191   0.00000  Uiso   1.00
C702   C     0.50123   0.29079   0.74537   0.00000  Uiso   1.00
C703   C     0.64719   0.13348   0.73056   0.00000  Uiso   1.00
H704   H     0.63291   0.10692   0.71475   0.00000  Uiso   1.00
C705   C     0.36141   0.13312   0.73051   0.00000  Uiso   1.00
N706   N     0.38093   0.16668   0.75002   0.00000  Uiso   1.00
C707   C     0.35240   0.19983   0.76977   0.00000  Uiso   1.00
H708   H     0.36617   0.22657   0.78578   0.00000  Uiso   1.00
C709   C     0.63813   0.19979   0.76982   0.00000  Uiso   1.00
H710   H     0.61665   0.22650   0.78587   0.00000  Uiso   1.00
N711   N     0.61906   0.16665   0.75001   0.00000  Uiso   1.00
N712   N     0.38822   0.09673   0.71015   0.00000  Uiso   1.00
O713   O     0.42392   0.09970   0.66825   0.00000  Uiso   1.00
O714   O     0.37126   0.05977   0.72578   0.00000  Uiso   1.00
N715   N     0.64776   0.15115   0.98450   0.00000  Uiso   1.00
O716   O     0.65766   0.11371   0.96531   0.00000  Uiso   1.00
O717   O     0.34687   0.17570   0.99168   0.00000  Uiso   1.00
N718   N     0.46260   0.19035   0.58062   0.00000  Uiso   1.00
O719   O     0.42575   0.17397   0.61357   0.00000  Uiso   1.00
O720   O     0.45889   0.22601   0.55820   0.00000  Uiso   1.00
C721   C     0.56417   0.10094   0.85629   0.00000  Uiso   1.00
H722   H     0.60002   0.10171   0.83175   0.00000  Uiso   1.00
O723   O     0.53791   0.07428   0.84768   0.00000  Uiso   1.00
C724   C     0.57974   0.29150   0.67440   0.00000  Uiso   1.00
H725   H     0.57682   0.25921   0.66284   0.00000  Uiso   1.00
O726   O     0.61624   0.31016   0.65444   0.00000  Uiso   1.00
O727   O     0.79512   0.22775   0.75001   0.00000  Uiso   1.00
O728   O     0.87157   0.22774   0.75001   0.00000  Uiso   1.00
C729   C     0.83391   0.24647   0.74811   0.00000  Uiso   1.00
O730   O     0.77613   0.16666   0.82681   0.00000  Uiso   1.00
O731   O     0.85258   0.16665   0.82681   0.00000  Uiso   1.00
C732   C     0.80931   0.15714   0.84881   0.00000  Uiso   1.00
Zn733  Zn    0.78229   0.16667   0.75000   0.00000  Uiso   1.00
Zn734  Zn    0.88438   0.16666   0.75000   0.00000  Uiso   1.00
O735   O     0.79510   0.10559   0.75000   0.00000  Uiso   1.00
O736   O     0.87154   0.10558   0.75000   0.00000  Uiso   1.00
O737   O     0.81409   0.16668   0.67319   0.00000  Uiso   1.00
O738   O     0.89053   0.16667   0.67319   0.00000  Uiso   1.00
C739   C     0.83337   0.08689   0.74941   0.00000  Uiso   1.00
C740   C     0.85829   0.16892   0.64857   0.00000  Uiso   1.00
C741   C     0.93367   0.16027   0.50896   0.00000  Uiso   1.00
H742   H     0.94563   0.16949   0.58450   0.00000  Uiso   1.00
H743   H     0.95092   0.13923   0.90540   0.00000  Uiso   1.00
C744   C     0.87220   0.16964   0.59063   0.00000  Uiso   1.00
C745   C     0.75681   0.11940   0.92756   0.00000  Uiso   1.00
C746   C     0.74718   0.10820   0.98159   0.00000  Uiso   1.00
C747   C     0.77675   0.12183   0.51079   0.00000  Uiso   1.00
C748   C     0.82030   0.13911   0.98388   0.00000  Uiso   1.00
C749   C     0.83432   0.13638   0.92838   0.00000  Uiso   1.00
C750   C     0.85270   0.15286   0.50981   0.00000  Uiso   1.00
C751   C     0.90057   0.15251   0.98168   0.00000  Uiso   1.00
C752   C     0.91459   0.14124   0.92770   0.00000  Uiso   1.00
C753   C     0.88185   0.12948   0.90243   0.00000  Uiso   1.00
C754   C     0.83873   0.16734   0.56245   0.00000  Uiso   1.00
C755   C     0.91947   0.16767   0.56331   0.00000  Uiso   1.00
C756   C     0.79947   0.13786   0.90203   0.00000  Uiso   1.00
H757   H     0.73265   0.11271   0.90492   0.00000  Uiso   1.00
H758   H     0.76751   0.11499   0.55290   0.00000  Uiso   1.00
H759   H     0.71632   0.09072   0.50190   0.00000  Uiso   1.00
C760   C     0.87335   0.31270   0.71289   0.00000  Uiso   1.00
C761   C     0.87271   0.02263   0.71559   0.00000  Uiso   1.00
H762   H     0.90175   0.04083   0.69140   0.00000  Uiso   1.00
C763   C     0.83366   0.04279   0.74783   0.00000  Uiso   1.00
C764   C     0.79485   0.02100   0.77800   0.00000  Uiso   1.00
H765   H     0.76475   0.03713   0.80302   0.00000  Uiso   1.00
C766   C     0.79546   0.31148   0.77711   0.00000  Uiso   1.00
H767   H     0.76577   0.29442   0.80191   0.00000  Uiso   1.00
C768   C     0.83456   0.29079   0.74537   0.00000  Uiso   1.00
C769   C     0.98052   0.13348   0.73056   0.00000  Uiso   1.00
H770   H     0.96624   0.10692   0.71475   0.00000  Uiso   1.00
C771   C     0.69474   0.13312   0.73051   0.00000  Uiso   1.00
N772   N     0.71426   0.16668   0.75002   0.00000  Uiso   1.00
C773   C     0.68573   0.19983   0.76977   0.00000  Uiso   1.00
H774   H     0.69950   0.22657   0.78578   0.00000  Uiso   1.00
C775   C     0.97147   0.19979   0.76982   0.00000  Uiso   1.00
H776   H     0.94998   0.22650   0.78587   0.00000  Uiso   1.00
N777   N     0.95239   0.16665   0.75001   0.00000  Uiso   1.00
N778   N     0.72156   0.09673   0.71015   0.00000  Uiso   1.00
O779   O     0.75725   0.09970   0.66825   0.00000  Uiso   1.00
O780   O     0.70459   0.05977   0.72578   0.00000  Uiso   1.00
N781   N     0.98109   0.15115   0.98450   0.00000  Uiso   1.00
O782   O     0.99099   0.11371   0.96531   0.00000  Uiso   1.00
O783   O     0.68020   0.17570   0.99168   0.00000  Uiso   1.00
N784   N     0.79593   0.19035   0.58062   0.00000  Uiso   1.00
O785   O     0.75908   0.17397   0.61357   0.00000  Uiso   1.00
O786   O     0.79222   0.22601   0.55820   0.00000  Uiso   1.00
C787   C     0.89750   0.10094   0.85629   0.00000  Uiso   1.00
H788   H     0.93336   0.10171   0.83175   0.00000  Uiso   1.00
O789   O     0.87124   0.07428   0.84768   0.00000  Uiso   1.00
C790   C     0.91307   0.29150   0.67440   0.00000  Uiso   1.00
H791   H     0.91015   0.25921   0.66284   0.00000  Uiso   1.00
O792   O     0.94957   0.31016   0.65444   0.00000  Uiso   1.00
O793   O     0.12846   0.56108   0.75001   0.00000  Uiso   1.00
O794   O     0.20490   0.56107   0.75001   0.00000  Uiso   1.00
C795   C     0.16725   0.57980   0.74811   0.00000  Uiso   1.00
O796   O     0.10947   0.50000   0.82681   0.00000  Uiso   1.00
O797   O     0.18591   0.49999   0.82681   0.00000  Uiso   1.00
C798   C     0.14265   0.49047   0.84881   0.00000  Uiso   1.00
Zn799  Zn    0.11562   0.50001   0.75000   0.00000  Uiso   1.00
Zn800  Zn    0.21771   0.49999   0.75000   0.00000  Uiso   1.00
O801   O     0.12843   0.43893   0.75000   0.00000  Uiso   1.00
O802   O     0.20488   0.43892   0.75000   0.00000  Uiso   1.00
O803   O     0.14742   0.50001   0.67319   0.00000  Uiso   1.00
O804   O     0.22387   0.50000   0.67319   0.00000  Uiso   1.00
C805   C     0.16671   0.42023   0.74941   0.00000  Uiso   1.00
C806   C     0.19163   0.50225   0.64857   0.00000  Uiso   1.00
C807   C     0.26700   0.49360   0.50896   0.00000  Uiso   1.00
H808   H     0.27897   0.50282   0.58450   0.00000  Uiso   1.00
H809   H     0.28425   0.47256   0.90540   0.00000  Uiso   1.00
C810   C     0.20553   0.50297   0.59063   0.00000  Uiso   1.00
C811   C     0.09015   0.45273   0.92756   0.00000  Uiso   1.00
C812   C     0.08051   0.44154   0.98159   0.00000  Uiso   1.00
C813   C     0.11008   0.45517   0.51079   0.00000  Uiso   1.00
C814   C     0.15364   0.47245   0.98388   0.00000  Uiso   1.00
C815   C     0.16766   0.46971   0.92838   0.00000  Uiso   1.00
C816   C     0.18603   0.48619   0.50981   0.00000  Uiso   1.00
C817   C     0.23391   0.48584   0.98168   0.00000  Uiso   1.00
C818   C     0.24792   0.47458   0.92770   0.00000  Uiso   1.00
C819   C     0.21518   0.46282   0.90243   0.00000  Uiso   1.00
C820   C     0.17206   0.50068   0.56245   0.00000  Uiso   1.00
C821   C     0.25280   0.50100   0.56331   0.00000  Uiso   1.00
C822   C     0.13280   0.47120   0.90203   0.00000  Uiso   1.00
H823   H     0.06598   0.44605   0.90492   0.00000  Uiso   1.00
H824   H     0.10085   0.44832   0.55290   0.00000  Uiso   1.00
H825   H     0.04965   0.42406   0.50190   0.00000  Uiso   1.00
C826   C     0.20668   0.64603   0.71289   0.00000  Uiso   1.00
C827   C     0.20604   0.35597   0.71559   0.00000  Uiso   1.00
H828   H     0.23509   0.37416   0.69140   0.00000  Uiso   1.00
C829   C     0.16699   0.37612   0.74783   0.00000  Uiso   1.00
C830   C     0.12818   0.35434   0.77800   0.00000  Uiso   1.00
H831   H     0.09809   0.37046   0.80302   0.00000  Uiso   1.00
C832   C     0.12879   0.64481   0.77711   0.00000  Uiso   1.00
H833   H     0.09910   0.62776   0.80191   0.00000  Uiso   1.00
C834   C     0.16789   0.62412   0.74537   0.00000  Uiso   1.00
C835   C     0.31385   0.46681   0.73056   0.00000  Uiso   1.00
H836   H     0.29957   0.44025   0.71475   0.00000  Uiso   1.00
C837   C     0.02807   0.46646   0.73051   0.00000  Uiso   1.00
N838   N     0.04760   0.50001   0.75002   0.00000  Uiso   1.00
C839   C     0.01906   0.53317   0.76977   0.00000  Uiso   1.00
H840   H     0.03284   0.55990   0.78578   0.00000  Uiso   1.00
C841   C     0.30480   0.53312   0.76982   0.00000  Uiso   1.00
H842   H     0.28331   0.55983   0.78587   0.00000  Uiso   1.00
N843   N     0.28573   0.49998   0.75001   0.00000  Uiso   1.00
N844   N     0.05489   0.43007   0.71015   0.00000  Uiso   1.00
O845   O     0.09058   0.43303   0.66825   0.00000  Uiso   1.00
O846   O     0.03792   0.39311   0.72578   0.00000  Uiso   1.00
N847   N     0.31442   0.48448   0.98450   0.00000  Uiso   1.00
O848   O     0.32433   0.44704   0.96531   0.00000  Uiso   1.00
O849   O     0.01354   0.50903   0.99168   0.00000  Uiso   1.00
N850   N     0.12926   0.52368   0.58062   0.00000  Uiso   1.00
O851   O     0.09241   0.50730   0.61357   0.00000  Uiso   1.00
O852   O     0.12555   0.55935   0.55820   0.00000  Uiso   1.00
C853   C     0.23084   0.43427   0.85629   0.00000  Uiso   1.00
H854   H     0.26669   0.43505   0.83175   0.00000  Uiso   1.00
O855   O     0.20458   0.40761   0.84768   0.00000  Uiso   1.00
C856   C     0.24640   0.62483   0.67440   0.00000  Uiso   1.00
H857   H     0.24348   0.59254   0.66284   0.00000  Uiso   1.00
O858   O     0.28291   0.64350   0.65444   0.00000  Uiso   1.00
O859   O     0.46179   0.56108   0.75001   0.00000  Uiso   1.00
O860   O     0.53823   0.56107   0.75001   0.00000  Uiso   1.00
C861   C     0.50058   0.57980   0.74811   0.00000  Uiso   1.00
O862   O     0.44280   0.50000   0.82681   0.00000  Uiso   1.00
O863   O     0.51924   0.49999   0.82681   0.00000  Uiso   1.00
C864   C     0.47598   0.49047   0.84881   0.00000  Uiso   1.00
Zn865  Zn    0.44896   0.50001   0.75000   0.00000  Uiso   1.00
Zn866  Zn    0.55104   0.49999   0.75000   0.00000  Uiso   1.00
O867   O     0.46177   0.43893   0.75000   0.00000  Uiso   1.00
O868   O     0.53821   0.43892   0.75000   0.00000  Uiso   1.00
O869   O     0.48076   0.50001   0.67319   0.00000  Uiso   1.00
O870   O     0.55720   0.50000   0.67319   0.00000  Uiso   1.00
C871   C     0.50004   0.42023   0.74941   0.00000  Uiso   1.00
C872   C     0.52496   0.50225   0.64857   0.00000  Uiso   1.00
C873   C     0.60033   0.49360   0.50896   0.00000  Uiso   1.00
H874   H     0.61230   0.50282   0.58450   0.00000  Uiso   1.00
H875   H     0.61759   0.47256   0.90540   0.00000  Uiso   1.00
C876   C     0.53886   0.50297   0.59063   0.00000  Uiso   1.00
C877   C     0.42348   0.45273   0.92756   0.00000  Uiso   1.00
C878   C     0.41384   0.44154   0.98159   0.00000  Uiso   1.00
C879   C     0.44341   0.45517   0.51079   0.00000  Uiso   1.00
C880   C     0.48697   0.47245   0.98388   0.00000  Uiso   1.00
C881   C     0.50099   0.46971   0.92838   0.00000  Uiso   1.00
C882   C     0.51937   0.48619   0.50981   0.00000  Uiso   1.00
C883   C     0.56724   0.48584   0.98168   0.00000  Uiso   1.00
C884   C     0.58125   0.47458   0.92770   0.00000  Uiso   1.00
C885   C     0.54851   0.46282   0.90243   0.00000  Uiso   1.00
C886   C     0.50540   0.50068   0.56245   0.00000  Uiso   1.00
C887   C     0.58613   0.50100   0.56331   0.00000  Uiso   1.00
C888   C     0.46614   0.47120   0.90203   0.00000  Uiso   1.00
H889   H     0.39932   0.44605   0.90492   0.00000  Uiso   1.00
H890   H     0.43418   0.44832   0.55290   0.00000  Uiso   1.00
H891   H     0.38298   0.42406   0.50190   0.00000  Uiso   1.00
C892   C     0.54001   0.64603   0.71289   0.00000  Uiso   1.00
C893   C     0.53938   0.35597   0.71559   0.00000  Uiso   1.00
H894   H     0.56842   0.37416   0.69140   0.00000  Uiso   1.00
C895   C     0.50032   0.37612   0.74783   0.00000  Uiso   1.00
C896   C     0.46151   0.35434   0.77800   0.00000  Uiso   1.00
H897   H     0.43142   0.37046   0.80302   0.00000  Uiso   1.00
C898   C     0.46212   0.64481   0.77711   0.00000  Uiso   1.00
H899   H     0.43243   0.62776   0.80191   0.00000  Uiso   1.00
C900   C     0.50123   0.62412   0.74537   0.00000  Uiso   1.00
C901   C     0.64719   0.46681   0.73056   0.00000  Uiso   1.00
H902   H     0.63291   0.44025   0.71475   0.00000  Uiso   1.00
C903   C     0.36141   0.46646   0.73051   0.00000  Uiso   1.00
N904   N     0.38093   0.50001   0.75002   0.00000  Uiso   1.00
C905   C     0.35240   0.53317   0.76977   0.00000  Uiso   1.00
H906   H     0.36617   0.55990   0.78578   0.00000  Uiso   1.00
C907   C     0.63813   0.53312   0.76982   0.00000  Uiso   1.00
H908   H     0.61665   0.55983   0.78587   0.00000  Uiso   1.00
N909   N     0.61906   0.49998   0.75001   0.00000  Uiso   1.00
N910   N     0.38822   0.43007   0.71015   0.00000  Uiso   1.00
O911   O     0.42392   0.43303   0.66825   0.00000  Uiso   1.00
O912   O     0.37126   0.39311   0.72578   0.00000  Uiso   1.00
N913   N     0.64776   0.48448   0.98450   0.00000  Uiso   1.00
O914   O     0.65766   0.44704   0.96531   0.00000  Uiso   1.00
O915   O     0.34687   0.50903   0.99168   0.00000  Uiso   1.00
N916   N     0.46260   0.52368   0.58062   0.00000  Uiso   1.00
O917   O     0.42575   0.50730   0.61357   0.00000  Uiso   1.00
O918   O     0.45889   0.55935   0.55820   0.00000  Uiso   1.00
C919   C     0.56417   0.43427   0.85629   0.00000  Uiso   1.00
H920   H     0.60002   0.43505   0.83175   0.00000  Uiso   1.00
O921   O     0.53791   0.40761   0.84768   0.00000  Uiso   1.00
C922   C     0.57974   0.62483   0.67440   0.00000  Uiso   1.00
H923   H     0.57682   0.59254   0.66284   0.00000  Uiso   1.00
O924   O     0.61624   0.64350   0.65444   0.00000  Uiso   1.00
O925   O     0.79512   0.56108   0.75001   0.00000  Uiso   1.00
O926   O     0.87157   0.56107   0.75001   0.00000  Uiso   1.00
C927   C     0.83391   0.57980   0.74811   0.00000  Uiso   1.00
O928   O     0.77613   0.50000   0.82681   0.00000  Uiso   1.00
O929   O     0.85258   0.49999   0.82681   0.00000  Uiso   1.00
C930   C     0.80931   0.49047   0.84881   0.00000  Uiso   1.00
Zn931  Zn    0.78229   0.50001   0.75000   0.00000  Uiso   1.00
Zn932  Zn    0.88438   0.49999   0.75000   0.00000  Uiso   1.00
O933   O     0.79510   0.43893   0.75000   0.00000  Uiso   1.00
O934   O     0.87154   0.43892   0.75000   0.00000  Uiso   1.00
O935   O     0.81409   0.50001   0.67319   0.00000  Uiso   1.00
O936   O     0.89053   0.50000   0.67319   0.00000  Uiso   1.00
C937   C     0.83337   0.42023   0.74941   0.00000  Uiso   1.00
C938   C     0.85829   0.50225   0.64857   0.00000  Uiso   1.00
C939   C     0.93367   0.49360   0.50896   0.00000  Uiso   1.00
H940   H     0.94563   0.50282   0.58450   0.00000  Uiso   1.00
H941   H     0.95092   0.47256   0.90540   0.00000  Uiso   1.00
C942   C     0.87220   0.50297   0.59063   0.00000  Uiso   1.00
C943   C     0.75681   0.45273   0.92756   0.00000  Uiso   1.00
C944   C     0.74718   0.44154   0.98159   0.00000  Uiso   1.00
C945   C     0.77675   0.45517   0.51079   0.00000  Uiso   1.00
C946   C     0.82030   0.47245   0.98388   0.00000  Uiso   1.00
C947   C     0.83432   0.46971   0.92838   0.00000  Uiso   1.00
C948   C     0.85270   0.48619   0.50981   0.00000  Uiso   1.00
C949   C     0.90057   0.48584   0.98168   0.00000  Uiso   1.00
C950   C     0.91459   0.47458   0.92770   0.00000  Uiso   1.00
C951   C     0.88185   0.46282   0.90243   0.00000  Uiso   1.00
C952   C     0.83873   0.50068   0.56245   0.00000  Uiso   1.00
C953   C     0.91947   0.50100   0.56331   0.00000  Uiso   1.00
C954   C     0.79947   0.47120   0.90203   0.00000  Uiso   1.00
H955   H     0.73265   0.44605   0.90492   0.00000  Uiso   1.00
H956   H     0.76751   0.44832   0.55290   0.00000  Uiso   1.00
H957   H     0.71632   0.42406   0.50190   0.00000  Uiso   1.00
C958   C     0.87335   0.64603   0.71289   0.00000  Uiso   1.00
C959   C     0.87271   0.35597   0.71559   0.00000  Uiso   1.00
H960   H     0.90175   0.37416   0.69140   0.00000  Uiso   1.00
C961   C     0.83366   0.37612   0.74783   0.00000  Uiso   1.00
C962   C     0.79485   0.35434   0.77800   0.00000  Uiso   1.00
H963   H     0.76475   0.37046   0.80302   0.00000  Uiso   1.00
C964   C     0.79546   0.64481   0.77711   0.00000  Uiso   1.00
H965   H     0.76577   0.62776   0.80191   0.00000  Uiso   1.00
C966   C     0.83456   0.62412   0.74537   0.00000  Uiso   1.00
C967   C     0.98052   0.46681   0.73056   0.00000  Uiso   1.00
H968   H     0.96624   0.44025   0.71475   0.00000  Uiso   1.00
C969   C     0.69474   0.46646   0.73051   0.00000  Uiso   1.00
N970   N     0.71426   0.50001   0.75002   0.00000  Uiso   1.00
C971   C     0.68573   0.53317   0.76977   0.00000  Uiso   1.00
H972   H     0.69950   0.55990   0.78578   0.00000  Uiso   1.00
C973   C     0.97147   0.53312   0.76982   0.00000  Uiso   1.00
H974   H     0.94998   0.55983   0.78587   0.00000  Uiso   1.00
N975   N     0.95239   0.49998   0.75001   0.00000  Uiso   1.00
N976   N     0.72156   0.43007   0.71015   0.00000  Uiso   1.00
O977   O     0.75725   0.43303   0.66825   0.00000  Uiso   1.00
O978   O     0.70459   0.39311   0.72578   0.00000  Uiso   1.00
N979   N     0.98109   0.48448   0.98450   0.00000  Uiso   1.00
O980   O     0.99099   0.44704   0.96531   0.00000  Uiso   1.00
O981   O     0.68020   0.50903   0.99168   0.00000  Uiso   1.00
N982   N     0.79593   0.52368   0.58062   0.00000  Uiso   1.00
O983   O     0.75908   0.50730   0.61357   0.00000  Uiso   1.00
O984   O     0.79222   0.55935   0.55820   0.00000  Uiso   1.00
C985   C     0.89750   0.43427   0.85629   0.00000  Uiso   1.00
H986   H     0.93336   0.43505   0.83175   0.00000  Uiso   1.00
O987   O     0.87124   0.40761   0.84768   0.00000  Uiso   1.00
C988   C     0.91307   0.62483   0.67440   0.00000  Uiso   1.00
H989   H     0.91015   0.59254   0.66284   0.00000  Uiso   1.00
O990   O     0.94957   0.64350   0.65444   0.00000  Uiso   1.00
O991   O     0.12846   0.89442   0.75001   0.00000  Uiso   1.00
O992   O     0.20490   0.89441   0.75001   0.00000  Uiso   1.00
C993   C     0.16725   0.91313   0.74811   0.00000  Uiso   1.00
O994   O     0.10947   0.83333   0.82681   0.00000  Uiso   1.00
O995   O     0.18591   0.83332   0.82681   0.00000  Uiso   1.00
C996   C     0.14265   0.82381   0.84881   0.00000  Uiso   1.00
Zn997  Zn    0.11562   0.83334   0.75000   0.00000  Uiso   1.00
Zn998  Zn    0.21771   0.83333   0.75000   0.00000  Uiso   1.00
O999   O     0.12843   0.77226   0.75000   0.00000  Uiso   1.00
O1000  O     0.20488   0.77225   0.75000   0.00000  Uiso   1.00
O1001  O     0.14742   0.83335   0.67319   0.00000  Uiso   1.00
O1002  O     0.22387   0.83334   0.67319   0.00000  Uiso   1.00
C1003  C     0.16671   0.75356   0.74941   0.00000  Uiso   1.00
C1004  C     0.19163   0.83559   0.64857   0.00000  Uiso   1.00
C1005  C     0.26700   0.82693   0.50896   0.00000  Uiso   1.00
H1006  H     0.27897   0.83615   0.58450   0.00000  Uiso   1.00
H1007  H     0.28425   0.80589   0.90540   0.00000  Uiso   1.00
C1008  C     0.20553   0.83631   0.59063   0.00000  Uiso   1.00
C1009  C     0.09015   0.78606   0.92756   0.00000  Uiso   1.00
C1010  C     0.08051   0.77487   0.98159   0.00000  Uiso   1.00
C1011  C     0.11008   0.78850   0.51079   0.00000  Uiso   1.00
C1012  C     0.15364   0.80578   0.98388   0.00000  Uiso   1.00
C1013  C     0.16766   0.80304   0.92838   0.00000  Uiso   1.00
C1014  C     0.18603   0.81953   0.50981   0.00000  Uiso   1.00
C1015  C     0.23391   0.81917   0.98168   0.00000  Uiso   1.00
C1016  C     0.24792   0.80791   0.92770   0.00000  Uiso   1.00
C1017  C     0.21518   0.79615   0.90243   0.00000  Uiso   1.00
C1018  C     0.17206   0.83401   0.56245   0.00000  Uiso   1.00
C1019  C     0.25280   0.83433   0.56331   0.00000  Uiso   1.00
C1020  C     0.13280   0.80453   0.90203   0.00000  Uiso   1.00
H1021  H     0.06598   0.77938   0.90492   0.00000  Uiso   1.00
H1022  H     0.10085   0.78166   0.55290   0.00000  Uiso   1.00
H1023  H     0.04965   0.75739   0.50190   0.00000  Uiso   1.00
C1024  C     0.20668   0.97937   0.71289   0.00000  Uiso   1.00
C1025  C     0.20604   0.68930   0.71559   0.00000  Uiso   1.00
H1026  H     0.23509   0.70749   0.69140   0.00000  Uiso   1.00
C1027  C     0.16699   0.70946   0.74783   0.00000  Uiso   1.00
C1028  C     0.12818   0.68767   0.77800   0.00000  Uiso   1.00
H1029  H     0.09809   0.70379   0.80302   0.00000  Uiso   1.00
C1030  C     0.12879   0.97814   0.77711   0.00000  Uiso   1.00
H1031  H     0.09910   0.96109   0.80191   0.00000  Uiso   1.00
C1032  C     0.16789   0.95745   0.74537   0.00000  Uiso   1.00
C1033  C     0.31385   0.80015   0.73056   0.00000  Uiso   1.00
H1034  H     0.29957   0.77359   0.71475   0.00000  Uiso   1.00
C1035  C     0.02807   0.79979   0.73051   0.00000  Uiso   1.00
N1036  N     0.04760   0.83334   0.75002   0.00000  Uiso   1.00
C1037  C     0.01906   0.86650   0.76977   0.00000  Uiso   1.00
H1038  H     0.03284   0.89324   0.78578   0.00000  Uiso   1.00
C1039  C     0.30480   0.86645   0.76982   0.00000  Uiso   1.00
H1040  H     0.28331   0.89316   0.78587   0.00000  Uiso   1.00
N1041  N     0.28573   0.83331   0.75001   0.00000  Uiso   1.00
N1042  N     0.05489   0.76340   0.71015   0.00000  Uiso   1.00
O1043  O     0.09058   0.76637   0.66825   0.00000  Uiso   1.00
O1044  O     0.03792   0.72644   0.72578   0.00000  Uiso   1.00
N1045  N     0.31442   0.81781   0.98450   0.00000  Uiso   1.00
O1046  O     0.32433   0.78038   0.96531   0.00000  Uiso   1.00
O1047  O     0.01354   0.84236   0.99168   0.00000  Uiso   1.00
N1048  N     0.12926   0.85702   0.58062   0.00000  Uiso   1.00
O1049  O     0.09241   0.84064   0.61357   0.00000  Uiso   1.00
O1050  O     0.12555   0.89268   0.55820   0.00000  Uiso   1.00
C1051  C     0.23084   0.76760   0.85629   0.00000  Uiso   1.00
H1052  H     0.26669   0.76838   0.83175   0.00000  Uiso   1.00
O1053  O     0.20458   0.74094   0.84768   0.00000  Uiso   1.00
C1054  C     0.24640   0.95816   0.67440   0.00000  Uiso   1.00
H1055  H     0.24348   0.92587   0.66284   0.00000  Uiso   1.00
O1056  O     0.28291   0.97683   0.65444   0.00000  Uiso   1.00
O1057  O     0.46179   0.89442   0.75001   0.00000  Uiso   1.00
O1058  O     0.53823   0.89441   0.75001   0.00000  Uiso   1.00
C1059  C     0.50058   0.91313   0.74811   0.00000  Uiso   1.00
O1060  O     0.44280   0.83333   0.82681   0.00000  Uiso   1.00
O1061  O     0.51924   0.83332   0.82681   0.00000  Uiso   1.00
C1062  C     0.47598   0.82381   0.84881   0.00000  Uiso   1.00
Zn1063 Zn    0.44896   0.83334   0.75000   0.00000  Uiso   1.00
Zn1064 Zn    0.55104   0.83333   0.75000   0.00000  Uiso   1.00
O1065  O     0.46177   0.77226   0.75000   0.00000  Uiso   1.00
O1066  O     0.53821   0.77225   0.75000   0.00000  Uiso   1.00
O1067  O     0.48076   0.83335   0.67319   0.00000  Uiso   1.00
O1068  O     0.55720   0.83334   0.67319   0.00000  Uiso   1.00
C1069  C     0.50004   0.75356   0.74941   0.00000  Uiso   1.00
C1070  C     0.52496   0.83559   0.64857   0.00000  Uiso   1.00
C1071  C     0.60033   0.82693   0.50896   0.00000  Uiso   1.00
H1072  H     0.61230   0.83615   0.58450   0.00000  Uiso   1.00
H1073  H     0.61759   0.80589   0.90540   0.00000  Uiso   1.00
C1074  C     0.53886   0.83631   0.59063   0.00000  Uiso   1.00
C1075  C     0.42348   0.78606   0.92756   0.00000  Uiso   1.00
C1076  C     0.41384   0.77487   0.98159   0.00000  Uiso   1.00
C1077  C     0.44341   0.78850   0.51079   0.00000  Uiso   1.00
C1078  C     0.48697   0.80578   0.98388   0.00000  Uiso   1.00
C1079  C     0.50099   0.80304   0.92838   0.00000  Uiso   1.00
C1080  C     0.51937   0.81953   0.50981   0.00000  Uiso   1.00
C1081  C     0.56724   0.81917   0.98168   0.00000  Uiso   1.00
C1082  C     0.58125   0.80791   0.92770   0.00000  Uiso   1.00
C1083  C     0.54851   0.79615   0.90243   0.00000  Uiso   1.00
C1084  C     0.50540   0.83401   0.56245   0.00000  Uiso   1.00
C1085  C     0.58613   0.83433   0.56331   0.00000  Uiso   1.00
C1086  C     0.46614   0.80453   0.90203   0.00000  Uiso   1.00
H1087  H     0.39932   0.77938   0.90492   0.00000  Uiso   1.00
H1088  H     0.43418   0.78166   0.55290   0.00000  Uiso   1.00
H1089  H     0.38298   0.75739   0.50190   0.00000  Uiso   1.00
C1090  C     0.54001   0.97937   0.71289   0.00000  Uiso   1.00
C1091  C     0.53938   0.68930   0.71559   0.00000  Uiso   1.00
H1092  H     0.56842   0.70749   0.69140   0.00000  Uiso   1.00
C1093  C     0.50032   0.70946   0.74783   0.00000  Uiso   1.00
C1094  C     0.46151   0.68767   0.77800   0.00000  Uiso   1.00
H1095  H     0.43142   0.70379   0.80302   0.00000  Uiso   1.00
C1096  C     0.46212   0.97814   0.77711   0.00000  Uiso   1.00
H1097  H     0.43243   0.96109   0.80191   0.00000  Uiso   1.00
C1098  C     0.50123   0.95745   0.74537   0.00000  Uiso   1.00
C1099  C     0.64719   0.80015   0.73056   0.00000  Uiso   1.00
H1100  H     0.63291   0.77359   0.71475   0.00000  Uiso   1.00
C1101  C     0.36141   0.79979   0.73051   0.00000  Uiso   1.00
N1102  N     0.38093   0.83334   0.75002   0.00000  Uiso   1.00
C1103  C     0.35240   0.86650   0.76977   0.00000  Uiso   1.00
H1104  H     0.36617   0.89324   0.78578   0.00000  Uiso   1.00
C1105  C     0.63813   0.86645   0.76982   0.00000  Uiso   1.00
H1106  H     0.61665   0.89316   0.78587   0.00000  Uiso   1.00
N1107  N     0.61906   0.83331   0.75001   0.00000  Uiso   1.00
N1108  N     0.38822   0.76340   0.71015   0.00000  Uiso   1.00
O1109  O     0.42392   0.76637   0.66825   0.00000  Uiso   1.00
O1110  O     0.37126   0.72644   0.72578   0.00000  Uiso   1.00
N1111  N     0.64776   0.81781   0.98450   0.00000  Uiso   1.00
O1112  O     0.65766   0.78038   0.96531   0.00000  Uiso   1.00
O1113  O     0.34687   0.84236   0.99168   0.00000  Uiso   1.00
N1114  N     0.46260   0.85702   0.58062   0.00000  Uiso   1.00
O1115  O     0.42575   0.84064   0.61357   0.00000  Uiso   1.00
O1116  O     0.45889   0.89268   0.55820   0.00000  Uiso   1.00
C1117  C     0.56417   0.76760   0.85629   0.00000  Uiso   1.00
H1118  H     0.60002   0.76838   0.83175   0.00000  Uiso   1.00
O1119  O     0.53791   0.74094   0.84768   0.00000  Uiso   1.00
C1120  C     0.57974   0.95816   0.67440   0.00000  Uiso   1.00
H1121  H     0.57682   0.92587   0.66284   0.00000  Uiso   1.00
O1122  O     0.61624   0.97683   0.65444   0.00000  Uiso   1.00
O1123  O     0.79512   0.89442   0.75001   0.00000  Uiso   1.00
O1124  O     0.87157   0.89441   0.75001   0.00000  Uiso   1.00
C1125  C     0.83391   0.91313   0.74811   0.00000  Uiso   1.00
O1126  O     0.77613   0.83333   0.82681   0.00000  Uiso   1.00
O1127  O     0.85258   0.83332   0.82681   0.00000  Uiso   1.00
C1128  C     0.80931   0.82381   0.84881   0.00000  Uiso   1.00
Zn1129 Zn    0.78229   0.83334   0.75000   0.00000  Uiso   1.00
Zn1130 Zn    0.88438   0.83333   0.75000   0.00000  Uiso   1.00
O1131  O     0.79510   0.77226   0.75000   0.00000  Uiso   1.00
O1132  O     0.87154   0.77225   0.75000   0.00000  Uiso   1.00
O1133  O     0.81409   0.83335   0.67319   0.00000  Uiso   1.00
O1134  O     0.89053   0.83334   0.67319   0.00000  Uiso   1.00
C1135  C     0.83337   0.75356   0.74941   0.00000  Uiso   1.00
C1136  C     0.85829   0.83559   0.64857   0.00000  Uiso   1.00
C1137  C     0.93367   0.82693   0.50896   0.00000  Uiso   1.00
H1138  H     0.94563   0.83615   0.58450   0.00000  Uiso   1.00
H1139  H     0.95092   0.80589   0.90540   0.00000  Uiso   1.00
C1140  C     0.87220   0.83631   0.59063   0.00000  Uiso   1.00
C1141  C     0.75681   0.78606   0.92756   0.00000  Uiso   1.00
C1142  C     0.74718   0.77487   0.98159   0.00000  Uiso   1.00
C1143  C     0.77675   0.78850   0.51079   0.00000  Uiso   1.00
C1144  C     0.82030   0.80578   0.98388   0.00000  Uiso   1.00
C1145  C     0.83432   0.80304   0.92838   0.00000  Uiso   1.00
C1146  C     0.85270   0.81953   0.50981   0.00000  Uiso   1.00
C1147  C     0.90057   0.81917   0.98168   0.00000  Uiso   1.00
C1148  C     0.91459   0.80791   0.92770   0.00000  Uiso   1.00
C1149  C     0.88185   0.79615   0.90243   0.00000  Uiso   1.00
C1150  C     0.83873   0.83401   0.56245   0.00000  Uiso   1.00
C1151  C     0.91947   0.83433   0.56331   0.00000  Uiso   1.00
C1152  C     0.79947   0.80453   0.90203   0.00000  Uiso   1.00
H1153  H     0.73265   0.77938   0.90492   0.00000  Uiso   1.00
H1154  H     0.76751   0.78166   0.55290   0.00000  Uiso   1.00
H1155  H     0.71632   0.75739   0.50190   0.00000  Uiso   1.00
C1156  C     0.87335   0.97937   0.71289   0.00000  Uiso   1.00
C1157  C     0.87271   0.68930   0.71559   0.00000  Uiso   1.00
H1158  H     0.90175   0.70749   0.69140   0.00000  Uiso   1.00
C1159  C     0.83366   0.70946   0.74783   0.00000  Uiso   1.00
C1160  C     0.79485   0.68767   0.77800   0.00000  Uiso   1.00
H1161  H     0.76475   0.70379   0.80302   0.00000  Uiso   1.00
C1162  C     0.79546   0.97814   0.77711   0.00000  Uiso   1.00
H1163  H     0.76577   0.96109   0.80191   0.00000  Uiso   1.00
C1164  C     0.83456   0.95745   0.74537   0.00000  Uiso   1.00
C1165  C     0.98052   0.80015   0.73056   0.00000  Uiso   1.00
H1166  H     0.96624   0.77359   0.71475   0.00000  Uiso   1.00
C1167  C     0.69474   0.79979   0.73051   0.00000  Uiso   1.00
N1168  N     0.71426   0.83334   0.75002   0.00000  Uiso   1.00
C1169  C     0.68573   0.86650   0.76977   0.00000  Uiso   1.00
H1170  H     0.69950   0.89324   0.78578   0.00000  Uiso   1.00
C1171  C     0.97147   0.86645   0.76982   0.00000  Uiso   1.00
H1172  H     0.94998   0.89316   0.78587   0.00000  Uiso   1.00
N1173  N     0.95239   0.83331   0.75001   0.00000  Uiso   1.00
N1174  N     0.72156   0.76340   0.71015   0.00000  Uiso   1.00
O1175  O     0.75725   0.76637   0.66825   0.00000  Uiso   1.00
O1176  O     0.70459   0.72644   0.72578   0.00000  Uiso   1.00
N1177  N     0.98109   0.81781   0.98450   0.00000  Uiso   1.00
O1178  O     0.99099   0.78038   0.96531   0.00000  Uiso   1.00
O1179  O     0.68020   0.84236   0.99168   0.00000  Uiso   1.00
N1180  N     0.79593   0.85702   0.58062   0.00000  Uiso   1.00
O1181  O     0.75908   0.84064   0.61357   0.00000  Uiso   1.00
O1182  O     0.79222   0.89268   0.55820   0.00000  Uiso   1.00
C1183  C     0.89750   0.76760   0.85629   0.00000  Uiso   1.00
H1184  H     0.93336   0.76838   0.83175   0.00000  Uiso   1.00
O1185  O     0.87124   0.74094   0.84768   0.00000  Uiso   1.00
C1186  C     0.91307   0.95816   0.67440   0.00000  Uiso   1.00
H1187  H     0.91015   0.92587   0.66284   0.00000  Uiso   1.00
O1188  O     0.94957   0.97683   0.65444   0.00000  Uiso   1.00
loop_
_geom_bond_atom_site_label_1
_geom_bond_atom_site_label_2
_geom_bond_distance
_geom_bond_site_symmetry_2
_ccdc_geom_bond_type
O1     Zn7     1.985   .     S
O1     C3      1.293   .     A
O2     C3      1.294   .     A
O2     Zn8     1.989   .     S
C3     C42     1.416   .     S
O4     Zn7     1.967   .     S
O4     C6      1.321   .     A
O5     Zn8     1.965   .     S
O5     C6      1.295   .     A
C6     C30     1.474   .     S
Zn7    O11     1.965   .     S
Zn7    N46     2.040   .     S
Zn7    O9      1.989   .     S
Zn8    O12     1.967   .     S
Zn8    N51     2.040   .     S
Zn8    O10     1.985   .     S
O9     C13     1.292   .     A
O10    C13     1.292   .     A
O11    C14     1.300   .     A
O12    C14     1.308   .     A
C13    C37     1.408   .     S
C14    C18     1.455   .     S
C15    C29     1.385   .     A
C15    C619    1.399   1_554 S
C15    N649    1.415   1_554 S
H16    C29     1.084   .     S
H17    C26     1.082   .     S
C18    C29     1.396   .     A
C18    C28     1.407   .     A
C19    H31     1.080   .     S
C19    C30     1.391   .     A
C19    C20     1.407   .     A
C20    C615    1.394   .     S
C20    H627    1.079   .     S
C21    H32     1.080   .     S
C21    C614    1.394   1_554 S
C21    C616    1.405   1_554 S
C22    C23     1.396   .     A
C22    C615    1.405   .     S
C22    C618    1.403   .     S
C23    C27     1.411   .     A
C23    C30     1.408   .     A
C24    C28     1.401   .     A
C24    C616    1.403   1_554 S
C24    C619    1.415   1_554 S
C25    C26     1.403   .     A
C25    C609    1.399   .     S
C25    C618    1.415   .     S
C26    C27     1.382   .     A
C27    C61     1.480   .     S
C28    N58     1.440   .     S
H33    C614    1.079   1_554 S
C34    C42     1.412   .     A
C34    C64     1.489   .     S
C34    C233    1.383   .     S
C35    C37     1.394   .     A
C35    H36     1.085   .     S
C35    C430    1.383   1_545 S
C37    C38     1.389   .     A
C38    H39     1.084   .     S
C38    C436    1.368   1_545 S
C40    C42     1.398   .     A
C40    H41     1.085   .     S
C40    C236    1.368   .     S
C43    N51     1.362   .     A
C43    H44     1.082   .     S
C43    C111    1.426   .     S
C45    N52     1.430   .     S
C45    N46     1.384   .     A
C45    C175    1.426   1_455 S
N46    C47     1.370   .     A
C47    H48     1.082   .     S
C47    C181    1.427   1_455 S
C49    N51     1.371   .     A
C49    H50     1.082   .     S
C49    C113    1.427   .     S
N52    O53     1.299   .     A
N52    O54     1.301   .     A
N55    O56     1.299   .     A
N55    C609    1.415   .     S
N55    O123    1.301   .     S
O57    N187    1.301   1_455 S
N58    O59     1.300   .     A
N58    O60     1.301   .     A
C61    H62     1.084   .     S
C61    O63     1.220   .     D
C64    H65     1.084   .     S
C64    O66     1.222   .     D
O67    Zn73    1.985   .     S
O67    C69     1.293   .     A
O68    C69     1.294   .     A
O68    Zn74    1.989   .     S
C69    C108    1.416   .     S
O70    Zn73    1.967   .     S
O70    C72     1.321   .     A
O71    Zn74    1.965   .     S
O71    C72     1.295   .     A
C72    C96     1.474   .     S
Zn73   O77     1.965   .     S
Zn73   N112    2.040   .     S
Zn73   O75     1.989   .     S
Zn74   O78     1.967   .     S
Zn74   N117    2.040   .     S
Zn74   O76     1.985   .     S
O75    C79     1.292   .     A
O76    C79     1.292   .     A
O77    C80     1.300   .     A
O78    C80     1.308   .     A
C79    C103    1.408   .     S
C80    C84     1.455   .     S
C81    C95     1.385   .     A
C81    C685    1.399   1_554 S
C81    N715    1.415   1_554 S
H82    C95     1.084   .     S
H83    C92     1.082   .     S
C84    C95     1.396   .     A
C84    C94     1.407   .     A
C85    H97     1.080   .     S
C85    C96     1.391   .     A
C85    C86     1.407   .     A
C86    C681    1.394   .     S
C86    H693    1.079   .     S
C87    H98     1.080   .     S
C87    C680    1.394   1_554 S
C87    C682    1.405   1_554 S
C88    C89     1.396   .     A
C88    C681    1.405   .     S
C88    C684    1.403   .     S
C89    C93     1.411   .     A
C89    C96     1.408   .     A
C90    C94     1.401   .     A
C90    C682    1.403   1_554 S
C90    C685    1.415   1_554 S
C91    C92     1.403   .     A
C91    C675    1.399   .     S
C91    C684    1.415   .     S
C92    C93     1.382   .     A
C93    C127    1.480   .     S
C94    N124    1.440   .     S
H99    C680    1.079   1_554 S
C100   C108    1.412   .     A
C100   C130    1.489   .     S
C100   C299    1.383   .     S
C101   C103    1.394   .     A
C101   H102    1.085   .     S
C101   C496    1.383   1_545 S
C103   C104    1.389   .     A
C104   H105    1.084   .     S
C104   C502    1.368   1_545 S
C106   C108    1.398   .     A
C106   H107    1.085   .     S
C106   C302    1.368   .     S
C109   N117    1.362   .     A
C109   H110    1.082   .     S
C109   C177    1.426   .     S
C111   N118    1.430   .     S
C111   N112    1.384   .     A
N112   C113    1.370   .     A
C113   H114    1.082   .     S
C115   N117    1.371   .     A
C115   H116    1.082   .     S
C115   C179    1.427   .     S
N118   O119    1.299   .     A
N118   O120    1.301   .     A
N121   O122    1.299   .     A
N121   C675    1.415   .     S
N121   O189    1.301   .     S
N124   O125    1.300   .     A
N124   O126    1.301   .     A
C127   H128    1.084   .     S
C127   O129    1.220   .     D
C130   H131    1.084   .     S
C130   O132    1.222   .     D
O133   Zn139   1.985   .     S
O133   C135    1.293   .     A
O134   C135    1.294   .     A
O134   Zn140   1.989   .     S
C135   C174    1.416   .     S
O136   Zn139   1.967   .     S
O136   C138    1.321   .     A
O137   Zn140   1.965   .     S
O137   C138    1.295   .     A
C138   C162    1.474   .     S
Zn139  O143    1.965   .     S
Zn139  N178    2.040   .     S
Zn139  O141    1.989   .     S
Zn140  O144    1.967   .     S
Zn140  N183    2.040   .     S
Zn140  O142    1.985   .     S
O141   C145    1.292   .     A
O142   C145    1.292   .     A
O143   C146    1.300   .     A
O144   C146    1.308   .     A
C145   C169    1.408   .     S
C146   C150    1.455   .     S
C147   C161    1.385   .     A
C147   C751    1.399   1_554 S
C147   N781    1.415   1_554 S
H148   C161    1.084   .     S
H149   C158    1.082   .     S
C150   C161    1.396   .     A
C150   C160    1.407   .     A
C151   H163    1.080   .     S
C151   C162    1.391   .     A
C151   C152    1.407   .     A
C152   C747    1.394   .     S
C152   H759    1.079   .     S
C153   H164    1.080   .     S
C153   C746    1.394   1_554 S
C153   C748    1.405   1_554 S
C154   C155    1.396   .     A
C154   C747    1.405   .     S
C154   C750    1.403   .     S
C155   C159    1.411   .     A
C155   C162    1.408   .     A
C156   C160    1.401   .     A
C156   C748    1.403   1_554 S
C156   C751    1.415   1_554 S
C157   C158    1.403   .     A
C157   C741    1.399   .     S
C157   C750    1.415   .     S
C158   C159    1.382   .     A
C159   C193    1.480   .     S
C160   N190    1.440   .     S
H165   C746    1.079   1_554 S
C166   C174    1.412   .     A
C166   C196    1.489   .     S
C166   C365    1.383   .     S
C167   C169    1.394   .     A
C167   H168    1.085   .     S
C167   C562    1.383   1_545 S
C169   C170    1.389   .     A
C170   H171    1.084   .     S
C170   C568    1.368   1_545 S
C172   C174    1.398   .     A
C172   H173    1.085   .     S
C172   C368    1.368   .     S
C175   N183    1.362   .     A
C175   H176    1.082   .     S
C175   C45     1.426   1_655 S
C177   N184    1.430   .     S
C177   N178    1.384   .     A
N178   C179    1.370   .     A
C179   H180    1.082   .     S
C181   N183    1.371   .     A
C181   H182    1.082   .     S
C181   C47     1.427   1_655 S
N184   O185    1.299   .     A
N184   O186    1.301   .     A
N187   O188    1.299   .     A
N187   C741    1.415   .     S
N187   O57     1.301   1_655 S
N190   O191    1.300   .     A
N190   O192    1.301   .     A
C193   H194    1.084   .     S
C193   O195    1.220   .     D
C196   H197    1.084   .     S
C196   O198    1.222   .     D
O199   Zn205   1.985   .     S
O199   C201    1.293   .     A
O200   C201    1.294   .     A
O200   Zn206   1.989   .     S
C201   C240    1.416   .     S
O202   Zn205   1.967   .     S
O202   C204    1.321   .     A
O203   Zn206   1.965   .     S
O203   C204    1.295   .     A
C204   C228    1.474   .     S
Zn205  O209    1.965   .     S
Zn205  N244    2.040   .     S
Zn205  O207    1.989   .     S
Zn206  O210    1.967   .     S
Zn206  N249    2.040   .     S
Zn206  O208    1.985   .     S
O207   C211    1.292   .     A
O208   C211    1.292   .     A
O209   C212    1.300   .     A
O210   C212    1.308   .     A
C211   C235    1.408   .     S
C212   C216    1.455   .     S
C213   C227    1.385   .     A
C213   C817    1.399   1_554 S
C213   N847    1.415   1_554 S
H214   C227    1.084   .     S
H215   C224    1.082   .     S
C216   C227    1.396   .     A
C216   C226    1.407   .     A
C217   H229    1.080   .     S
C217   C228    1.391   .     A
C217   C218    1.407   .     A
C218   C813    1.394   .     S
C218   H825    1.079   .     S
C219   H230    1.080   .     S
C219   C812    1.394   1_554 S
C219   C814    1.405   1_554 S
C220   C221    1.396   .     A
C220   C813    1.405   .     S
C220   C816    1.403   .     S
C221   C225    1.411   .     A
C221   C228    1.408   .     A
C222   C226    1.401   .     A
C222   C814    1.403   1_554 S
C222   C817    1.415   1_554 S
C223   C224    1.403   .     A
C223   C807    1.399   .     S
C223   C816    1.415   .     S
C224   C225    1.382   .     A
C225   C259    1.480   .     S
C226   N256    1.440   .     S
H231   C812    1.079   1_554 S
C232   C240    1.412   .     A
C232   C262    1.489   .     S
C232   C431    1.383   .     S
C233   C235    1.394   .     A
C233   H234    1.085   .     S
C235   C236    1.389   .     A
C236   H237    1.084   .     S
C238   C240    1.398   .     A
C238   H239    1.085   .     S
C238   C434    1.368   .     S
C241   N249    1.362   .     A
C241   H242    1.082   .     S
C241   C309    1.426   .     S
C243   N250    1.430   .     S
C243   N244    1.384   .     A
C243   C373    1.426   1_455 S
N244   C245    1.370   .     A
C245   H246    1.082   .     S
C245   C379    1.427   1_455 S
C247   N249    1.371   .     A
C247   H248    1.082   .     S
C247   C311    1.427   .     S
N250   O251    1.299   .     A
N250   O252    1.301   .     A
N253   O254    1.299   .     A
N253   C807    1.415   .     S
N253   O321    1.301   .     S
O255   N385    1.301   1_455 S
N256   O257    1.300   .     A
N256   O258    1.301   .     A
C259   H260    1.084   .     S
C259   O261    1.220   .     D
C262   H263    1.084   .     S
C262   O264    1.222   .     D
O265   Zn271   1.985   .     S
O265   C267    1.293   .     A
O266   C267    1.294   .     A
O266   Zn272   1.989   .     S
C267   C306    1.416   .     S
O268   Zn271   1.967   .     S
O268   C270    1.321   .     A
O269   Zn272   1.965   .     S
O269   C270    1.295   .     A
C270   C294    1.474   .     S
Zn271  O275    1.965   .     S
Zn271  N310    2.040   .     S
Zn271  O273    1.989   .     S
Zn272  O276    1.967   .     S
Zn272  N315    2.040   .     S
Zn272  O274    1.985   .     S
O273   C277    1.292   .     A
O274   C277    1.292   .     A
O275   C278    1.300   .     A
O276   C278    1.308   .     A
C277   C301    1.408   .     S
C278   C282    1.455   .     S
C279   C293    1.385   .     A
C279   C883    1.399   1_554 S
C279   N913    1.415   1_554 S
H280   C293    1.084   .     S
H281   C290    1.082   .     S
C282   C293    1.396   .     A
C282   C292    1.407   .     A
C283   H295    1.080   .     S
C283   C294    1.391   .     A
C283   C284    1.407   .     A
C284   C879    1.394   .     S
C284   H891    1.079   .     S
C285   H296    1.080   .     S
C285   C878    1.394   1_554 S
C285   C880    1.405   1_554 S
C286   C287    1.396   .     A
C286   C879    1.405   .     S
C286   C882    1.403   .     S
C287   C291    1.411   .     A
C287   C294    1.408   .     A
C288   C292    1.401   .     A
C288   C880    1.403   1_554 S
C288   C883    1.415   1_554 S
C289   C290    1.403   .     A
C289   C873    1.399   .     S
C289   C882    1.415   .     S
C290   C291    1.382   .     A
C291   C325    1.480   .     S
C292   N322    1.440   .     S
H297   C878    1.079   1_554 S
C298   C306    1.412   .     A
C298   C328    1.489   .     S
C298   C497    1.383   .     S
C299   C301    1.394   .     A
C299   H300    1.085   .     S
C301   C302    1.389   .     A
C302   H303    1.084   .     S
C304   C306    1.398   .     A
C304   H305    1.085   .     S
C304   C500    1.368   .     S
C307   N315    1.362   .     A
C307   H308    1.082   .     S
C307   C375    1.426   .     S
C309   N316    1.430   .     S
C309   N310    1.384   .     A
N310   C311    1.370   .     A
C311   H312    1.082   .     S
C313   N315    1.371   .     A
C313   H314    1.082   .     S
C313   C377    1.427   .     S
N316   O317    1.299   .     A
N316   O318    1.301   .     A
N319   O320    1.299   .     A
N319   C873    1.415   .     S
N319   O387    1.301   .     S
N322   O323    1.300   .     A
N322   O324    1.301   .     A
C325   H326    1.084   .     S
C325   O327    1.220   .     D
C328   H329    1.084   .     S
C328   O330    1.222   .     D
O331   Zn337   1.985   .     S
O331   C333    1.293   .     A
O332   C333    1.294   .     A
O332   Zn338   1.989   .     S
C333   C372    1.416   .     S
O334   Zn337   1.967   .     S
O334   C336    1.321   .     A
O335   Zn338   1.965   .     S
O335   C336    1.295   .     A
C336   C360    1.474   .     S
Zn337  O341    1.965   .     S
Zn337  N376    2.040   .     S
Zn337  O339    1.989   .     S
Zn338  O342    1.967   .     S
Zn338  N381    2.040   .     S
Zn338  O340    1.985   .     S
O339   C343    1.292   .     A
O340   C343    1.292   .     A
O341   C344    1.300   .     A
O342   C344    1.308   .     A
C343   C367    1.408   .     S
C344   C348    1.455   .     S
C345   C359    1.385   .     A
C345   C949    1.399   1_554 S
C345   N979    1.415   1_554 S
H346   C359    1.084   .     S
H347   C356    1.082   .     S
C348   C359    1.396   .     A
C348   C358    1.407   .     A
C349   H361    1.080   .     S
C349   C360    1.391   .     A
C349   C350    1.407   .     A
C350   C945    1.394   .     S
C350   H957    1.079   .     S
C351   H362    1.080   .     S
C351   C944    1.394   1_554 S
C351   C946    1.405   1_554 S
C352   C353    1.396   .     A
C352   C945    1.405   .     S
C352   C948    1.403   .     S
C353   C357    1.411   .     A
C353   C360    1.408   .     A
C354   C358    1.401   .     A
C354   C946    1.403   1_554 S
C354   C949    1.415   1_554 S
C355   C356    1.403   .     A
C355   C939    1.399   .     S
C355   C948    1.415   .     S
C356   C357    1.382   .     A
C357   C391    1.480   .     S
C358   N388    1.440   .     S
H363   C944    1.079   1_554 S
C364   C372    1.412   .     A
C364   C394    1.489   .     S
C364   C563    1.383   .     S
C365   C367    1.394   .     A
C365   H366    1.085   .     S
C367   C368    1.389   .     A
C368   H369    1.084   .     S
C370   C372    1.398   .     A
C370   H371    1.085   .     S
C370   C566    1.368   .     S
C373   N381    1.362   .     A
C373   H374    1.082   .     S
C373   C243    1.426   1_655 S
C375   N382    1.430   .     S
C375   N376    1.384   .     A
N376   C377    1.370   .     A
C377   H378    1.082   .     S
C379   N381    1.371   .     A
C379   H380    1.082   .     S
C379   C245    1.427   1_655 S
N382   O383    1.299   .     A
N382   O384    1.301   .     A
N385   O386    1.299   .     A
N385   C939    1.415   .     S
N385   O255    1.301   1_655 S
N388   O389    1.300   .     A
N388   O390    1.301   .     A
C391   H392    1.084   .     S
C391   O393    1.220   .     D
C394   H395    1.084   .     S
C394   O396    1.222   .     D
O397   Zn403   1.985   .     S
O397   C399    1.293   .     A
O398   C399    1.294   .     A
O398   Zn404   1.989   .     S
C399   C438    1.416   .     S
O400   Zn403   1.967   .     S
O400   C402    1.321   .     A
O401   Zn404   1.965   .     S
O401   C402    1.295   .     A
C402   C426    1.474   .     S
Zn403  O407    1.965   .     S
Zn403  N442    2.040   .     S
Zn403  O405    1.989   .     S
Zn404  O408    1.967   .     S
Zn404  N447    2.040   .     S
Zn404  O406    1.985   .     S
O405   C409    1.292   .     A
O406   C409    1.292   .     A
O407   C410    1.300   .     A
O408   C410    1.308   .     A
C409   C433    1.408   .     S
C410   C414    1.455   .     S
C411   C425    1.385   .     A
C411   C1015   1.399   1_554 S
C411   N1045   1.415   1_554 S
H412   C425    1.084   .     S
H413   C422    1.082   .     S
C414   C425    1.396   .     A
C414   C424    1.407   .     A
C415   H427    1.080   .     S
C415   C426    1.391   .     A
C415   C416    1.407   .     A
C416   C1011   1.394   .     S
C416   H1023   1.079   .     S
C417   H428    1.080   .     S
C417   C1010   1.394   1_554 S
C417   C1012   1.405   1_554 S
C418   C419    1.396   .     A
C418   C1011   1.405   .     S
C418   C1014   1.403   .     S
C419   C423    1.411   .     A
C419   C426    1.408   .     A
C420   C424    1.401   .     A
C420   C1012   1.403   1_554 S
C420   C1015   1.415   1_554 S
C421   C422    1.403   .     A
C421   C1005   1.399   .     S
C421   C1014   1.415   .     S
C422   C423    1.382   .     A
C423   C457    1.480   .     S
C424   N454    1.440   .     S
H429   C1010   1.079   1_554 S
C430   C438    1.412   .     A
C430   C460    1.489   .     S
C430   C35     1.383   1_565 S
C431   C433    1.394   .     A
C431   H432    1.085   .     S
C433   C434    1.389   .     A
C434   H435    1.084   .     S
C436   C438    1.398   .     A
C436   H437    1.085   .     S
C436   C38     1.368   1_565 S
C439   N447    1.362   .     A
C439   H440    1.082   .     S
C439   C507    1.426   .     S
C441   N448    1.430   .     S
C441   N442    1.384   .     A
C441   C571    1.426   1_455 S
N442   C443    1.370   .     A
C443   H444    1.082   .     S
C443   C577    1.427   1_455 S
C445   N447    1.371   .     A
C445   H446    1.082   .     S
C445   C509    1.427   .     S
N448   O449    1.299   .     A
N448   O450    1.301   .     A
N451   O452    1.299   .     A
N451   C1005   1.415   .     S
N451   O519    1.301   .     S
O453   N583    1.301   1_455 S
N454   O455    1.300   .     A
N454   O456    1.301   .     A
C457   H458    1.084   .     S
C457   O459    1.220   .     D
C460   H461    1.084   .     S
C460   O462    1.222   .     D
O463   Zn469   1.985   .     S
O463   C465    1.293   .     A
O464   C465    1.294   .     A
O464   Zn470   1.989   .     S
C465   C504    1.416   .     S
O466   Zn469   1.967   .     S
O466   C468    1.321   .     A
O467   Zn470   1.965   .     S
O467   C468    1.295   .     A
C468   C492    1.474   .     S
Zn469  O473    1.965   .     S
Zn469  N508    2.040   .     S
Zn469  O471    1.989   .     S
Zn470  O474    1.967   .     S
Zn470  N513    2.040   .     S
Zn470  O472    1.985   .     S
O471   C475    1.292   .     A
O472   C475    1.292   .     A
O473   C476    1.300   .     A
O474   C476    1.308   .     A
C475   C499    1.408   .     S
C476   C480    1.455   .     S
C477   C491    1.385   .     A
C477   C1081   1.399   1_554 S
C477   N1111   1.415   1_554 S
H478   C491    1.084   .     S
H479   C488    1.082   .     S
C480   C491    1.396   .     A
C480   C490    1.407   .     A
C481   H493    1.080   .     S
C481   C492    1.391   .     A
C481   C482    1.407   .     A
C482   C1077   1.394   .     S
C482   H1089   1.079   .     S
C483   H494    1.080   .     S
C483   C1076   1.394   1_554 S
C483   C1078   1.405   1_554 S
C484   C485    1.396   .     A
C484   C1077   1.405   .     S
C484   C1080   1.403   .     S
C485   C489    1.411   .     A
C485   C492    1.408   .     A
C486   C490    1.401   .     A
C486   C1078   1.403   1_554 S
C486   C1081   1.415   1_554 S
C487   C488    1.403   .     A
C487   C1071   1.399   .     S
C487   C1080   1.415   .     S
C488   C489    1.382   .     A
C489   C523    1.480   .     S
C490   N520    1.440   .     S
H495   C1076   1.079   1_554 S
C496   C504    1.412   .     A
C496   C526    1.489   .     S
C496   C101    1.383   1_565 S
C497   C499    1.394   .     A
C497   H498    1.085   .     S
C499   C500    1.389   .     A
C500   H501    1.084   .     S
C502   C504    1.398   .     A
C502   H503    1.085   .     S
C502   C104    1.368   1_565 S
C505   N513    1.362   .     A
C505   H506    1.082   .     S
C505   C573    1.426   .     S
C507   N514    1.430   .     S
C507   N508    1.384   .     A
N508   C509    1.370   .     A
C509   H510    1.082   .     S
C511   N513    1.371   .     A
C511   H512    1.082   .     S
C511   C575    1.427   .     S
N514   O515    1.299   .     A
N514   O516    1.301   .     A
N517   O518    1.299   .     A
N517   C1071   1.415   .     S
N517   O585    1.301   .     S
N520   O521    1.300   .     A
N520   O522    1.301   .     A
C523   H524    1.084   .     S
C523   O525    1.220   .     D
C526   H527    1.084   .     S
C526   O528    1.222   .     D
O529   Zn535   1.985   .     S
O529   C531    1.293   .     A
O530   C531    1.294   .     A
O530   Zn536   1.989   .     S
C531   C570    1.416   .     S
O532   Zn535   1.967   .     S
O532   C534    1.321   .     A
O533   Zn536   1.965   .     S
O533   C534    1.295   .     A
C534   C558    1.474   .     S
Zn535  O539    1.965   .     S
Zn535  N574    2.040   .     S
Zn535  O537    1.989   .     S
Zn536  O540    1.967   .     S
Zn536  N579    2.040   .     S
Zn536  O538    1.985   .     S
O537   C541    1.292   .     A
O538   C541    1.292   .     A
O539   C542    1.300   .     A
O540   C542    1.308   .     A
C541   C565    1.408   .     S
C542   C546    1.455   .     S
C543   C557    1.385   .     A
C543   C1147   1.399   1_554 S
C543   N1177   1.415   1_554 S
H544   C557    1.084   .     S
H545   C554    1.082   .     S
C546   C557    1.396   .     A
C546   C556    1.407   .     A
C547   H559    1.080   .     S
C547   C558    1.391   .     A
C547   C548    1.407   .     A
C548   C1143   1.394   .     S
C548   H1155   1.079   .     S
C549   H560    1.080   .     S
C549   C1142   1.394   1_554 S
C549   C1144   1.405   1_554 S
C550   C551    1.396   .     A
C550   C1143   1.405   .     S
C550   C1146   1.403   .     S
C551   C555    1.411   .     A
C551   C558    1.408   .     A
C552   C556    1.401   .     A
C552   C1144   1.403   1_554 S
C552   C1147   1.415   1_554 S
C553   C554    1.403   .     A
C553   C1137   1.399   .     S
C553   C1146   1.415   .     S
C554   C555    1.382   .     A
C555   C589    1.480   .     S
C556   N586    1.440   .     S
H561   C1142   1.079   1_554 S
C562   C570    1.412   .     A
C562   C592    1.489   .     S
C562   C167    1.383   1_565 S
C563   C565    1.394   .     A
C563   H564    1.085   .     S
C565   C566    1.389   .     A
C566   H567    1.084   .     S
C568   C570    1.398   .     A
C568   H569    1.085   .     S
C568   C170    1.368   1_565 S
C571   N579    1.362   .     A
C571   H572    1.082   .     S
C571   C441    1.426   1_655 S
C573   N580    1.430   .     S
C573   N574    1.384   .     A
N574   C575    1.370   .     A
C575   H576    1.082   .     S
C577   N579    1.371   .     A
C577   H578    1.082   .     S
C577   C443    1.427   1_655 S
N580   O581    1.299   .     A
N580   O582    1.301   .     A
N583   O584    1.299   .     A
N583   C1137   1.415   .     S
N583   O453    1.301   1_655 S
N586   O587    1.300   .     A
N586   O588    1.301   .     A
C589   H590    1.084   .     S
C589   O591    1.220   .     D
C592   H593    1.084   .     S
C592   O594    1.222   .     D
O595   Zn601   1.985   .     S
O595   C597    1.293   .     A
O596   C597    1.294   .     A
O596   Zn602   1.989   .     S
C597   C636    1.416   .     S
O598   Zn601   1.967   .     S
O598   C600    1.321   .     A
O599   Zn602   1.965   .     S
O599   C600    1.295   .     A
C600   C624    1.474   .     S
Zn601  O605    1.965   .     S
Zn601  N640    2.040   .     S
Zn601  O603    1.989   .     S
Zn602  O606    1.967   .     S
Zn602  N645    2.040   .     S
Zn602  O604    1.985   .     S
O603   C607    1.292   .     A
O604   C607    1.292   .     A
O605   C608    1.300   .     A
O606   C608    1.308   .     A
C607   C631    1.408   .     S
C608   C612    1.455   .     S
C609   C623    1.385   .     A
H610   C623    1.084   .     S
H611   C620    1.082   .     S
C612   C623    1.396   .     A
C612   C622    1.407   .     A
C613   H625    1.080   .     S
C613   C624    1.391   .     A
C613   C614    1.407   .     A
C614   C21     1.394   1_556 S
C614   H33     1.079   1_556 S
C615   H626    1.080   .     S
C616   C617    1.396   .     A
C616   C21     1.405   1_556 S
C616   C24     1.403   1_556 S
C617   C621    1.411   .     A
C617   C624    1.408   .     A
C618   C622    1.401   .     A
C619   C620    1.403   .     A
C619   C15     1.399   1_556 S
C619   C24     1.415   1_556 S
C620   C621    1.382   .     A
C621   C655    1.480   .     S
C622   N652    1.440   .     S
C628   C636    1.412   .     A
C628   C658    1.489   .     S
C628   C827    1.383   .     S
C629   C631    1.394   .     A
C629   H630    1.085   .     S
C629   C1024   1.383   1_545 S
C631   C632    1.389   .     A
C632   H633    1.084   .     S
C632   C1030   1.368   1_545 S
C634   C636    1.398   .     A
C634   H635    1.085   .     S
C634   C830    1.368   .     S
C637   N645    1.362   .     A
C637   H638    1.082   .     S
C637   C705    1.426   .     S
C639   N646    1.430   .     S
C639   N640    1.384   .     A
C639   C769    1.426   1_455 S
N640   C641    1.370   .     A
C641   H642    1.082   .     S
C641   C775    1.427   1_455 S
C643   N645    1.371   .     A
C643   H644    1.082   .     S
C643   C707    1.427   .     S
N646   O647    1.299   .     A
N646   O648    1.301   .     A
N649   O650    1.299   .     A
N649   C15     1.415   1_556 S
N649   O717    1.301   .     S
O651   N781    1.301   1_455 S
N652   O653    1.300   .     A
N652   O654    1.301   .     A
C655   H656    1.084   .     S
C655   O657    1.220   .     D
C658   H659    1.084   .     S
C658   O660    1.222   .     D
O661   Zn667   1.985   .     S
O661   C663    1.293   .     A
O662   C663    1.294   .     A
O662   Zn668   1.989   .     S
C663   C702    1.416   .     S
O664   Zn667   1.967   .     S
O664   C666    1.321   .     A
O665   Zn668   1.965   .     S
O665   C666    1.295   .     A
C666   C690    1.474   .     S
Zn667  O671    1.965   .     S
Zn667  N706    2.040   .     S
Zn667  O669    1.989   .     S
Zn668  O672    1.967   .     S
Zn668  N711    2.040   .     S
Zn668  O670    1.985   .     S
O669   C673    1.292   .     A
O670   C673    1.292   .     A
O671   C674    1.300   .     A
O672   C674    1.308   .     A
C673   C697    1.408   .     S
C674   C678    1.455   .     S
C675   C689    1.385   .     A
H676   C689    1.084   .     S
H677   C686    1.082   .     S
C678   C689    1.396   .     A
C678   C688    1.407   .     A
C679   H691    1.080   .     S
C679   C690    1.391   .     A
C679   C680    1.407   .     A
C680   C87     1.394   1_556 S
C680   H99     1.079   1_556 S
C681   H692    1.080   .     S
C682   C683    1.396   .     A
C682   C87     1.405   1_556 S
C682   C90     1.403   1_556 S
C683   C687    1.411   .     A
C683   C690    1.408   .     A
C684   C688    1.401   .     A
C685   C686    1.403   .     A
C685   C81     1.399   1_556 S
C685   C90     1.415   1_556 S
C686   C687    1.382   .     A
C687   C721    1.480   .     S
C688   N718    1.440   .     S
C694   C702    1.412   .     A
C694   C724    1.489   .     S
C694   C893    1.383   .     S
C695   C697    1.394   .     A
C695   H696    1.085   .     S
C695   C1090   1.383   1_545 S
C697   C698    1.389   .     A
C698   H699    1.084   .     S
C698   C1096   1.368   1_545 S
C700   C702    1.398   .     A
C700   H701    1.085   .     S
C700   C896    1.368   .     S
C703   N711    1.362   .     A
C703   H704    1.082   .     S
C703   C771    1.426   .     S
C705   N712    1.430   .     S
C705   N706    1.384   .     A
N706   C707    1.370   .     A
C707   H708    1.082   .     S
C709   N711    1.371   .     A
C709   H710    1.082   .     S
C709   C773    1.427   .     S
N712   O713    1.299   .     A
N712   O714    1.301   .     A
N715   O716    1.299   .     A
N715   C81     1.415   1_556 S
N715   O783    1.301   .     S
N718   O719    1.300   .     A
N718   O720    1.301   .     A
C721   H722    1.084   .     S
C721   O723    1.220   .     D
C724   H725    1.084   .     S
C724   O726    1.222   .     D
O727   Zn733   1.985   .     S
O727   C729    1.293   .     A
O728   C729    1.294   .     A
O728   Zn734   1.989   .     S
C729   C768    1.416   .     S
O730   Zn733   1.967   .     S
O730   C732    1.321   .     A
O731   Zn734   1.965   .     S
O731   C732    1.295   .     A
C732   C756    1.474   .     S
Zn733  O737    1.965   .     S
Zn733  N772    2.040   .     S
Zn733  O735    1.989   .     S
Zn734  O738    1.967   .     S
Zn734  N777    2.040   .     S
Zn734  O736    1.985   .     S
O735   C739    1.292   .     A
O736   C739    1.292   .     A
O737   C740    1.300   .     A
O738   C740    1.308   .     A
C739   C763    1.408   .     S
C740   C744    1.455   .     S
C741   C755    1.385   .     A
H742   C755    1.084   .     S
H743   C752    1.082   .     S
C744   C755    1.396   .     A
C744   C754    1.407   .     A
C745   H757    1.080   .     S
C745   C756    1.391   .     A
C745   C746    1.407   .     A
C746   C153    1.394   1_556 S
C746   H165    1.079   1_556 S
C747   H758    1.080   .     S
C748   C749    1.396   .     A
C748   C153    1.405   1_556 S
C748   C156    1.403   1_556 S
C749   C753    1.411   .     A
C749   C756    1.408   .     A
C750   C754    1.401   .     A
C751   C752    1.403   .     A
C751   C147    1.399   1_556 S
C751   C156    1.415   1_556 S
C752   C753    1.382   .     A
C753   C787    1.480   .     S
C754   N784    1.440   .     S
C760   C768    1.412   .     A
C760   C790    1.489   .     S
C760   C959    1.383   .     S
C761   C763    1.394   .     A
C761   H762    1.085   .     S
C761   C1156   1.383   1_545 S
C763   C764    1.389   .     A
C764   H765    1.084   .     S
C764   C1162   1.368   1_545 S
C766   C768    1.398   .     A
C766   H767    1.085   .     S
C766   C962    1.368   .     S
C769   N777    1.362   .     A
C769   H770    1.082   .     S
C769   C639    1.426   1_655 S
C771   N778    1.430   .     S
C771   N772    1.384   .     A
N772   C773    1.370   .     A
C773   H774    1.082   .     S
C775   N777    1.371   .     A
C775   H776    1.082   .     S
C775   C641    1.427   1_655 S
N778   O779    1.299   .     A
N778   O780    1.301   .     A
N781   O782    1.299   .     A
N781   C147    1.415   1_556 S
N781   O651    1.301   1_655 S
N784   O785    1.300   .     A
N784   O786    1.301   .     A
C787   H788    1.084   .     S
C787   O789    1.220   .     D
C790   H791    1.084   .     S
C790   O792    1.222   .     D
O793   Zn799   1.985   .     S
O793   C795    1.293   .     A
O794   C795    1.294   .     A
O794   Zn800   1.989   .     S
C795   C834    1.416   .     S
O796   Zn799   1.967   .     S
O796   C798    1.321   .     A
O797   Zn800   1.965   .     S
O797   C798    1.295   .     A
C798   C822    1.474   .     S
Zn799  O803    1.965   .     S
Zn799  N838    2.040   .     S
Zn799  O801    1.989   .     S
Zn800  O804    1.967   .     S
Zn800  N843    2.040   .     S
Zn800  O802    1.985   .     S
O801   C805    1.292   .     A
O802   C805    1.292   .     A
O803   C806    1.300   .     A
O804   C806    1.308   .     A
C805   C829    1.408   .     S
C806   C810    1.455   .     S
C807   C821    1.385   .     A
H808   C821    1.084   .     S
H809   C818    1.082   .     S
C810   C821    1.396   .     A
C810   C820    1.407   .     A
C811   H823    1.080   .     S
C811   C822    1.391   .     A
C811   C812    1.407   .     A
C812   C219    1.394   1_556 S
C812   H231    1.079   1_556 S
C813   H824    1.080   .     S
C814   C815    1.396   .     A
C814   C219    1.405   1_556 S
C814   C222    1.403   1_556 S
C815   C819    1.411   .     A
C815   C822    1.408   .     A
C816   C820    1.401   .     A
C817   C818    1.403   .     A
C817   C213    1.399   1_556 S
C817   C222    1.415   1_556 S
C818   C819    1.382   .     A
C819   C853    1.480   .     S
C820   N850    1.440   .     S
C826   C834    1.412   .     A
C826   C856    1.489   .     S
C826   C1025   1.383   .     S
C827   C829    1.394   .     A
C827   H828    1.085   .     S
C829   C830    1.389   .     A
C830   H831    1.084   .     S
C832   C834    1.398   .     A
C832   H833    1.085   .     S
C832   C1028   1.368   .     S
C835   N843    1.362   .     A
C835   H836    1.082   .     S
C835   C903    1.426   .     S
C837   N844    1.430   .     S
C837   N838    1.384   .     A
C837   C967    1.426   1_455 S
N838   C839    1.370   .     A
C839   H840    1.082   .     S
C839   C973    1.427   1_455 S
C841   N843    1.371   .     A
C841   H842    1.082   .     S
C841   C905    1.427   .     S
N844   O845    1.299   .     A
N844   O846    1.301   .     A
N847   O848    1.299   .     A
N847   C213    1.415   1_556 S
N847   O915    1.301   .     S
O849   N979    1.301   1_455 S
N850   O851    1.300   .     A
N850   O852    1.301   .     A
C853   H854    1.084   .     S
C853   O855    1.220   .     D
C856   H857    1.084   .     S
C856   O858    1.222   .     D
O859   Zn865   1.985   .     S
O859   C861    1.293   .     A
O860   C861    1.294   .     A
O860   Zn866   1.989   .     S
C861   C900    1.416   .     S
O862   Zn865   1.967   .     S
O862   C864    1.321   .     A
O863   Zn866   1.965   .     S
O863   C864    1.295   .     A
C864   C888    1.474   .     S
Zn865  O869    1.965   .     S
Zn865  N904    2.040   .     S
Zn865  O867    1.989   .     S
Zn866  O870    1.967   .     S
Zn866  N909    2.040   .     S
Zn866  O868    1.985   .     S
O867   C871    1.292   .     A
O868   C871    1.292   .     A
O869   C872    1.300   .     A
O870   C872    1.308   .     A
C871   C895    1.408   .     S
C872   C876    1.455   .     S
C873   C887    1.385   .     A
H874   C887    1.084   .     S
H875   C884    1.082   .     S
C876   C887    1.396   .     A
C876   C886    1.407   .     A
C877   H889    1.080   .     S
C877   C888    1.391   .     A
C877   C878    1.407   .     A
C878   C285    1.394   1_556 S
C878   H297    1.079   1_556 S
C879   H890    1.080   .     S
C880   C881    1.396   .     A
C880   C285    1.405   1_556 S
C880   C288    1.403   1_556 S
C881   C885    1.411   .     A
C881   C888    1.408   .     A
C882   C886    1.401   .     A
C883   C884    1.403   .     A
C883   C279    1.399   1_556 S
C883   C288    1.415   1_556 S
C884   C885    1.382   .     A
C885   C919    1.480   .     S
C886   N916    1.440   .     S
C892   C900    1.412   .     A
C892   C922    1.489   .     S
C892   C1091   1.383   .     S
C893   C895    1.394   .     A
C893   H894    1.085   .     S
C895   C896    1.389   .     A
C896   H897    1.084   .     S
C898   C900    1.398   .     A
C898   H899    1.085   .     S
C898   C1094   1.368   .     S
C901   N909    1.362   .     A
C901   H902    1.082   .     S
C901   C969    1.426   .     S
C903   N910    1.430   .     S
C903   N904    1.384   .     A
N904   C905    1.370   .     A
C905   H906    1.082   .     S
C907   N909    1.371   .     A
C907   H908    1.082   .     S
C907   C971    1.427   .     S
N910   O911    1.299   .     A
N910   O912    1.301   .     A
N913   O914    1.299   .     A
N913   C279    1.415   1_556 S
N913   O981    1.301   .     S
N916   O917    1.300   .     A
N916   O918    1.301   .     A
C919   H920    1.084   .     S
C919   O921    1.220   .     D
C922   H923    1.084   .     S
C922   O924    1.222   .     D
O925   Zn931   1.985   .     S
O925   C927    1.293   .     A
O926   C927    1.294   .     A
O926   Zn932   1.989   .     S
C927   C966    1.416   .     S
O928   Zn931   1.967   .     S
O928   C930    1.321   .     A
O929   Zn932   1.965   .     S
O929   C930    1.295   .     A
C930   C954    1.474   .     S
Zn931  O935    1.965   .     S
Zn931  N970    2.040   .     S
Zn931  O933    1.989   .     S
Zn932  O936    1.967   .     S
Zn932  N975    2.040   .     S
Zn932  O934    1.985   .     S
O933   C937    1.292   .     A
O934   C937    1.292   .     A
O935   C938    1.300   .     A
O936   C938    1.308   .     A
C937   C961    1.408   .     S
C938   C942    1.455   .     S
C939   C953    1.385   .     A
H940   C953    1.084   .     S
H941   C950    1.082   .     S
C942   C953    1.396   .     A
C942   C952    1.407   .     A
C943   H955    1.080   .     S
C943   C954    1.391   .     A
C943   C944    1.407   .     A
C944   C351    1.394   1_556 S
C944   H363    1.079   1_556 S
C945   H956    1.080   .     S
C946   C947    1.396   .     A
C946   C351    1.405   1_556 S
C946   C354    1.403   1_556 S
C947   C951    1.411   .     A
C947   C954    1.408   .     A
C948   C952    1.401   .     A
C949   C950    1.403   .     A
C949   C345    1.399   1_556 S
C949   C354    1.415   1_556 S
C950   C951    1.382   .     A
C951   C985    1.480   .     S
C952   N982    1.440   .     S
C958   C966    1.412   .     A
C958   C988    1.489   .     S
C958   C1157   1.383   .     S
C959   C961    1.394   .     A
C959   H960    1.085   .     S
C961   C962    1.389   .     A
C962   H963    1.084   .     S
C964   C966    1.398   .     A
C964   H965    1.085   .     S
C964   C1160   1.368   .     S
C967   N975    1.362   .     A
C967   H968    1.082   .     S
C967   C837    1.426   1_655 S
C969   N976    1.430   .     S
C969   N970    1.384   .     A
N970   C971    1.370   .     A
C971   H972    1.082   .     S
C973   N975    1.371   .     A
C973   H974    1.082   .     S
C973   C839    1.427   1_655 S
N976   O977    1.299   .     A
N976   O978    1.301   .     A
N979   O980    1.299   .     A
N979   C345    1.415   1_556 S
N979   O849    1.301   1_655 S
N982   O983    1.300   .     A
N982   O984    1.301   .     A
C985   H986    1.084   .     S
C985   O987    1.220   .     D
C988   H989    1.084   .     S
C988   O990    1.222   .     D
O991   Zn997   1.985   .     S
O991   C993    1.293   .     A
O992   C993    1.294   .     A
O992   Zn998   1.989   .     S
C993   C1032   1.416   .     S
O994   Zn997   1.967   .     S
O994   C996    1.321   .     A
O995   Zn998   1.965   .     S
O995   C996    1.295   .     A
C996   C1020   1.474   .     S
Zn997  O1001   1.965   .     S
Zn997  N1036   2.040   .     S
Zn997  O999    1.989   .     S
Zn998  O1002   1.967   .     S
Zn998  N1041   2.040   .     S
Zn998  O1000   1.985   .     S
O999   C1003   1.292   .     A
O1000  C1003   1.292   .     A
O1001  C1004   1.300   .     A
O1002  C1004   1.308   .     A
C1003  C1027   1.408   .     S
C1004  C1008   1.455   .     S
C1005  C1019   1.385   .     A
H1006  C1019   1.084   .     S
H1007  C1016   1.082   .     S
C1008  C1019   1.396   .     A
C1008  C1018   1.407   .     A
C1009  H1021   1.080   .     S
C1009  C1020   1.391   .     A
C1009  C1010   1.407   .     A
C1010  C417    1.394   1_556 S
C1010  H429    1.079   1_556 S
C1011  H1022   1.080   .     S
C1012  C1013   1.396   .     A
C1012  C417    1.405   1_556 S
C1012  C420    1.403   1_556 S
C1013  C1017   1.411   .     A
C1013  C1020   1.408   .     A
C1014  C1018   1.401   .     A
C1015  C1016   1.403   .     A
C1015  C411    1.399   1_556 S
C1015  C420    1.415   1_556 S
C1016  C1017   1.382   .     A
C1017  C1051   1.480   .     S
C1018  N1048   1.440   .     S
C1024  C1032   1.412   .     A
C1024  C1054   1.489   .     S
C1024  C629    1.383   1_565 S
C1025  C1027   1.394   .     A
C1025  H1026   1.085   .     S
C1027  C1028   1.389   .     A
C1028  H1029   1.084   .     S
C1030  C1032   1.398   .     A
C1030  H1031   1.085   .     S
C1030  C632    1.368   1_565 S
C1033  N1041   1.362   .     A
C1033  H1034   1.082   .     S
C1033  C1101   1.426   .     S
C1035  N1042   1.430   .     S
C1035  N1036   1.384   .     A
C1035  C1165   1.426   1_455 S
N1036  C1037   1.370   .     A
C1037  H1038   1.082   .     S
C1037  C1171   1.427   1_455 S
C1039  N1041   1.371   .     A
C1039  H1040   1.082   .     S
C1039  C1103   1.427   .     S
N1042  O1043   1.299   .     A
N1042  O1044   1.301   .     A
N1045  O1046   1.299   .     A
N1045  C411    1.415   1_556 S
N1045  O1113   1.301   .     S
O1047  N1177   1.301   1_455 S
N1048  O1049   1.300   .     A
N1048  O1050   1.301   .     A
C1051  H1052   1.084   .     S
C1051  O1053   1.220   .     D
C1054  H1055   1.084   .     S
C1054  O1056   1.222   .     D
O1057  Zn1063  1.985   .     S
O1057  C1059   1.293   .     A
O1058  C1059   1.294   .     A
O1058  Zn1064  1.989   .     S
C1059  C1098   1.416   .     S
O1060  Zn1063  1.967   .     S
O1060  C1062   1.321   .     A
O1061  Zn1064  1.965   .     S
O1061  C1062   1.295   .     A
C1062  C1086   1.474   .     S
Zn1063 O1067   1.965   .     S
Zn1063 N1102   2.040   .     S
Zn1063 O1065   1.989   .     S
Zn1064 O1068   1.967   .     S
Zn1064 N1107   2.040   .     S
Zn1064 O1066   1.985   .     S
O1065  C1069   1.292   .     A
O1066  C1069   1.292   .     A
O1067  C1070   1.300   .     A
O1068  C1070   1.308   .     A
C1069  C1093   1.408   .     S
C1070  C1074   1.455   .     S
C1071  C1085   1.385   .     A
H1072  C1085   1.084   .     S
H1073  C1082   1.082   .     S
C1074  C1085   1.396   .     A
C1074  C1084   1.407   .     A
C1075  H1087   1.080   .     S
C1075  C1086   1.391   .     A
C1075  C1076   1.407   .     A
C1076  C483    1.394   1_556 S
C1076  H495    1.079   1_556 S
C1077  H1088   1.080   .     S
C1078  C1079   1.396   .     A
C1078  C483    1.405   1_556 S
C1078  C486    1.403   1_556 S
C1079  C1083   1.411   .     A
C1079  C1086   1.408   .     A
C1080  C1084   1.401   .     A
C1081  C1082   1.403   .     A
C1081  C477    1.399   1_556 S
C1081  C486    1.415   1_556 S
C1082  C1083   1.382   .     A
C1083  C1117   1.480   .     S
C1084  N1114   1.440   .     S
C1090  C1098   1.412   .     A
C1090  C1120   1.489   .     S
C1090  C695    1.383   1_565 S
C1091  C1093   1.394   .     A
C1091  H1092   1.085   .     S
C1093  C1094   1.389   .     A
C1094  H1095   1.084   .     S
C1096  C1098   1.398   .     A
C1096  H1097   1.085   .     S
C1096  C698    1.368   1_565 S
C1099  N1107   1.362   .     A
C1099  H1100   1.082   .     S
C1099  C1167   1.426   .     S
C1101  N1108   1.430   .     S
C1101  N1102   1.384   .     A
N1102  C1103   1.370   .     A
C1103  H1104   1.082   .     S
C1105  N1107   1.371   .     A
C1105  H1106   1.082   .     S
C1105  C1169   1.427   .     S
N1108  O1109   1.299   .     A
N1108  O1110   1.301   .     A
N1111  O1112   1.299   .     A
N1111  C477    1.415   1_556 S
N1111  O1179   1.301   .     S
N1114  O1115   1.300   .     A
N1114  O1116   1.301   .     A
C1117  H1118   1.084   .     S
C1117  O1119   1.220   .     D
C1120  H1121   1.084   .     S
C1120  O1122   1.222   .     D
O1123  Zn1129  1.985   .     S
O1123  C1125   1.293   .     A
O1124  C1125   1.294   .     A
O1124  Zn1130  1.989   .     S
C1125  C1164   1.416   .     S
O1126  Zn1129  1.967   .     S
O1126  C1128   1.321   .     A
O1127  Zn1130  1.965   .     S
O1127  C1128   1.295   .     A
C1128  C1152   1.474   .     S
Zn1129 O1133   1.965   .     S
Zn1129 N1168   2.040   .     S
Zn1129 O1131   1.989   .     S
Zn1130 O1134   1.967   .     S
Zn1130 N1173   2.040   .     S
Zn1130 O1132   1.985   .     S
O1131  C1135   1.292   .     A
O1132  C1135   1.292   .     A
O1133  C1136   1.300   .     A
O1134  C1136   1.308   .     A
C1135  C1159   1.408   .     S
C1136  C1140   1.455   .     S
C1137  C1151   1.385   .     A
H1138  C1151   1.084   .     S
H1139  C1148   1.082   .     S
C1140  C1151   1.396   .     A
C1140  C1150   1.407   .     A
C1141  H1153   1.080   .     S
C1141  C1152   1.391   .     A
C1141  C1142   1.407   .     A
C1142  C549    1.394   1_556 S
C1142  H561    1.079   1_556 S
C1143  H1154   1.080   .     S
C1144  C1145   1.396   .     A
C1144  C549    1.405   1_556 S
C1144  C552    1.403   1_556 S
C1145  C1149   1.411   .     A
C1145  C1152   1.408   .     A
C1146  C1150   1.401   .     A
C1147  C1148   1.403   .     A
C1147  C543    1.399   1_556 S
C1147  C552    1.415   1_556 S
C1148  C1149   1.382   .     A
C1149  C1183   1.480   .     S
C1150  N1180   1.440   .     S
C1156  C1164   1.412   .     A
C1156  C1186   1.489   .     S
C1156  C761    1.383   1_565 S
C1157  C1159   1.394   .     A
C1157  H1158   1.085   .     S
C1159  C1160   1.389   .     A
C1160  H1161   1.084   .     S
C1162  C1164   1.398   .     A
C1162  H1163   1.085   .     S
C1162  C764    1.368   1_565 S
C1165  N1173   1.362   .     A
C1165  H1166   1.082   .     S
C1165  C1035   1.426   1_655 S
C1167  N1174   1.430   .     S
C1167  N1168   1.384   .     A
N1168  C1169   1.370   .     A
C1169  H1170   1.082   .     S
C1171  N1173   1.371   .     A
C1171  H1172   1.082   .     S
C1171  C1037   1.427   1_655 S
N1174  O1175   1.299   .     A
N1174  O1176   1.301   .     A
N1177  O1178   1.299   .     A
N1177  C543    1.415   1_556 S
N1177  O1047   1.301   1_655 S
N1180  O1181   1.300   .     A
N1180  O1182   1.301   .     A
C1183  H1184   1.084   .     S
C1183  O1185   1.220   .     D
C1186  H1187   1.084   .     S
C1186  O1188   1.222   .     D
