data_str_m3_o1_o17_pcu_sym.75
_audit_creation_date              2020-01-03
_audit_creation_method            'Materials Studio'
_symmetry_space_group_name_H-M    'P1'
_symmetry_Int_Tables_number       1
_symmetry_cell_setting            triclinic
loop_
_symmetry_equiv_pos_as_xyz
  x,y,z
_cell_length_a                    32.1425
_cell_length_b                    29.5108
_cell_length_c                    29.9453
_cell_angle_alpha                 89.5490
_cell_angle_beta                  90.0460
_cell_angle_gamma                 90.0329
loop_
_atom_site_label
_atom_site_type_symbol
_atom_site_fract_x
_atom_site_fract_y
_atom_site_fract_z
_atom_site_U_iso_or_equiv
_atom_site_adp_type
_atom_site_occupancy
C1     C     0.08662   0.16666   0.24994   0.00000  Uiso   1.00
C2     C     0.04248   0.16667   0.24992   0.00000  Uiso   1.00
C3     C     0.19558   0.02381   0.27404   0.00000  Uiso   1.00
C4     C     0.13775   0.30952   0.22597   0.00000  Uiso   1.00
C5     C     0.13776   0.02416   0.22595   0.00000  Uiso   1.00
C6     C     0.19557   0.30917   0.27405   0.00000  Uiso   1.00
C7     C     0.16569   0.16689   0.16349   0.00000  Uiso   1.00
C8     C     0.16764   0.16646   0.33652   0.00000  Uiso   1.00
C9     C     0.19739   0.13911   0.40768   0.00000  Uiso   1.00
C10    C     0.13630   0.19458   0.09230   0.00000  Uiso   1.00
C11    C     0.16860   0.16606   0.38424   0.00000  Uiso   1.00
C12    C     0.24671   0.16667   0.25005   0.00000  Uiso   1.00
C13    C     0.16490   0.16739   0.11576   0.00000  Uiso   1.00
C14    C     0.14031   0.19366   0.40613   0.00000  Uiso   1.00
C15    C     0.19339   0.14005   0.09387   0.00000  Uiso   1.00
C16    C     0.13927   0.19459   0.45239   0.00000  Uiso   1.00
C17    C     0.19498   0.13977   0.04761   0.00000  Uiso   1.00
C18    C     0.16759   0.16714   0.47667   0.00000  Uiso   1.00
C19    C     0.16663   0.16719   0.02332   0.00000  Uiso   1.00
C20    C     0.19683   0.13955   0.45428   0.00000  Uiso   1.00
C21    C     0.13719   0.19454   0.04571   0.00000  Uiso   1.00
C22    C     0.11021   0.22204   0.47468   0.00000  Uiso   1.00
C23    C     0.10934   0.22157   0.02120   0.00000  Uiso   1.00
C24    C     0.22431   0.11268   0.02532   0.00000  Uiso   1.00
C25    C     0.22487   0.11276   0.47879   0.00000  Uiso   1.00
C26    C     0.02128   0.12631   0.24141   0.00000  Uiso   1.00
C27    C     0.31206   0.20703   0.25856   0.00000  Uiso   1.00
C28    C     0.31199   0.12631   0.24150   0.00000  Uiso   1.00
C29    C     0.02134   0.20703   0.25847   0.00000  Uiso   1.00
C30    C     0.29086   0.16667   0.25006   0.00000  Uiso   1.00
H31    H     0.11864   0.21380   0.38656   0.00000  Uiso   1.00
H32    H     0.11460   0.29149   0.20681   0.00000  Uiso   1.00
H33    H     0.11466   0.04248   0.20671   0.00000  Uiso   1.00
H34    H     0.21867   0.29085   0.29329   0.00000  Uiso   1.00
H35    H     0.21279   0.08648   0.36746   0.00000  Uiso   1.00
H36    H     0.24387   0.13305   0.36190   0.00000  Uiso   1.00
H37    H     0.08953   0.20020   0.13780   0.00000  Uiso   1.00
H38    H     0.12051   0.24691   0.13274   0.00000  Uiso   1.00
H39    H     0.09871   0.27713   0.43642   0.00000  Uiso   1.00
H40    H     0.05954   0.26450   0.47129   0.00000  Uiso   1.00
H41    H     0.27532   0.10695   0.06416   0.00000  Uiso   1.00
H42    H     0.21473   0.11949   0.11346   0.00000  Uiso   1.00
H43    H     0.26982   0.06376   0.02862   0.00000  Uiso   1.00
H44    H     0.08693   0.24278   0.03808   0.00000  Uiso   1.00
H45    H     0.24743   0.09172   0.46190   0.00000  Uiso   1.00
H46    H     0.03748   0.09496   0.23446   0.00000  Uiso   1.00
H47    H     0.29585   0.23838   0.26551   0.00000  Uiso   1.00
H48    H     0.29574   0.09495   0.23461   0.00000  Uiso   1.00
H49    H     0.03759   0.23839   0.26536   0.00000  Uiso   1.00
H50    H     0.21873   0.04185   0.29320   0.00000  Uiso   1.00
N51    N     0.16667   0.28573   0.25000   0.00000  Uiso   1.00
N52    N     0.16667   0.04760   0.25000   0.00000  Uiso   1.00
N53    N     0.22790   0.11238   0.38466   0.00000  Uiso   1.00
N54    N     0.10559   0.22107   0.11528   0.00000  Uiso   1.00
N55    N     0.08162   0.25020   0.45000   0.00000  Uiso   1.00
N56    N     0.25341   0.08514   0.05000   0.00000  Uiso   1.00
O57    O     0.10559   0.20487   0.25000   0.00000  Uiso   1.00
O58    O     0.22774   0.12846   0.25001   0.00000  Uiso   1.00
O59    O     0.22774   0.20487   0.25001   0.00000  Uiso   1.00
O60    O     0.10559   0.12846   0.25000   0.00000  Uiso   1.00
O61    O     0.16666   0.20489   0.18393   0.00000  Uiso   1.00
O62    O     0.16667   0.12844   0.31608   0.00000  Uiso   1.00
O63    O     0.16667   0.20489   0.31608   0.00000  Uiso   1.00
O64    O     0.16666   0.12844   0.18393   0.00000  Uiso   1.00
Zn65   Zn    0.16667   0.21771   0.25000   0.00000  Uiso   1.00
Zn66   Zn    0.16667   0.11563   0.25000   0.00000  Uiso   1.00
C67    C     0.41996   0.16666   0.24994   0.00000  Uiso   1.00
C68    C     0.37581   0.16667   0.24992   0.00000  Uiso   1.00
C69    C     0.52892   0.02381   0.27404   0.00000  Uiso   1.00
C70    C     0.47108   0.30952   0.22597   0.00000  Uiso   1.00
C71    C     0.47109   0.02416   0.22595   0.00000  Uiso   1.00
C72    C     0.52890   0.30917   0.27405   0.00000  Uiso   1.00
C73    C     0.49902   0.16689   0.16349   0.00000  Uiso   1.00
C74    C     0.50097   0.16646   0.33652   0.00000  Uiso   1.00
C75    C     0.53072   0.13911   0.40768   0.00000  Uiso   1.00
C76    C     0.46964   0.19458   0.09230   0.00000  Uiso   1.00
C77    C     0.50193   0.16606   0.38424   0.00000  Uiso   1.00
C78    C     0.58004   0.16667   0.25005   0.00000  Uiso   1.00
C79    C     0.49823   0.16739   0.11576   0.00000  Uiso   1.00
C80    C     0.47365   0.19366   0.40613   0.00000  Uiso   1.00
C81    C     0.52673   0.14005   0.09387   0.00000  Uiso   1.00
C82    C     0.47260   0.19459   0.45239   0.00000  Uiso   1.00
C83    C     0.52831   0.13977   0.04761   0.00000  Uiso   1.00
C84    C     0.50092   0.16714   0.47667   0.00000  Uiso   1.00
C85    C     0.49996   0.16719   0.02332   0.00000  Uiso   1.00
C86    C     0.53017   0.13955   0.45428   0.00000  Uiso   1.00
C87    C     0.47052   0.19454   0.04571   0.00000  Uiso   1.00
C88    C     0.44354   0.22204   0.47468   0.00000  Uiso   1.00
C89    C     0.44268   0.22157   0.02120   0.00000  Uiso   1.00
C90    C     0.55765   0.11268   0.02532   0.00000  Uiso   1.00
C91    C     0.55820   0.11276   0.47879   0.00000  Uiso   1.00
C92    C     0.35461   0.12631   0.24141   0.00000  Uiso   1.00
C93    C     0.64539   0.20703   0.25856   0.00000  Uiso   1.00
C94    C     0.64533   0.12631   0.24150   0.00000  Uiso   1.00
C95    C     0.35467   0.20703   0.25847   0.00000  Uiso   1.00
C96    C     0.62419   0.16667   0.25006   0.00000  Uiso   1.00
H97    H     0.45197   0.21380   0.38656   0.00000  Uiso   1.00
H98    H     0.44793   0.29149   0.20681   0.00000  Uiso   1.00
H99    H     0.44800   0.04248   0.20671   0.00000  Uiso   1.00
H100   H     0.55200   0.29085   0.29329   0.00000  Uiso   1.00
H101   H     0.54613   0.08648   0.36746   0.00000  Uiso   1.00
H102   H     0.57720   0.13305   0.36190   0.00000  Uiso   1.00
H103   H     0.42287   0.20020   0.13780   0.00000  Uiso   1.00
H104   H     0.45385   0.24691   0.13274   0.00000  Uiso   1.00
H105   H     0.43204   0.27713   0.43642   0.00000  Uiso   1.00
H106   H     0.39287   0.26450   0.47129   0.00000  Uiso   1.00
H107   H     0.60866   0.10695   0.06416   0.00000  Uiso   1.00
H108   H     0.54806   0.11949   0.11346   0.00000  Uiso   1.00
H109   H     0.60315   0.06376   0.02862   0.00000  Uiso   1.00
H110   H     0.42026   0.24278   0.03808   0.00000  Uiso   1.00
H111   H     0.58076   0.09172   0.46190   0.00000  Uiso   1.00
H112   H     0.37081   0.09496   0.23446   0.00000  Uiso   1.00
H113   H     0.62919   0.23838   0.26551   0.00000  Uiso   1.00
H114   H     0.62907   0.09495   0.23461   0.00000  Uiso   1.00
H115   H     0.37093   0.23839   0.26536   0.00000  Uiso   1.00
H116   H     0.55206   0.04185   0.29320   0.00000  Uiso   1.00
N117   N     0.50000   0.28573   0.25000   0.00000  Uiso   1.00
N118   N     0.50000   0.04760   0.25000   0.00000  Uiso   1.00
N119   N     0.56123   0.11238   0.38466   0.00000  Uiso   1.00
N120   N     0.43892   0.22107   0.11528   0.00000  Uiso   1.00
N121   N     0.41496   0.25020   0.45000   0.00000  Uiso   1.00
N122   N     0.58674   0.08514   0.05000   0.00000  Uiso   1.00
O123   O     0.43892   0.20487   0.25000   0.00000  Uiso   1.00
O124   O     0.56108   0.12846   0.25001   0.00000  Uiso   1.00
O125   O     0.56108   0.20487   0.25001   0.00000  Uiso   1.00
O126   O     0.43892   0.12846   0.25000   0.00000  Uiso   1.00
O127   O     0.49999   0.20489   0.18393   0.00000  Uiso   1.00
O128   O     0.50001   0.12844   0.31608   0.00000  Uiso   1.00
O129   O     0.50001   0.20489   0.31608   0.00000  Uiso   1.00
O130   O     0.49999   0.12844   0.18393   0.00000  Uiso   1.00
Zn131  Zn    0.50000   0.21771   0.25000   0.00000  Uiso   1.00
Zn132  Zn    0.50000   0.11563   0.25000   0.00000  Uiso   1.00
C133   C     0.75329   0.16666   0.24994   0.00000  Uiso   1.00
C134   C     0.70914   0.16667   0.24992   0.00000  Uiso   1.00
C135   C     0.86225   0.02381   0.27404   0.00000  Uiso   1.00
C136   C     0.80442   0.30952   0.22597   0.00000  Uiso   1.00
C137   C     0.80443   0.02416   0.22595   0.00000  Uiso   1.00
C138   C     0.86224   0.30917   0.27405   0.00000  Uiso   1.00
C139   C     0.83235   0.16689   0.16349   0.00000  Uiso   1.00
C140   C     0.83430   0.16646   0.33652   0.00000  Uiso   1.00
C141   C     0.86406   0.13911   0.40768   0.00000  Uiso   1.00
C142   C     0.80297   0.19458   0.09230   0.00000  Uiso   1.00
C143   C     0.83526   0.16606   0.38424   0.00000  Uiso   1.00
C144   C     0.91338   0.16667   0.25005   0.00000  Uiso   1.00
C145   C     0.83156   0.16739   0.11576   0.00000  Uiso   1.00
C146   C     0.80698   0.19366   0.40613   0.00000  Uiso   1.00
C147   C     0.86006   0.14005   0.09387   0.00000  Uiso   1.00
C148   C     0.80593   0.19459   0.45239   0.00000  Uiso   1.00
C149   C     0.86164   0.13977   0.04761   0.00000  Uiso   1.00
C150   C     0.83425   0.16714   0.47667   0.00000  Uiso   1.00
C151   C     0.83330   0.16719   0.02332   0.00000  Uiso   1.00
C152   C     0.86350   0.13955   0.45428   0.00000  Uiso   1.00
C153   C     0.80386   0.19454   0.04571   0.00000  Uiso   1.00
C154   C     0.77688   0.22204   0.47468   0.00000  Uiso   1.00
C155   C     0.77601   0.22157   0.02120   0.00000  Uiso   1.00
C156   C     0.89098   0.11268   0.02532   0.00000  Uiso   1.00
C157   C     0.89153   0.11276   0.47879   0.00000  Uiso   1.00
C158   C     0.68794   0.12631   0.24141   0.00000  Uiso   1.00
C159   C     0.97872   0.20703   0.25856   0.00000  Uiso   1.00
C160   C     0.97866   0.12631   0.24150   0.00000  Uiso   1.00
C161   C     0.68801   0.20703   0.25847   0.00000  Uiso   1.00
C162   C     0.95752   0.16667   0.25006   0.00000  Uiso   1.00
H163   H     0.78531   0.21380   0.38656   0.00000  Uiso   1.00
H164   H     0.78127   0.29149   0.20681   0.00000  Uiso   1.00
H165   H     0.78133   0.04248   0.20671   0.00000  Uiso   1.00
H166   H     0.88534   0.29085   0.29329   0.00000  Uiso   1.00
H167   H     0.87946   0.08648   0.36746   0.00000  Uiso   1.00
H168   H     0.91054   0.13305   0.36190   0.00000  Uiso   1.00
H169   H     0.75620   0.20020   0.13780   0.00000  Uiso   1.00
H170   H     0.78718   0.24691   0.13274   0.00000  Uiso   1.00
H171   H     0.76537   0.27713   0.43642   0.00000  Uiso   1.00
H172   H     0.72621   0.26450   0.47129   0.00000  Uiso   1.00
H173   H     0.94199   0.10695   0.06416   0.00000  Uiso   1.00
H174   H     0.88139   0.11949   0.11346   0.00000  Uiso   1.00
H175   H     0.93649   0.06376   0.02862   0.00000  Uiso   1.00
H176   H     0.75359   0.24278   0.03808   0.00000  Uiso   1.00
H177   H     0.91409   0.09172   0.46190   0.00000  Uiso   1.00
H178   H     0.70415   0.09496   0.23446   0.00000  Uiso   1.00
H179   H     0.96252   0.23838   0.26551   0.00000  Uiso   1.00
H180   H     0.96240   0.09495   0.23461   0.00000  Uiso   1.00
H181   H     0.70426   0.23839   0.26536   0.00000  Uiso   1.00
H182   H     0.88539   0.04185   0.29320   0.00000  Uiso   1.00
N183   N     0.83333   0.28573   0.25000   0.00000  Uiso   1.00
N184   N     0.83333   0.04760   0.25000   0.00000  Uiso   1.00
N185   N     0.89456   0.11238   0.38466   0.00000  Uiso   1.00
N186   N     0.77225   0.22107   0.11528   0.00000  Uiso   1.00
N187   N     0.74829   0.25020   0.45000   0.00000  Uiso   1.00
N188   N     0.92008   0.08514   0.05000   0.00000  Uiso   1.00
O189   O     0.77226   0.20487   0.25000   0.00000  Uiso   1.00
O190   O     0.89441   0.12846   0.25001   0.00000  Uiso   1.00
O191   O     0.89441   0.20487   0.25001   0.00000  Uiso   1.00
O192   O     0.77226   0.12846   0.25000   0.00000  Uiso   1.00
O193   O     0.83333   0.20489   0.18393   0.00000  Uiso   1.00
O194   O     0.83334   0.12844   0.31608   0.00000  Uiso   1.00
O195   O     0.83334   0.20489   0.31608   0.00000  Uiso   1.00
O196   O     0.83333   0.12844   0.18393   0.00000  Uiso   1.00
Zn197  Zn    0.83333   0.21771   0.25000   0.00000  Uiso   1.00
Zn198  Zn    0.83333   0.11563   0.25000   0.00000  Uiso   1.00
C199   C     0.08662   0.50000   0.24994   0.00000  Uiso   1.00
C200   C     0.04248   0.50000   0.24992   0.00000  Uiso   1.00
C201   C     0.19558   0.35714   0.27404   0.00000  Uiso   1.00
C202   C     0.13775   0.64286   0.22597   0.00000  Uiso   1.00
C203   C     0.13776   0.35749   0.22595   0.00000  Uiso   1.00
C204   C     0.19557   0.64251   0.27405   0.00000  Uiso   1.00
C205   C     0.16569   0.50022   0.16349   0.00000  Uiso   1.00
C206   C     0.16764   0.49979   0.33652   0.00000  Uiso   1.00
C207   C     0.19739   0.47244   0.40768   0.00000  Uiso   1.00
C208   C     0.13630   0.52792   0.09230   0.00000  Uiso   1.00
C209   C     0.16860   0.49939   0.38424   0.00000  Uiso   1.00
C210   C     0.24671   0.50000   0.25005   0.00000  Uiso   1.00
C211   C     0.16490   0.50073   0.11576   0.00000  Uiso   1.00
C212   C     0.14031   0.52699   0.40613   0.00000  Uiso   1.00
C213   C     0.19339   0.47338   0.09387   0.00000  Uiso   1.00
C214   C     0.13927   0.52793   0.45239   0.00000  Uiso   1.00
C215   C     0.19498   0.47310   0.04761   0.00000  Uiso   1.00
C216   C     0.16759   0.50047   0.47667   0.00000  Uiso   1.00
C217   C     0.16663   0.50052   0.02332   0.00000  Uiso   1.00
C218   C     0.19683   0.47288   0.45428   0.00000  Uiso   1.00
C219   C     0.13719   0.52788   0.04571   0.00000  Uiso   1.00
C220   C     0.11021   0.55537   0.47468   0.00000  Uiso   1.00
C221   C     0.10934   0.55490   0.02120   0.00000  Uiso   1.00
C222   C     0.22431   0.44601   0.02532   0.00000  Uiso   1.00
C223   C     0.22487   0.44609   0.47879   0.00000  Uiso   1.00
C224   C     0.02128   0.45964   0.24141   0.00000  Uiso   1.00
C225   C     0.31206   0.54036   0.25856   0.00000  Uiso   1.00
C226   C     0.31199   0.45964   0.24150   0.00000  Uiso   1.00
C227   C     0.02134   0.54036   0.25847   0.00000  Uiso   1.00
C228   C     0.29086   0.50000   0.25006   0.00000  Uiso   1.00
H229   H     0.11864   0.54714   0.38656   0.00000  Uiso   1.00
H230   H     0.11460   0.62482   0.20681   0.00000  Uiso   1.00
H231   H     0.11466   0.37581   0.20671   0.00000  Uiso   1.00
H232   H     0.21867   0.62419   0.29329   0.00000  Uiso   1.00
H233   H     0.21279   0.41981   0.36746   0.00000  Uiso   1.00
H234   H     0.24387   0.46638   0.36190   0.00000  Uiso   1.00
H235   H     0.08953   0.53354   0.13780   0.00000  Uiso   1.00
H236   H     0.12051   0.58024   0.13274   0.00000  Uiso   1.00
H237   H     0.09871   0.61046   0.43642   0.00000  Uiso   1.00
H238   H     0.05954   0.59783   0.47129   0.00000  Uiso   1.00
H239   H     0.27532   0.44028   0.06416   0.00000  Uiso   1.00
H240   H     0.21473   0.45283   0.11346   0.00000  Uiso   1.00
H241   H     0.26982   0.39709   0.02862   0.00000  Uiso   1.00
H242   H     0.08693   0.57612   0.03808   0.00000  Uiso   1.00
H243   H     0.24743   0.42505   0.46190   0.00000  Uiso   1.00
H244   H     0.03748   0.42829   0.23446   0.00000  Uiso   1.00
H245   H     0.29585   0.57171   0.26551   0.00000  Uiso   1.00
H246   H     0.29574   0.42828   0.23461   0.00000  Uiso   1.00
H247   H     0.03759   0.57172   0.26536   0.00000  Uiso   1.00
H248   H     0.21873   0.37518   0.29320   0.00000  Uiso   1.00
N249   N     0.16667   0.61907   0.25000   0.00000  Uiso   1.00
N250   N     0.16667   0.38093   0.25000   0.00000  Uiso   1.00
N251   N     0.22790   0.44571   0.38466   0.00000  Uiso   1.00
N252   N     0.10559   0.55440   0.11528   0.00000  Uiso   1.00
N253   N     0.08162   0.58354   0.45000   0.00000  Uiso   1.00
N254   N     0.25341   0.41848   0.05000   0.00000  Uiso   1.00
O255   O     0.10559   0.53821   0.25000   0.00000  Uiso   1.00
O256   O     0.22774   0.46179   0.25001   0.00000  Uiso   1.00
O257   O     0.22774   0.53821   0.25001   0.00000  Uiso   1.00
O258   O     0.10559   0.46179   0.25000   0.00000  Uiso   1.00
O259   O     0.16666   0.53823   0.18393   0.00000  Uiso   1.00
O260   O     0.16667   0.46177   0.31608   0.00000  Uiso   1.00
O261   O     0.16667   0.53823   0.31608   0.00000  Uiso   1.00
O262   O     0.16666   0.46177   0.18393   0.00000  Uiso   1.00
Zn263  Zn    0.16667   0.55104   0.25000   0.00000  Uiso   1.00
Zn264  Zn    0.16667   0.44896   0.25000   0.00000  Uiso   1.00
C265   C     0.41996   0.50000   0.24994   0.00000  Uiso   1.00
C266   C     0.37581   0.50000   0.24992   0.00000  Uiso   1.00
C267   C     0.52892   0.35714   0.27404   0.00000  Uiso   1.00
C268   C     0.47108   0.64286   0.22597   0.00000  Uiso   1.00
C269   C     0.47109   0.35749   0.22595   0.00000  Uiso   1.00
C270   C     0.52890   0.64251   0.27405   0.00000  Uiso   1.00
C271   C     0.49902   0.50022   0.16349   0.00000  Uiso   1.00
C272   C     0.50097   0.49979   0.33652   0.00000  Uiso   1.00
C273   C     0.53072   0.47244   0.40768   0.00000  Uiso   1.00
C274   C     0.46964   0.52792   0.09230   0.00000  Uiso   1.00
C275   C     0.50193   0.49939   0.38424   0.00000  Uiso   1.00
C276   C     0.58004   0.50000   0.25005   0.00000  Uiso   1.00
C277   C     0.49823   0.50073   0.11576   0.00000  Uiso   1.00
C278   C     0.47365   0.52699   0.40613   0.00000  Uiso   1.00
C279   C     0.52673   0.47338   0.09387   0.00000  Uiso   1.00
C280   C     0.47260   0.52793   0.45239   0.00000  Uiso   1.00
C281   C     0.52831   0.47310   0.04761   0.00000  Uiso   1.00
C282   C     0.50092   0.50047   0.47667   0.00000  Uiso   1.00
C283   C     0.49996   0.50052   0.02332   0.00000  Uiso   1.00
C284   C     0.53017   0.47288   0.45428   0.00000  Uiso   1.00
C285   C     0.47052   0.52788   0.04571   0.00000  Uiso   1.00
C286   C     0.44354   0.55537   0.47468   0.00000  Uiso   1.00
C287   C     0.44268   0.55490   0.02120   0.00000  Uiso   1.00
C288   C     0.55765   0.44601   0.02532   0.00000  Uiso   1.00
C289   C     0.55820   0.44609   0.47879   0.00000  Uiso   1.00
C290   C     0.35461   0.45964   0.24141   0.00000  Uiso   1.00
C291   C     0.64539   0.54036   0.25856   0.00000  Uiso   1.00
C292   C     0.64533   0.45964   0.24150   0.00000  Uiso   1.00
C293   C     0.35467   0.54036   0.25847   0.00000  Uiso   1.00
C294   C     0.62419   0.50000   0.25006   0.00000  Uiso   1.00
H295   H     0.45197   0.54714   0.38656   0.00000  Uiso   1.00
H296   H     0.44793   0.62482   0.20681   0.00000  Uiso   1.00
H297   H     0.44800   0.37581   0.20671   0.00000  Uiso   1.00
H298   H     0.55200   0.62419   0.29329   0.00000  Uiso   1.00
H299   H     0.54613   0.41981   0.36746   0.00000  Uiso   1.00
H300   H     0.57720   0.46638   0.36190   0.00000  Uiso   1.00
H301   H     0.42287   0.53354   0.13780   0.00000  Uiso   1.00
H302   H     0.45385   0.58024   0.13274   0.00000  Uiso   1.00
H303   H     0.43204   0.61046   0.43642   0.00000  Uiso   1.00
H304   H     0.39287   0.59783   0.47129   0.00000  Uiso   1.00
H305   H     0.60866   0.44028   0.06416   0.00000  Uiso   1.00
H306   H     0.54806   0.45283   0.11346   0.00000  Uiso   1.00
H307   H     0.60315   0.39709   0.02862   0.00000  Uiso   1.00
H308   H     0.42026   0.57612   0.03808   0.00000  Uiso   1.00
H309   H     0.58076   0.42505   0.46190   0.00000  Uiso   1.00
H310   H     0.37081   0.42829   0.23446   0.00000  Uiso   1.00
H311   H     0.62919   0.57171   0.26551   0.00000  Uiso   1.00
H312   H     0.62907   0.42828   0.23461   0.00000  Uiso   1.00
H313   H     0.37093   0.57172   0.26536   0.00000  Uiso   1.00
H314   H     0.55206   0.37518   0.29320   0.00000  Uiso   1.00
N315   N     0.50000   0.61907   0.25000   0.00000  Uiso   1.00
N316   N     0.50000   0.38093   0.25000   0.00000  Uiso   1.00
N317   N     0.56123   0.44571   0.38466   0.00000  Uiso   1.00
N318   N     0.43892   0.55440   0.11528   0.00000  Uiso   1.00
N319   N     0.41496   0.58354   0.45000   0.00000  Uiso   1.00
N320   N     0.58674   0.41848   0.05000   0.00000  Uiso   1.00
O321   O     0.43892   0.53821   0.25000   0.00000  Uiso   1.00
O322   O     0.56108   0.46179   0.25001   0.00000  Uiso   1.00
O323   O     0.56108   0.53821   0.25001   0.00000  Uiso   1.00
O324   O     0.43892   0.46179   0.25000   0.00000  Uiso   1.00
O325   O     0.49999   0.53823   0.18393   0.00000  Uiso   1.00
O326   O     0.50001   0.46177   0.31608   0.00000  Uiso   1.00
O327   O     0.50001   0.53823   0.31608   0.00000  Uiso   1.00
O328   O     0.49999   0.46177   0.18393   0.00000  Uiso   1.00
Zn329  Zn    0.50000   0.55104   0.25000   0.00000  Uiso   1.00
Zn330  Zn    0.50000   0.44896   0.25000   0.00000  Uiso   1.00
C331   C     0.75329   0.50000   0.24994   0.00000  Uiso   1.00
C332   C     0.70914   0.50000   0.24992   0.00000  Uiso   1.00
C333   C     0.86225   0.35714   0.27404   0.00000  Uiso   1.00
C334   C     0.80442   0.64286   0.22597   0.00000  Uiso   1.00
C335   C     0.80443   0.35749   0.22595   0.00000  Uiso   1.00
C336   C     0.86224   0.64251   0.27405   0.00000  Uiso   1.00
C337   C     0.83235   0.50022   0.16349   0.00000  Uiso   1.00
C338   C     0.83430   0.49979   0.33652   0.00000  Uiso   1.00
C339   C     0.86406   0.47244   0.40768   0.00000  Uiso   1.00
C340   C     0.80297   0.52792   0.09230   0.00000  Uiso   1.00
C341   C     0.83526   0.49939   0.38424   0.00000  Uiso   1.00
C342   C     0.91338   0.50000   0.25005   0.00000  Uiso   1.00
C343   C     0.83156   0.50073   0.11576   0.00000  Uiso   1.00
C344   C     0.80698   0.52699   0.40613   0.00000  Uiso   1.00
C345   C     0.86006   0.47338   0.09387   0.00000  Uiso   1.00
C346   C     0.80593   0.52793   0.45239   0.00000  Uiso   1.00
C347   C     0.86164   0.47310   0.04761   0.00000  Uiso   1.00
C348   C     0.83425   0.50047   0.47667   0.00000  Uiso   1.00
C349   C     0.83330   0.50052   0.02332   0.00000  Uiso   1.00
C350   C     0.86350   0.47288   0.45428   0.00000  Uiso   1.00
C351   C     0.80386   0.52788   0.04571   0.00000  Uiso   1.00
C352   C     0.77688   0.55537   0.47468   0.00000  Uiso   1.00
C353   C     0.77601   0.55490   0.02120   0.00000  Uiso   1.00
C354   C     0.89098   0.44601   0.02532   0.00000  Uiso   1.00
C355   C     0.89153   0.44609   0.47879   0.00000  Uiso   1.00
C356   C     0.68794   0.45964   0.24141   0.00000  Uiso   1.00
C357   C     0.97872   0.54036   0.25856   0.00000  Uiso   1.00
C358   C     0.97866   0.45964   0.24150   0.00000  Uiso   1.00
C359   C     0.68801   0.54036   0.25847   0.00000  Uiso   1.00
C360   C     0.95752   0.50000   0.25006   0.00000  Uiso   1.00
H361   H     0.78531   0.54714   0.38656   0.00000  Uiso   1.00
H362   H     0.78127   0.62482   0.20681   0.00000  Uiso   1.00
H363   H     0.78133   0.37581   0.20671   0.00000  Uiso   1.00
H364   H     0.88534   0.62419   0.29329   0.00000  Uiso   1.00
H365   H     0.87946   0.41981   0.36746   0.00000  Uiso   1.00
H366   H     0.91054   0.46638   0.36190   0.00000  Uiso   1.00
H367   H     0.75620   0.53354   0.13780   0.00000  Uiso   1.00
H368   H     0.78718   0.58024   0.13274   0.00000  Uiso   1.00
H369   H     0.76537   0.61046   0.43642   0.00000  Uiso   1.00
H370   H     0.72621   0.59783   0.47129   0.00000  Uiso   1.00
H371   H     0.94199   0.44028   0.06416   0.00000  Uiso   1.00
H372   H     0.88139   0.45283   0.11346   0.00000  Uiso   1.00
H373   H     0.93649   0.39709   0.02862   0.00000  Uiso   1.00
H374   H     0.75359   0.57612   0.03808   0.00000  Uiso   1.00
H375   H     0.91409   0.42505   0.46190   0.00000  Uiso   1.00
H376   H     0.70415   0.42829   0.23446   0.00000  Uiso   1.00
H377   H     0.96252   0.57171   0.26551   0.00000  Uiso   1.00
H378   H     0.96240   0.42828   0.23461   0.00000  Uiso   1.00
H379   H     0.70426   0.57172   0.26536   0.00000  Uiso   1.00
H380   H     0.88539   0.37518   0.29320   0.00000  Uiso   1.00
N381   N     0.83333   0.61907   0.25000   0.00000  Uiso   1.00
N382   N     0.83333   0.38093   0.25000   0.00000  Uiso   1.00
N383   N     0.89456   0.44571   0.38466   0.00000  Uiso   1.00
N384   N     0.77225   0.55440   0.11528   0.00000  Uiso   1.00
N385   N     0.74829   0.58354   0.45000   0.00000  Uiso   1.00
N386   N     0.92008   0.41848   0.05000   0.00000  Uiso   1.00
O387   O     0.77226   0.53821   0.25000   0.00000  Uiso   1.00
O388   O     0.89441   0.46179   0.25001   0.00000  Uiso   1.00
O389   O     0.89441   0.53821   0.25001   0.00000  Uiso   1.00
O390   O     0.77226   0.46179   0.25000   0.00000  Uiso   1.00
O391   O     0.83333   0.53823   0.18393   0.00000  Uiso   1.00
O392   O     0.83334   0.46177   0.31608   0.00000  Uiso   1.00
O393   O     0.83334   0.53823   0.31608   0.00000  Uiso   1.00
O394   O     0.83333   0.46177   0.18393   0.00000  Uiso   1.00
Zn395  Zn    0.83333   0.55104   0.25000   0.00000  Uiso   1.00
Zn396  Zn    0.83333   0.44896   0.25000   0.00000  Uiso   1.00
C397   C     0.08662   0.83333   0.24994   0.00000  Uiso   1.00
C398   C     0.04248   0.83334   0.24992   0.00000  Uiso   1.00
C399   C     0.19558   0.69048   0.27404   0.00000  Uiso   1.00
C400   C     0.13775   0.97619   0.22597   0.00000  Uiso   1.00
C401   C     0.13776   0.69083   0.22595   0.00000  Uiso   1.00
C402   C     0.19557   0.97584   0.27405   0.00000  Uiso   1.00
C403   C     0.16569   0.83355   0.16349   0.00000  Uiso   1.00
C404   C     0.16764   0.83312   0.33652   0.00000  Uiso   1.00
C405   C     0.19739   0.80578   0.40768   0.00000  Uiso   1.00
C406   C     0.13630   0.86125   0.09230   0.00000  Uiso   1.00
C407   C     0.16860   0.83273   0.38424   0.00000  Uiso   1.00
C408   C     0.24671   0.83334   0.25005   0.00000  Uiso   1.00
C409   C     0.16490   0.83406   0.11576   0.00000  Uiso   1.00
C410   C     0.14031   0.86033   0.40613   0.00000  Uiso   1.00
C411   C     0.19339   0.80671   0.09387   0.00000  Uiso   1.00
C412   C     0.13927   0.86126   0.45239   0.00000  Uiso   1.00
C413   C     0.19498   0.80644   0.04761   0.00000  Uiso   1.00
C414   C     0.16759   0.83380   0.47667   0.00000  Uiso   1.00
C415   C     0.16663   0.83386   0.02332   0.00000  Uiso   1.00
C416   C     0.19683   0.80622   0.45428   0.00000  Uiso   1.00
C417   C     0.13719   0.86121   0.04571   0.00000  Uiso   1.00
C418   C     0.11021   0.88870   0.47468   0.00000  Uiso   1.00
C419   C     0.10934   0.88824   0.02120   0.00000  Uiso   1.00
C420   C     0.22431   0.77934   0.02532   0.00000  Uiso   1.00
C421   C     0.22487   0.77942   0.47879   0.00000  Uiso   1.00
C422   C     0.02128   0.79298   0.24141   0.00000  Uiso   1.00
C423   C     0.31206   0.87369   0.25856   0.00000  Uiso   1.00
C424   C     0.31199   0.79297   0.24150   0.00000  Uiso   1.00
C425   C     0.02134   0.87370   0.25847   0.00000  Uiso   1.00
C426   C     0.29086   0.83333   0.25006   0.00000  Uiso   1.00
H427   H     0.11864   0.88047   0.38656   0.00000  Uiso   1.00
H428   H     0.11460   0.95816   0.20681   0.00000  Uiso   1.00
H429   H     0.11466   0.70915   0.20671   0.00000  Uiso   1.00
H430   H     0.21867   0.95752   0.29329   0.00000  Uiso   1.00
H431   H     0.21279   0.75315   0.36746   0.00000  Uiso   1.00
H432   H     0.24387   0.79972   0.36190   0.00000  Uiso   1.00
H433   H     0.08953   0.86687   0.13780   0.00000  Uiso   1.00
H434   H     0.12051   0.91358   0.13274   0.00000  Uiso   1.00
H435   H     0.09871   0.94380   0.43642   0.00000  Uiso   1.00
H436   H     0.05954   0.93116   0.47129   0.00000  Uiso   1.00
H437   H     0.27532   0.77362   0.06416   0.00000  Uiso   1.00
H438   H     0.21473   0.78616   0.11346   0.00000  Uiso   1.00
H439   H     0.26982   0.73043   0.02862   0.00000  Uiso   1.00
H440   H     0.08693   0.90945   0.03808   0.00000  Uiso   1.00
H441   H     0.24743   0.75839   0.46190   0.00000  Uiso   1.00
H442   H     0.03748   0.76163   0.23446   0.00000  Uiso   1.00
H443   H     0.29585   0.90504   0.26551   0.00000  Uiso   1.00
H444   H     0.29574   0.76161   0.23461   0.00000  Uiso   1.00
H445   H     0.03759   0.90506   0.26536   0.00000  Uiso   1.00
H446   H     0.21873   0.70851   0.29320   0.00000  Uiso   1.00
N447   N     0.16667   0.95240   0.25000   0.00000  Uiso   1.00
N448   N     0.16667   0.71427   0.25000   0.00000  Uiso   1.00
N449   N     0.22790   0.77905   0.38466   0.00000  Uiso   1.00
N450   N     0.10559   0.88773   0.11528   0.00000  Uiso   1.00
N451   N     0.08162   0.91687   0.45000   0.00000  Uiso   1.00
N452   N     0.25341   0.75181   0.05000   0.00000  Uiso   1.00
O453   O     0.10559   0.87154   0.25000   0.00000  Uiso   1.00
O454   O     0.22774   0.79513   0.25001   0.00000  Uiso   1.00
O455   O     0.22774   0.87154   0.25001   0.00000  Uiso   1.00
O456   O     0.10559   0.79513   0.25000   0.00000  Uiso   1.00
O457   O     0.16666   0.87156   0.18393   0.00000  Uiso   1.00
O458   O     0.16667   0.79511   0.31608   0.00000  Uiso   1.00
O459   O     0.16667   0.87156   0.31608   0.00000  Uiso   1.00
O460   O     0.16666   0.79511   0.18393   0.00000  Uiso   1.00
Zn461  Zn    0.16667   0.88437   0.25000   0.00000  Uiso   1.00
Zn462  Zn    0.16667   0.78229   0.25000   0.00000  Uiso   1.00
C463   C     0.41996   0.83333   0.24994   0.00000  Uiso   1.00
C464   C     0.37581   0.83334   0.24992   0.00000  Uiso   1.00
C465   C     0.52892   0.69048   0.27404   0.00000  Uiso   1.00
C466   C     0.47108   0.97619   0.22597   0.00000  Uiso   1.00
C467   C     0.47109   0.69083   0.22595   0.00000  Uiso   1.00
C468   C     0.52890   0.97584   0.27405   0.00000  Uiso   1.00
C469   C     0.49902   0.83355   0.16349   0.00000  Uiso   1.00
C470   C     0.50097   0.83312   0.33652   0.00000  Uiso   1.00
C471   C     0.53072   0.80578   0.40768   0.00000  Uiso   1.00
C472   C     0.46964   0.86125   0.09230   0.00000  Uiso   1.00
C473   C     0.50193   0.83273   0.38424   0.00000  Uiso   1.00
C474   C     0.58004   0.83334   0.25005   0.00000  Uiso   1.00
C475   C     0.49823   0.83406   0.11576   0.00000  Uiso   1.00
C476   C     0.47365   0.86033   0.40613   0.00000  Uiso   1.00
C477   C     0.52673   0.80671   0.09387   0.00000  Uiso   1.00
C478   C     0.47260   0.86126   0.45239   0.00000  Uiso   1.00
C479   C     0.52831   0.80644   0.04761   0.00000  Uiso   1.00
C480   C     0.50092   0.83380   0.47667   0.00000  Uiso   1.00
C481   C     0.49996   0.83386   0.02332   0.00000  Uiso   1.00
C482   C     0.53017   0.80622   0.45428   0.00000  Uiso   1.00
C483   C     0.47052   0.86121   0.04571   0.00000  Uiso   1.00
C484   C     0.44354   0.88870   0.47468   0.00000  Uiso   1.00
C485   C     0.44268   0.88824   0.02120   0.00000  Uiso   1.00
C486   C     0.55765   0.77934   0.02532   0.00000  Uiso   1.00
C487   C     0.55820   0.77942   0.47879   0.00000  Uiso   1.00
C488   C     0.35461   0.79298   0.24141   0.00000  Uiso   1.00
C489   C     0.64539   0.87369   0.25856   0.00000  Uiso   1.00
C490   C     0.64533   0.79297   0.24150   0.00000  Uiso   1.00
C491   C     0.35467   0.87370   0.25847   0.00000  Uiso   1.00
C492   C     0.62419   0.83333   0.25006   0.00000  Uiso   1.00
H493   H     0.45197   0.88047   0.38656   0.00000  Uiso   1.00
H494   H     0.44793   0.95816   0.20681   0.00000  Uiso   1.00
H495   H     0.44800   0.70915   0.20671   0.00000  Uiso   1.00
H496   H     0.55200   0.95752   0.29329   0.00000  Uiso   1.00
H497   H     0.54613   0.75315   0.36746   0.00000  Uiso   1.00
H498   H     0.57720   0.79972   0.36190   0.00000  Uiso   1.00
H499   H     0.42287   0.86687   0.13780   0.00000  Uiso   1.00
H500   H     0.45385   0.91358   0.13274   0.00000  Uiso   1.00
H501   H     0.43204   0.94380   0.43642   0.00000  Uiso   1.00
H502   H     0.39287   0.93116   0.47129   0.00000  Uiso   1.00
H503   H     0.60866   0.77362   0.06416   0.00000  Uiso   1.00
H504   H     0.54806   0.78616   0.11346   0.00000  Uiso   1.00
H505   H     0.60315   0.73043   0.02862   0.00000  Uiso   1.00
H506   H     0.42026   0.90945   0.03808   0.00000  Uiso   1.00
H507   H     0.58076   0.75839   0.46190   0.00000  Uiso   1.00
H508   H     0.37081   0.76163   0.23446   0.00000  Uiso   1.00
H509   H     0.62919   0.90504   0.26551   0.00000  Uiso   1.00
H510   H     0.62907   0.76161   0.23461   0.00000  Uiso   1.00
H511   H     0.37093   0.90506   0.26536   0.00000  Uiso   1.00
H512   H     0.55206   0.70851   0.29320   0.00000  Uiso   1.00
N513   N     0.50000   0.95240   0.25000   0.00000  Uiso   1.00
N514   N     0.50000   0.71427   0.25000   0.00000  Uiso   1.00
N515   N     0.56123   0.77905   0.38466   0.00000  Uiso   1.00
N516   N     0.43892   0.88773   0.11528   0.00000  Uiso   1.00
N517   N     0.41496   0.91687   0.45000   0.00000  Uiso   1.00
N518   N     0.58674   0.75181   0.05000   0.00000  Uiso   1.00
O519   O     0.43892   0.87154   0.25000   0.00000  Uiso   1.00
O520   O     0.56108   0.79513   0.25001   0.00000  Uiso   1.00
O521   O     0.56108   0.87154   0.25001   0.00000  Uiso   1.00
O522   O     0.43892   0.79513   0.25000   0.00000  Uiso   1.00
O523   O     0.49999   0.87156   0.18393   0.00000  Uiso   1.00
O524   O     0.50001   0.79511   0.31608   0.00000  Uiso   1.00
O525   O     0.50001   0.87156   0.31608   0.00000  Uiso   1.00
O526   O     0.49999   0.79511   0.18393   0.00000  Uiso   1.00
Zn527  Zn    0.50000   0.88437   0.25000   0.00000  Uiso   1.00
Zn528  Zn    0.50000   0.78229   0.25000   0.00000  Uiso   1.00
C529   C     0.75329   0.83333   0.24994   0.00000  Uiso   1.00
C530   C     0.70914   0.83334   0.24992   0.00000  Uiso   1.00
C531   C     0.86225   0.69048   0.27404   0.00000  Uiso   1.00
C532   C     0.80442   0.97619   0.22597   0.00000  Uiso   1.00
C533   C     0.80443   0.69083   0.22595   0.00000  Uiso   1.00
C534   C     0.86224   0.97584   0.27405   0.00000  Uiso   1.00
C535   C     0.83235   0.83355   0.16349   0.00000  Uiso   1.00
C536   C     0.83430   0.83312   0.33652   0.00000  Uiso   1.00
C537   C     0.86406   0.80578   0.40768   0.00000  Uiso   1.00
C538   C     0.80297   0.86125   0.09230   0.00000  Uiso   1.00
C539   C     0.83526   0.83273   0.38424   0.00000  Uiso   1.00
C540   C     0.91338   0.83334   0.25005   0.00000  Uiso   1.00
C541   C     0.83156   0.83406   0.11576   0.00000  Uiso   1.00
C542   C     0.80698   0.86033   0.40613   0.00000  Uiso   1.00
C543   C     0.86006   0.80671   0.09387   0.00000  Uiso   1.00
C544   C     0.80593   0.86126   0.45239   0.00000  Uiso   1.00
C545   C     0.86164   0.80644   0.04761   0.00000  Uiso   1.00
C546   C     0.83425   0.83380   0.47667   0.00000  Uiso   1.00
C547   C     0.83330   0.83386   0.02332   0.00000  Uiso   1.00
C548   C     0.86350   0.80622   0.45428   0.00000  Uiso   1.00
C549   C     0.80386   0.86121   0.04571   0.00000  Uiso   1.00
C550   C     0.77688   0.88870   0.47468   0.00000  Uiso   1.00
C551   C     0.77601   0.88824   0.02120   0.00000  Uiso   1.00
C552   C     0.89098   0.77934   0.02532   0.00000  Uiso   1.00
C553   C     0.89153   0.77942   0.47879   0.00000  Uiso   1.00
C554   C     0.68794   0.79298   0.24141   0.00000  Uiso   1.00
C555   C     0.97872   0.87369   0.25856   0.00000  Uiso   1.00
C556   C     0.97866   0.79297   0.24150   0.00000  Uiso   1.00
C557   C     0.68801   0.87370   0.25847   0.00000  Uiso   1.00
C558   C     0.95752   0.83333   0.25006   0.00000  Uiso   1.00
H559   H     0.78531   0.88047   0.38656   0.00000  Uiso   1.00
H560   H     0.78127   0.95816   0.20681   0.00000  Uiso   1.00
H561   H     0.78133   0.70915   0.20671   0.00000  Uiso   1.00
H562   H     0.88534   0.95752   0.29329   0.00000  Uiso   1.00
H563   H     0.87946   0.75315   0.36746   0.00000  Uiso   1.00
H564   H     0.91054   0.79972   0.36190   0.00000  Uiso   1.00
H565   H     0.75620   0.86687   0.13780   0.00000  Uiso   1.00
H566   H     0.78718   0.91358   0.13274   0.00000  Uiso   1.00
H567   H     0.76537   0.94380   0.43642   0.00000  Uiso   1.00
H568   H     0.72621   0.93116   0.47129   0.00000  Uiso   1.00
H569   H     0.94199   0.77362   0.06416   0.00000  Uiso   1.00
H570   H     0.88139   0.78616   0.11346   0.00000  Uiso   1.00
H571   H     0.93649   0.73043   0.02862   0.00000  Uiso   1.00
H572   H     0.75359   0.90945   0.03808   0.00000  Uiso   1.00
H573   H     0.91409   0.75839   0.46190   0.00000  Uiso   1.00
H574   H     0.70415   0.76163   0.23446   0.00000  Uiso   1.00
H575   H     0.96252   0.90504   0.26551   0.00000  Uiso   1.00
H576   H     0.96240   0.76161   0.23461   0.00000  Uiso   1.00
H577   H     0.70426   0.90506   0.26536   0.00000  Uiso   1.00
H578   H     0.88539   0.70851   0.29320   0.00000  Uiso   1.00
N579   N     0.83333   0.95240   0.25000   0.00000  Uiso   1.00
N580   N     0.83333   0.71427   0.25000   0.00000  Uiso   1.00
N581   N     0.89456   0.77905   0.38466   0.00000  Uiso   1.00
N582   N     0.77225   0.88773   0.11528   0.00000  Uiso   1.00
N583   N     0.74829   0.91687   0.45000   0.00000  Uiso   1.00
N584   N     0.92008   0.75181   0.05000   0.00000  Uiso   1.00
O585   O     0.77226   0.87154   0.25000   0.00000  Uiso   1.00
O586   O     0.89441   0.79513   0.25001   0.00000  Uiso   1.00
O587   O     0.89441   0.87154   0.25001   0.00000  Uiso   1.00
O588   O     0.77226   0.79513   0.25000   0.00000  Uiso   1.00
O589   O     0.83333   0.87156   0.18393   0.00000  Uiso   1.00
O590   O     0.83334   0.79511   0.31608   0.00000  Uiso   1.00
O591   O     0.83334   0.87156   0.31608   0.00000  Uiso   1.00
O592   O     0.83333   0.79511   0.18393   0.00000  Uiso   1.00
Zn593  Zn    0.83333   0.88437   0.25000   0.00000  Uiso   1.00
Zn594  Zn    0.83333   0.78229   0.25000   0.00000  Uiso   1.00
C595   C     0.08662   0.16666   0.74994   0.00000  Uiso   1.00
C596   C     0.04248   0.16667   0.74992   0.00000  Uiso   1.00
C597   C     0.19558   0.02381   0.77404   0.00000  Uiso   1.00
C598   C     0.13775   0.30952   0.72597   0.00000  Uiso   1.00
C599   C     0.13776   0.02416   0.72595   0.00000  Uiso   1.00
C600   C     0.19557   0.30917   0.77405   0.00000  Uiso   1.00
C601   C     0.16569   0.16689   0.66349   0.00000  Uiso   1.00
C602   C     0.16764   0.16646   0.83652   0.00000  Uiso   1.00
C603   C     0.19739   0.13911   0.90768   0.00000  Uiso   1.00
C604   C     0.13630   0.19458   0.59230   0.00000  Uiso   1.00
C605   C     0.16860   0.16606   0.88424   0.00000  Uiso   1.00
C606   C     0.24671   0.16667   0.75005   0.00000  Uiso   1.00
C607   C     0.16490   0.16739   0.61576   0.00000  Uiso   1.00
C608   C     0.14031   0.19366   0.90613   0.00000  Uiso   1.00
C609   C     0.19339   0.14005   0.59387   0.00000  Uiso   1.00
C610   C     0.13927   0.19459   0.95239   0.00000  Uiso   1.00
C611   C     0.19498   0.13977   0.54761   0.00000  Uiso   1.00
C612   C     0.16759   0.16714   0.97667   0.00000  Uiso   1.00
C613   C     0.16663   0.16719   0.52332   0.00000  Uiso   1.00
C614   C     0.19683   0.13955   0.95428   0.00000  Uiso   1.00
C615   C     0.13719   0.19454   0.54571   0.00000  Uiso   1.00
C616   C     0.11021   0.22204   0.97468   0.00000  Uiso   1.00
C617   C     0.10934   0.22157   0.52120   0.00000  Uiso   1.00
C618   C     0.22431   0.11268   0.52532   0.00000  Uiso   1.00
C619   C     0.22487   0.11276   0.97879   0.00000  Uiso   1.00
C620   C     0.02128   0.12631   0.74141   0.00000  Uiso   1.00
C621   C     0.31206   0.20703   0.75856   0.00000  Uiso   1.00
C622   C     0.31199   0.12631   0.74150   0.00000  Uiso   1.00
C623   C     0.02134   0.20703   0.75847   0.00000  Uiso   1.00
C624   C     0.29086   0.16667   0.75006   0.00000  Uiso   1.00
H625   H     0.11864   0.21380   0.88656   0.00000  Uiso   1.00
H626   H     0.11460   0.29149   0.70681   0.00000  Uiso   1.00
H627   H     0.11466   0.04248   0.70671   0.00000  Uiso   1.00
H628   H     0.21867   0.29085   0.79329   0.00000  Uiso   1.00
H629   H     0.21279   0.08648   0.86746   0.00000  Uiso   1.00
H630   H     0.24387   0.13305   0.86190   0.00000  Uiso   1.00
H631   H     0.08953   0.20020   0.63780   0.00000  Uiso   1.00
H632   H     0.12051   0.24691   0.63274   0.00000  Uiso   1.00
H633   H     0.09871   0.27713   0.93642   0.00000  Uiso   1.00
H634   H     0.05954   0.26450   0.97129   0.00000  Uiso   1.00
H635   H     0.27532   0.10695   0.56416   0.00000  Uiso   1.00
H636   H     0.21473   0.11949   0.61346   0.00000  Uiso   1.00
H637   H     0.26982   0.06376   0.52862   0.00000  Uiso   1.00
H638   H     0.08693   0.24278   0.53808   0.00000  Uiso   1.00
H639   H     0.24743   0.09172   0.96190   0.00000  Uiso   1.00
H640   H     0.03748   0.09496   0.73446   0.00000  Uiso   1.00
H641   H     0.29585   0.23838   0.76551   0.00000  Uiso   1.00
H642   H     0.29574   0.09495   0.73461   0.00000  Uiso   1.00
H643   H     0.03759   0.23839   0.76536   0.00000  Uiso   1.00
H644   H     0.21873   0.04185   0.79320   0.00000  Uiso   1.00
N645   N     0.16667   0.28573   0.75000   0.00000  Uiso   1.00
N646   N     0.16667   0.04760   0.75000   0.00000  Uiso   1.00
N647   N     0.22790   0.11238   0.88466   0.00000  Uiso   1.00
N648   N     0.10559   0.22107   0.61528   0.00000  Uiso   1.00
N649   N     0.08162   0.25020   0.95000   0.00000  Uiso   1.00
N650   N     0.25341   0.08514   0.55000   0.00000  Uiso   1.00
O651   O     0.10559   0.20487   0.75000   0.00000  Uiso   1.00
O652   O     0.22774   0.12846   0.75001   0.00000  Uiso   1.00
O653   O     0.22774   0.20487   0.75001   0.00000  Uiso   1.00
O654   O     0.10559   0.12846   0.75000   0.00000  Uiso   1.00
O655   O     0.16666   0.20489   0.68393   0.00000  Uiso   1.00
O656   O     0.16667   0.12844   0.81608   0.00000  Uiso   1.00
O657   O     0.16667   0.20489   0.81608   0.00000  Uiso   1.00
O658   O     0.16666   0.12844   0.68393   0.00000  Uiso   1.00
Zn659  Zn    0.16667   0.21771   0.75000   0.00000  Uiso   1.00
Zn660  Zn    0.16667   0.11563   0.75000   0.00000  Uiso   1.00
C661   C     0.41996   0.16666   0.74994   0.00000  Uiso   1.00
C662   C     0.37581   0.16667   0.74992   0.00000  Uiso   1.00
C663   C     0.52892   0.02381   0.77404   0.00000  Uiso   1.00
C664   C     0.47108   0.30952   0.72597   0.00000  Uiso   1.00
C665   C     0.47109   0.02416   0.72595   0.00000  Uiso   1.00
C666   C     0.52890   0.30917   0.77405   0.00000  Uiso   1.00
C667   C     0.49902   0.16689   0.66349   0.00000  Uiso   1.00
C668   C     0.50097   0.16646   0.83652   0.00000  Uiso   1.00
C669   C     0.53072   0.13911   0.90768   0.00000  Uiso   1.00
C670   C     0.46964   0.19458   0.59230   0.00000  Uiso   1.00
C671   C     0.50193   0.16606   0.88424   0.00000  Uiso   1.00
C672   C     0.58004   0.16667   0.75005   0.00000  Uiso   1.00
C673   C     0.49823   0.16739   0.61576   0.00000  Uiso   1.00
C674   C     0.47365   0.19366   0.90613   0.00000  Uiso   1.00
C675   C     0.52673   0.14005   0.59387   0.00000  Uiso   1.00
C676   C     0.47260   0.19459   0.95239   0.00000  Uiso   1.00
C677   C     0.52831   0.13977   0.54761   0.00000  Uiso   1.00
C678   C     0.50092   0.16714   0.97667   0.00000  Uiso   1.00
C679   C     0.49996   0.16719   0.52332   0.00000  Uiso   1.00
C680   C     0.53017   0.13955   0.95428   0.00000  Uiso   1.00
C681   C     0.47052   0.19454   0.54571   0.00000  Uiso   1.00
C682   C     0.44354   0.22204   0.97468   0.00000  Uiso   1.00
C683   C     0.44268   0.22157   0.52120   0.00000  Uiso   1.00
C684   C     0.55765   0.11268   0.52532   0.00000  Uiso   1.00
C685   C     0.55820   0.11276   0.97879   0.00000  Uiso   1.00
C686   C     0.35461   0.12631   0.74141   0.00000  Uiso   1.00
C687   C     0.64539   0.20703   0.75856   0.00000  Uiso   1.00
C688   C     0.64533   0.12631   0.74150   0.00000  Uiso   1.00
C689   C     0.35467   0.20703   0.75847   0.00000  Uiso   1.00
C690   C     0.62419   0.16667   0.75006   0.00000  Uiso   1.00
H691   H     0.45197   0.21380   0.88656   0.00000  Uiso   1.00
H692   H     0.44793   0.29149   0.70681   0.00000  Uiso   1.00
H693   H     0.44800   0.04248   0.70671   0.00000  Uiso   1.00
H694   H     0.55200   0.29085   0.79329   0.00000  Uiso   1.00
H695   H     0.54613   0.08648   0.86746   0.00000  Uiso   1.00
H696   H     0.57720   0.13305   0.86190   0.00000  Uiso   1.00
H697   H     0.42287   0.20020   0.63780   0.00000  Uiso   1.00
H698   H     0.45385   0.24691   0.63274   0.00000  Uiso   1.00
H699   H     0.43204   0.27713   0.93642   0.00000  Uiso   1.00
H700   H     0.39287   0.26450   0.97129   0.00000  Uiso   1.00
H701   H     0.60866   0.10695   0.56416   0.00000  Uiso   1.00
H702   H     0.54806   0.11949   0.61346   0.00000  Uiso   1.00
H703   H     0.60315   0.06376   0.52862   0.00000  Uiso   1.00
H704   H     0.42026   0.24278   0.53808   0.00000  Uiso   1.00
H705   H     0.58076   0.09172   0.96190   0.00000  Uiso   1.00
H706   H     0.37081   0.09496   0.73446   0.00000  Uiso   1.00
H707   H     0.62919   0.23838   0.76551   0.00000  Uiso   1.00
H708   H     0.62907   0.09495   0.73461   0.00000  Uiso   1.00
H709   H     0.37093   0.23839   0.76536   0.00000  Uiso   1.00
H710   H     0.55206   0.04185   0.79320   0.00000  Uiso   1.00
N711   N     0.50000   0.28573   0.75000   0.00000  Uiso   1.00
N712   N     0.50000   0.04760   0.75000   0.00000  Uiso   1.00
N713   N     0.56123   0.11238   0.88466   0.00000  Uiso   1.00
N714   N     0.43892   0.22107   0.61528   0.00000  Uiso   1.00
N715   N     0.41496   0.25020   0.95000   0.00000  Uiso   1.00
N716   N     0.58674   0.08514   0.55000   0.00000  Uiso   1.00
O717   O     0.43892   0.20487   0.75000   0.00000  Uiso   1.00
O718   O     0.56108   0.12846   0.75001   0.00000  Uiso   1.00
O719   O     0.56108   0.20487   0.75001   0.00000  Uiso   1.00
O720   O     0.43892   0.12846   0.75000   0.00000  Uiso   1.00
O721   O     0.49999   0.20489   0.68393   0.00000  Uiso   1.00
O722   O     0.50001   0.12844   0.81608   0.00000  Uiso   1.00
O723   O     0.50001   0.20489   0.81608   0.00000  Uiso   1.00
O724   O     0.49999   0.12844   0.68393   0.00000  Uiso   1.00
Zn725  Zn    0.50000   0.21771   0.75000   0.00000  Uiso   1.00
Zn726  Zn    0.50000   0.11563   0.75000   0.00000  Uiso   1.00
C727   C     0.75329   0.16666   0.74994   0.00000  Uiso   1.00
C728   C     0.70914   0.16667   0.74992   0.00000  Uiso   1.00
C729   C     0.86225   0.02381   0.77404   0.00000  Uiso   1.00
C730   C     0.80442   0.30952   0.72597   0.00000  Uiso   1.00
C731   C     0.80443   0.02416   0.72595   0.00000  Uiso   1.00
C732   C     0.86224   0.30917   0.77405   0.00000  Uiso   1.00
C733   C     0.83235   0.16689   0.66349   0.00000  Uiso   1.00
C734   C     0.83430   0.16646   0.83652   0.00000  Uiso   1.00
C735   C     0.86406   0.13911   0.90768   0.00000  Uiso   1.00
C736   C     0.80297   0.19458   0.59230   0.00000  Uiso   1.00
C737   C     0.83526   0.16606   0.88424   0.00000  Uiso   1.00
C738   C     0.91338   0.16667   0.75005   0.00000  Uiso   1.00
C739   C     0.83156   0.16739   0.61576   0.00000  Uiso   1.00
C740   C     0.80698   0.19366   0.90613   0.00000  Uiso   1.00
C741   C     0.86006   0.14005   0.59387   0.00000  Uiso   1.00
C742   C     0.80593   0.19459   0.95239   0.00000  Uiso   1.00
C743   C     0.86164   0.13977   0.54761   0.00000  Uiso   1.00
C744   C     0.83425   0.16714   0.97667   0.00000  Uiso   1.00
C745   C     0.83330   0.16719   0.52332   0.00000  Uiso   1.00
C746   C     0.86350   0.13955   0.95428   0.00000  Uiso   1.00
C747   C     0.80386   0.19454   0.54571   0.00000  Uiso   1.00
C748   C     0.77688   0.22204   0.97468   0.00000  Uiso   1.00
C749   C     0.77601   0.22157   0.52120   0.00000  Uiso   1.00
C750   C     0.89098   0.11268   0.52532   0.00000  Uiso   1.00
C751   C     0.89153   0.11276   0.97879   0.00000  Uiso   1.00
C752   C     0.68794   0.12631   0.74141   0.00000  Uiso   1.00
C753   C     0.97872   0.20703   0.75856   0.00000  Uiso   1.00
C754   C     0.97866   0.12631   0.74150   0.00000  Uiso   1.00
C755   C     0.68801   0.20703   0.75847   0.00000  Uiso   1.00
C756   C     0.95752   0.16667   0.75006   0.00000  Uiso   1.00
H757   H     0.78531   0.21380   0.88656   0.00000  Uiso   1.00
H758   H     0.78127   0.29149   0.70681   0.00000  Uiso   1.00
H759   H     0.78133   0.04248   0.70671   0.00000  Uiso   1.00
H760   H     0.88534   0.29085   0.79329   0.00000  Uiso   1.00
H761   H     0.87946   0.08648   0.86746   0.00000  Uiso   1.00
H762   H     0.91054   0.13305   0.86190   0.00000  Uiso   1.00
H763   H     0.75620   0.20020   0.63780   0.00000  Uiso   1.00
H764   H     0.78718   0.24691   0.63274   0.00000  Uiso   1.00
H765   H     0.76537   0.27713   0.93642   0.00000  Uiso   1.00
H766   H     0.72621   0.26450   0.97129   0.00000  Uiso   1.00
H767   H     0.94199   0.10695   0.56416   0.00000  Uiso   1.00
H768   H     0.88139   0.11949   0.61346   0.00000  Uiso   1.00
H769   H     0.93649   0.06376   0.52862   0.00000  Uiso   1.00
H770   H     0.75359   0.24278   0.53808   0.00000  Uiso   1.00
H771   H     0.91409   0.09172   0.96190   0.00000  Uiso   1.00
H772   H     0.70415   0.09496   0.73446   0.00000  Uiso   1.00
H773   H     0.96252   0.23838   0.76551   0.00000  Uiso   1.00
H774   H     0.96240   0.09495   0.73461   0.00000  Uiso   1.00
H775   H     0.70426   0.23839   0.76536   0.00000  Uiso   1.00
H776   H     0.88539   0.04185   0.79320   0.00000  Uiso   1.00
N777   N     0.83333   0.28573   0.75000   0.00000  Uiso   1.00
N778   N     0.83333   0.04760   0.75000   0.00000  Uiso   1.00
N779   N     0.89456   0.11238   0.88466   0.00000  Uiso   1.00
N780   N     0.77225   0.22107   0.61528   0.00000  Uiso   1.00
N781   N     0.74829   0.25020   0.95000   0.00000  Uiso   1.00
N782   N     0.92008   0.08514   0.55000   0.00000  Uiso   1.00
O783   O     0.77226   0.20487   0.75000   0.00000  Uiso   1.00
O784   O     0.89441   0.12846   0.75001   0.00000  Uiso   1.00
O785   O     0.89441   0.20487   0.75001   0.00000  Uiso   1.00
O786   O     0.77226   0.12846   0.75000   0.00000  Uiso   1.00
O787   O     0.83333   0.20489   0.68393   0.00000  Uiso   1.00
O788   O     0.83334   0.12844   0.81608   0.00000  Uiso   1.00
O789   O     0.83334   0.20489   0.81608   0.00000  Uiso   1.00
O790   O     0.83333   0.12844   0.68393   0.00000  Uiso   1.00
Zn791  Zn    0.83333   0.21771   0.75000   0.00000  Uiso   1.00
Zn792  Zn    0.83333   0.11563   0.75000   0.00000  Uiso   1.00
C793   C     0.08662   0.50000   0.74994   0.00000  Uiso   1.00
C794   C     0.04248   0.50000   0.74992   0.00000  Uiso   1.00
C795   C     0.19558   0.35714   0.77404   0.00000  Uiso   1.00
C796   C     0.13775   0.64286   0.72597   0.00000  Uiso   1.00
C797   C     0.13776   0.35749   0.72595   0.00000  Uiso   1.00
C798   C     0.19557   0.64251   0.77405   0.00000  Uiso   1.00
C799   C     0.16569   0.50022   0.66349   0.00000  Uiso   1.00
C800   C     0.16764   0.49979   0.83652   0.00000  Uiso   1.00
C801   C     0.19739   0.47244   0.90768   0.00000  Uiso   1.00
C802   C     0.13630   0.52792   0.59230   0.00000  Uiso   1.00
C803   C     0.16860   0.49939   0.88424   0.00000  Uiso   1.00
C804   C     0.24671   0.50000   0.75005   0.00000  Uiso   1.00
C805   C     0.16490   0.50073   0.61576   0.00000  Uiso   1.00
C806   C     0.14031   0.52699   0.90613   0.00000  Uiso   1.00
C807   C     0.19339   0.47338   0.59387   0.00000  Uiso   1.00
C808   C     0.13927   0.52793   0.95239   0.00000  Uiso   1.00
C809   C     0.19498   0.47310   0.54761   0.00000  Uiso   1.00
C810   C     0.16759   0.50047   0.97667   0.00000  Uiso   1.00
C811   C     0.16663   0.50052   0.52332   0.00000  Uiso   1.00
C812   C     0.19683   0.47288   0.95428   0.00000  Uiso   1.00
C813   C     0.13719   0.52788   0.54571   0.00000  Uiso   1.00
C814   C     0.11021   0.55537   0.97468   0.00000  Uiso   1.00
C815   C     0.10934   0.55490   0.52120   0.00000  Uiso   1.00
C816   C     0.22431   0.44601   0.52532   0.00000  Uiso   1.00
C817   C     0.22487   0.44609   0.97879   0.00000  Uiso   1.00
C818   C     0.02128   0.45964   0.74141   0.00000  Uiso   1.00
C819   C     0.31206   0.54036   0.75856   0.00000  Uiso   1.00
C820   C     0.31199   0.45964   0.74150   0.00000  Uiso   1.00
C821   C     0.02134   0.54036   0.75847   0.00000  Uiso   1.00
C822   C     0.29086   0.50000   0.75006   0.00000  Uiso   1.00
H823   H     0.11864   0.54714   0.88656   0.00000  Uiso   1.00
H824   H     0.11460   0.62482   0.70681   0.00000  Uiso   1.00
H825   H     0.11466   0.37581   0.70671   0.00000  Uiso   1.00
H826   H     0.21867   0.62419   0.79329   0.00000  Uiso   1.00
H827   H     0.21279   0.41981   0.86746   0.00000  Uiso   1.00
H828   H     0.24387   0.46638   0.86190   0.00000  Uiso   1.00
H829   H     0.08953   0.53354   0.63780   0.00000  Uiso   1.00
H830   H     0.12051   0.58024   0.63274   0.00000  Uiso   1.00
H831   H     0.09871   0.61046   0.93642   0.00000  Uiso   1.00
H832   H     0.05954   0.59783   0.97129   0.00000  Uiso   1.00
H833   H     0.27532   0.44028   0.56416   0.00000  Uiso   1.00
H834   H     0.21473   0.45283   0.61346   0.00000  Uiso   1.00
H835   H     0.26982   0.39709   0.52862   0.00000  Uiso   1.00
H836   H     0.08693   0.57612   0.53808   0.00000  Uiso   1.00
H837   H     0.24743   0.42505   0.96190   0.00000  Uiso   1.00
H838   H     0.03748   0.42829   0.73446   0.00000  Uiso   1.00
H839   H     0.29585   0.57171   0.76551   0.00000  Uiso   1.00
H840   H     0.29574   0.42828   0.73461   0.00000  Uiso   1.00
H841   H     0.03759   0.57172   0.76536   0.00000  Uiso   1.00
H842   H     0.21873   0.37518   0.79320   0.00000  Uiso   1.00
N843   N     0.16667   0.61907   0.75000   0.00000  Uiso   1.00
N844   N     0.16667   0.38093   0.75000   0.00000  Uiso   1.00
N845   N     0.22790   0.44571   0.88466   0.00000  Uiso   1.00
N846   N     0.10559   0.55440   0.61528   0.00000  Uiso   1.00
N847   N     0.08162   0.58354   0.95000   0.00000  Uiso   1.00
N848   N     0.25341   0.41848   0.55000   0.00000  Uiso   1.00
O849   O     0.10559   0.53821   0.75000   0.00000  Uiso   1.00
O850   O     0.22774   0.46179   0.75001   0.00000  Uiso   1.00
O851   O     0.22774   0.53821   0.75001   0.00000  Uiso   1.00
O852   O     0.10559   0.46179   0.75000   0.00000  Uiso   1.00
O853   O     0.16666   0.53823   0.68393   0.00000  Uiso   1.00
O854   O     0.16667   0.46177   0.81608   0.00000  Uiso   1.00
O855   O     0.16667   0.53823   0.81608   0.00000  Uiso   1.00
O856   O     0.16666   0.46177   0.68393   0.00000  Uiso   1.00
Zn857  Zn    0.16667   0.55104   0.75000   0.00000  Uiso   1.00
Zn858  Zn    0.16667   0.44896   0.75000   0.00000  Uiso   1.00
C859   C     0.41996   0.50000   0.74994   0.00000  Uiso   1.00
C860   C     0.37581   0.50000   0.74992   0.00000  Uiso   1.00
C861   C     0.52892   0.35714   0.77404   0.00000  Uiso   1.00
C862   C     0.47108   0.64286   0.72597   0.00000  Uiso   1.00
C863   C     0.47109   0.35749   0.72595   0.00000  Uiso   1.00
C864   C     0.52890   0.64251   0.77405   0.00000  Uiso   1.00
C865   C     0.49902   0.50022   0.66349   0.00000  Uiso   1.00
C866   C     0.50097   0.49979   0.83652   0.00000  Uiso   1.00
C867   C     0.53072   0.47244   0.90768   0.00000  Uiso   1.00
C868   C     0.46964   0.52792   0.59230   0.00000  Uiso   1.00
C869   C     0.50193   0.49939   0.88424   0.00000  Uiso   1.00
C870   C     0.58004   0.50000   0.75005   0.00000  Uiso   1.00
C871   C     0.49823   0.50073   0.61576   0.00000  Uiso   1.00
C872   C     0.47365   0.52699   0.90613   0.00000  Uiso   1.00
C873   C     0.52673   0.47338   0.59387   0.00000  Uiso   1.00
C874   C     0.47260   0.52793   0.95239   0.00000  Uiso   1.00
C875   C     0.52831   0.47310   0.54761   0.00000  Uiso   1.00
C876   C     0.50092   0.50047   0.97667   0.00000  Uiso   1.00
C877   C     0.49996   0.50052   0.52332   0.00000  Uiso   1.00
C878   C     0.53017   0.47288   0.95428   0.00000  Uiso   1.00
C879   C     0.47052   0.52788   0.54571   0.00000  Uiso   1.00
C880   C     0.44354   0.55537   0.97468   0.00000  Uiso   1.00
C881   C     0.44268   0.55490   0.52120   0.00000  Uiso   1.00
C882   C     0.55765   0.44601   0.52532   0.00000  Uiso   1.00
C883   C     0.55820   0.44609   0.97879   0.00000  Uiso   1.00
C884   C     0.35461   0.45964   0.74141   0.00000  Uiso   1.00
C885   C     0.64539   0.54036   0.75856   0.00000  Uiso   1.00
C886   C     0.64533   0.45964   0.74150   0.00000  Uiso   1.00
C887   C     0.35467   0.54036   0.75847   0.00000  Uiso   1.00
C888   C     0.62419   0.50000   0.75006   0.00000  Uiso   1.00
H889   H     0.45197   0.54714   0.88656   0.00000  Uiso   1.00
H890   H     0.44793   0.62482   0.70681   0.00000  Uiso   1.00
H891   H     0.44800   0.37581   0.70671   0.00000  Uiso   1.00
H892   H     0.55200   0.62419   0.79329   0.00000  Uiso   1.00
H893   H     0.54613   0.41981   0.86746   0.00000  Uiso   1.00
H894   H     0.57720   0.46638   0.86190   0.00000  Uiso   1.00
H895   H     0.42287   0.53354   0.63780   0.00000  Uiso   1.00
H896   H     0.45385   0.58024   0.63274   0.00000  Uiso   1.00
H897   H     0.43204   0.61046   0.93642   0.00000  Uiso   1.00
H898   H     0.39287   0.59783   0.97129   0.00000  Uiso   1.00
H899   H     0.60866   0.44028   0.56416   0.00000  Uiso   1.00
H900   H     0.54806   0.45283   0.61346   0.00000  Uiso   1.00
H901   H     0.60315   0.39709   0.52862   0.00000  Uiso   1.00
H902   H     0.42026   0.57612   0.53808   0.00000  Uiso   1.00
H903   H     0.58076   0.42505   0.96190   0.00000  Uiso   1.00
H904   H     0.37081   0.42829   0.73446   0.00000  Uiso   1.00
H905   H     0.62919   0.57171   0.76551   0.00000  Uiso   1.00
H906   H     0.62907   0.42828   0.73461   0.00000  Uiso   1.00
H907   H     0.37093   0.57172   0.76536   0.00000  Uiso   1.00
H908   H     0.55206   0.37518   0.79320   0.00000  Uiso   1.00
N909   N     0.50000   0.61907   0.75000   0.00000  Uiso   1.00
N910   N     0.50000   0.38093   0.75000   0.00000  Uiso   1.00
N911   N     0.56123   0.44571   0.88466   0.00000  Uiso   1.00
N912   N     0.43892   0.55440   0.61528   0.00000  Uiso   1.00
N913   N     0.41496   0.58354   0.95000   0.00000  Uiso   1.00
N914   N     0.58674   0.41848   0.55000   0.00000  Uiso   1.00
O915   O     0.43892   0.53821   0.75000   0.00000  Uiso   1.00
O916   O     0.56108   0.46179   0.75001   0.00000  Uiso   1.00
O917   O     0.56108   0.53821   0.75001   0.00000  Uiso   1.00
O918   O     0.43892   0.46179   0.75000   0.00000  Uiso   1.00
O919   O     0.49999   0.53823   0.68393   0.00000  Uiso   1.00
O920   O     0.50001   0.46177   0.81608   0.00000  Uiso   1.00
O921   O     0.50001   0.53823   0.81608   0.00000  Uiso   1.00
O922   O     0.49999   0.46177   0.68393   0.00000  Uiso   1.00
Zn923  Zn    0.50000   0.55104   0.75000   0.00000  Uiso   1.00
Zn924  Zn    0.50000   0.44896   0.75000   0.00000  Uiso   1.00
C925   C     0.75329   0.50000   0.74994   0.00000  Uiso   1.00
C926   C     0.70914   0.50000   0.74992   0.00000  Uiso   1.00
C927   C     0.86225   0.35714   0.77404   0.00000  Uiso   1.00
C928   C     0.80442   0.64286   0.72597   0.00000  Uiso   1.00
C929   C     0.80443   0.35749   0.72595   0.00000  Uiso   1.00
C930   C     0.86224   0.64251   0.77405   0.00000  Uiso   1.00
C931   C     0.83235   0.50022   0.66349   0.00000  Uiso   1.00
C932   C     0.83430   0.49979   0.83652   0.00000  Uiso   1.00
C933   C     0.86406   0.47244   0.90768   0.00000  Uiso   1.00
C934   C     0.80297   0.52792   0.59230   0.00000  Uiso   1.00
C935   C     0.83526   0.49939   0.88424   0.00000  Uiso   1.00
C936   C     0.91338   0.50000   0.75005   0.00000  Uiso   1.00
C937   C     0.83156   0.50073   0.61576   0.00000  Uiso   1.00
C938   C     0.80698   0.52699   0.90613   0.00000  Uiso   1.00
C939   C     0.86006   0.47338   0.59387   0.00000  Uiso   1.00
C940   C     0.80593   0.52793   0.95239   0.00000  Uiso   1.00
C941   C     0.86164   0.47310   0.54761   0.00000  Uiso   1.00
C942   C     0.83425   0.50047   0.97667   0.00000  Uiso   1.00
C943   C     0.83330   0.50052   0.52332   0.00000  Uiso   1.00
C944   C     0.86350   0.47288   0.95428   0.00000  Uiso   1.00
C945   C     0.80386   0.52788   0.54571   0.00000  Uiso   1.00
C946   C     0.77688   0.55537   0.97468   0.00000  Uiso   1.00
C947   C     0.77601   0.55490   0.52120   0.00000  Uiso   1.00
C948   C     0.89098   0.44601   0.52532   0.00000  Uiso   1.00
C949   C     0.89153   0.44609   0.97879   0.00000  Uiso   1.00
C950   C     0.68794   0.45964   0.74141   0.00000  Uiso   1.00
C951   C     0.97872   0.54036   0.75856   0.00000  Uiso   1.00
C952   C     0.97866   0.45964   0.74150   0.00000  Uiso   1.00
C953   C     0.68801   0.54036   0.75847   0.00000  Uiso   1.00
C954   C     0.95752   0.50000   0.75006   0.00000  Uiso   1.00
H955   H     0.78531   0.54714   0.88656   0.00000  Uiso   1.00
H956   H     0.78127   0.62482   0.70681   0.00000  Uiso   1.00
H957   H     0.78133   0.37581   0.70671   0.00000  Uiso   1.00
H958   H     0.88534   0.62419   0.79329   0.00000  Uiso   1.00
H959   H     0.87946   0.41981   0.86746   0.00000  Uiso   1.00
H960   H     0.91054   0.46638   0.86190   0.00000  Uiso   1.00
H961   H     0.75620   0.53354   0.63780   0.00000  Uiso   1.00
H962   H     0.78718   0.58024   0.63274   0.00000  Uiso   1.00
H963   H     0.76537   0.61046   0.93642   0.00000  Uiso   1.00
H964   H     0.72621   0.59783   0.97129   0.00000  Uiso   1.00
H965   H     0.94199   0.44028   0.56416   0.00000  Uiso   1.00
H966   H     0.88139   0.45283   0.61346   0.00000  Uiso   1.00
H967   H     0.93649   0.39709   0.52862   0.00000  Uiso   1.00
H968   H     0.75359   0.57612   0.53808   0.00000  Uiso   1.00
H969   H     0.91409   0.42505   0.96190   0.00000  Uiso   1.00
H970   H     0.70415   0.42829   0.73446   0.00000  Uiso   1.00
H971   H     0.96252   0.57171   0.76551   0.00000  Uiso   1.00
H972   H     0.96240   0.42828   0.73461   0.00000  Uiso   1.00
H973   H     0.70426   0.57172   0.76536   0.00000  Uiso   1.00
H974   H     0.88539   0.37518   0.79320   0.00000  Uiso   1.00
N975   N     0.83333   0.61907   0.75000   0.00000  Uiso   1.00
N976   N     0.83333   0.38093   0.75000   0.00000  Uiso   1.00
N977   N     0.89456   0.44571   0.88466   0.00000  Uiso   1.00
N978   N     0.77225   0.55440   0.61528   0.00000  Uiso   1.00
N979   N     0.74829   0.58354   0.95000   0.00000  Uiso   1.00
N980   N     0.92008   0.41848   0.55000   0.00000  Uiso   1.00
O981   O     0.77226   0.53821   0.75000   0.00000  Uiso   1.00
O982   O     0.89441   0.46179   0.75001   0.00000  Uiso   1.00
O983   O     0.89441   0.53821   0.75001   0.00000  Uiso   1.00
O984   O     0.77226   0.46179   0.75000   0.00000  Uiso   1.00
O985   O     0.83333   0.53823   0.68393   0.00000  Uiso   1.00
O986   O     0.83334   0.46177   0.81608   0.00000  Uiso   1.00
O987   O     0.83334   0.53823   0.81608   0.00000  Uiso   1.00
O988   O     0.83333   0.46177   0.68393   0.00000  Uiso   1.00
Zn989  Zn    0.83333   0.55104   0.75000   0.00000  Uiso   1.00
Zn990  Zn    0.83333   0.44896   0.75000   0.00000  Uiso   1.00
C991   C     0.08662   0.83333   0.74994   0.00000  Uiso   1.00
C992   C     0.04248   0.83334   0.74992   0.00000  Uiso   1.00
C993   C     0.19558   0.69048   0.77404   0.00000  Uiso   1.00
C994   C     0.13775   0.97619   0.72597   0.00000  Uiso   1.00
C995   C     0.13776   0.69083   0.72595   0.00000  Uiso   1.00
C996   C     0.19557   0.97584   0.77405   0.00000  Uiso   1.00
C997   C     0.16569   0.83355   0.66349   0.00000  Uiso   1.00
C998   C     0.16764   0.83312   0.83652   0.00000  Uiso   1.00
C999   C     0.19739   0.80578   0.90768   0.00000  Uiso   1.00
C1000  C     0.13630   0.86125   0.59230   0.00000  Uiso   1.00
C1001  C     0.16860   0.83273   0.88424   0.00000  Uiso   1.00
C1002  C     0.24671   0.83334   0.75005   0.00000  Uiso   1.00
C1003  C     0.16490   0.83406   0.61576   0.00000  Uiso   1.00
C1004  C     0.14031   0.86033   0.90613   0.00000  Uiso   1.00
C1005  C     0.19339   0.80671   0.59387   0.00000  Uiso   1.00
C1006  C     0.13927   0.86126   0.95239   0.00000  Uiso   1.00
C1007  C     0.19498   0.80644   0.54761   0.00000  Uiso   1.00
C1008  C     0.16759   0.83380   0.97667   0.00000  Uiso   1.00
C1009  C     0.16663   0.83386   0.52332   0.00000  Uiso   1.00
C1010  C     0.19683   0.80622   0.95428   0.00000  Uiso   1.00
C1011  C     0.13719   0.86121   0.54571   0.00000  Uiso   1.00
C1012  C     0.11021   0.88870   0.97468   0.00000  Uiso   1.00
C1013  C     0.10934   0.88824   0.52120   0.00000  Uiso   1.00
C1014  C     0.22431   0.77934   0.52532   0.00000  Uiso   1.00
C1015  C     0.22487   0.77942   0.97879   0.00000  Uiso   1.00
C1016  C     0.02128   0.79298   0.74141   0.00000  Uiso   1.00
C1017  C     0.31206   0.87369   0.75856   0.00000  Uiso   1.00
C1018  C     0.31199   0.79297   0.74150   0.00000  Uiso   1.00
C1019  C     0.02134   0.87370   0.75847   0.00000  Uiso   1.00
C1020  C     0.29086   0.83333   0.75006   0.00000  Uiso   1.00
H1021  H     0.11864   0.88047   0.88656   0.00000  Uiso   1.00
H1022  H     0.11460   0.95816   0.70681   0.00000  Uiso   1.00
H1023  H     0.11466   0.70915   0.70671   0.00000  Uiso   1.00
H1024  H     0.21867   0.95752   0.79329   0.00000  Uiso   1.00
H1025  H     0.21279   0.75315   0.86746   0.00000  Uiso   1.00
H1026  H     0.24387   0.79972   0.86190   0.00000  Uiso   1.00
H1027  H     0.08953   0.86687   0.63780   0.00000  Uiso   1.00
H1028  H     0.12051   0.91358   0.63274   0.00000  Uiso   1.00
H1029  H     0.09871   0.94380   0.93642   0.00000  Uiso   1.00
H1030  H     0.05954   0.93116   0.97129   0.00000  Uiso   1.00
H1031  H     0.27532   0.77362   0.56416   0.00000  Uiso   1.00
H1032  H     0.21473   0.78616   0.61346   0.00000  Uiso   1.00
H1033  H     0.26982   0.73043   0.52862   0.00000  Uiso   1.00
H1034  H     0.08693   0.90945   0.53808   0.00000  Uiso   1.00
H1035  H     0.24743   0.75839   0.96190   0.00000  Uiso   1.00
H1036  H     0.03748   0.76163   0.73446   0.00000  Uiso   1.00
H1037  H     0.29585   0.90504   0.76551   0.00000  Uiso   1.00
H1038  H     0.29574   0.76161   0.73461   0.00000  Uiso   1.00
H1039  H     0.03759   0.90506   0.76536   0.00000  Uiso   1.00
H1040  H     0.21873   0.70851   0.79320   0.00000  Uiso   1.00
N1041  N     0.16667   0.95240   0.75000   0.00000  Uiso   1.00
N1042  N     0.16667   0.71427   0.75000   0.00000  Uiso   1.00
N1043  N     0.22790   0.77905   0.88466   0.00000  Uiso   1.00
N1044  N     0.10559   0.88773   0.61528   0.00000  Uiso   1.00
N1045  N     0.08162   0.91687   0.95000   0.00000  Uiso   1.00
N1046  N     0.25341   0.75181   0.55000   0.00000  Uiso   1.00
O1047  O     0.10559   0.87154   0.75000   0.00000  Uiso   1.00
O1048  O     0.22774   0.79513   0.75001   0.00000  Uiso   1.00
O1049  O     0.22774   0.87154   0.75001   0.00000  Uiso   1.00
O1050  O     0.10559   0.79513   0.75000   0.00000  Uiso   1.00
O1051  O     0.16666   0.87156   0.68393   0.00000  Uiso   1.00
O1052  O     0.16667   0.79511   0.81608   0.00000  Uiso   1.00
O1053  O     0.16667   0.87156   0.81608   0.00000  Uiso   1.00
O1054  O     0.16666   0.79511   0.68393   0.00000  Uiso   1.00
Zn1055 Zn    0.16667   0.88437   0.75000   0.00000  Uiso   1.00
Zn1056 Zn    0.16667   0.78229   0.75000   0.00000  Uiso   1.00
C1057  C     0.41996   0.83333   0.74994   0.00000  Uiso   1.00
C1058  C     0.37581   0.83334   0.74992   0.00000  Uiso   1.00
C1059  C     0.52892   0.69048   0.77404   0.00000  Uiso   1.00
C1060  C     0.47108   0.97619   0.72597   0.00000  Uiso   1.00
C1061  C     0.47109   0.69083   0.72595   0.00000  Uiso   1.00
C1062  C     0.52890   0.97584   0.77405   0.00000  Uiso   1.00
C1063  C     0.49902   0.83355   0.66349   0.00000  Uiso   1.00
C1064  C     0.50097   0.83312   0.83652   0.00000  Uiso   1.00
C1065  C     0.53072   0.80578   0.90768   0.00000  Uiso   1.00
C1066  C     0.46964   0.86125   0.59230   0.00000  Uiso   1.00
C1067  C     0.50193   0.83273   0.88424   0.00000  Uiso   1.00
C1068  C     0.58004   0.83334   0.75005   0.00000  Uiso   1.00
C1069  C     0.49823   0.83406   0.61576   0.00000  Uiso   1.00
C1070  C     0.47365   0.86033   0.90613   0.00000  Uiso   1.00
C1071  C     0.52673   0.80671   0.59387   0.00000  Uiso   1.00
C1072  C     0.47260   0.86126   0.95239   0.00000  Uiso   1.00
C1073  C     0.52831   0.80644   0.54761   0.00000  Uiso   1.00
C1074  C     0.50092   0.83380   0.97667   0.00000  Uiso   1.00
C1075  C     0.49996   0.83386   0.52332   0.00000  Uiso   1.00
C1076  C     0.53017   0.80622   0.95428   0.00000  Uiso   1.00
C1077  C     0.47052   0.86121   0.54571   0.00000  Uiso   1.00
C1078  C     0.44354   0.88870   0.97468   0.00000  Uiso   1.00
C1079  C     0.44268   0.88824   0.52120   0.00000  Uiso   1.00
C1080  C     0.55765   0.77934   0.52532   0.00000  Uiso   1.00
C1081  C     0.55820   0.77942   0.97879   0.00000  Uiso   1.00
C1082  C     0.35461   0.79298   0.74141   0.00000  Uiso   1.00
C1083  C     0.64539   0.87369   0.75856   0.00000  Uiso   1.00
C1084  C     0.64533   0.79297   0.74150   0.00000  Uiso   1.00
C1085  C     0.35467   0.87370   0.75847   0.00000  Uiso   1.00
C1086  C     0.62419   0.83333   0.75006   0.00000  Uiso   1.00
H1087  H     0.45197   0.88047   0.88656   0.00000  Uiso   1.00
H1088  H     0.44793   0.95816   0.70681   0.00000  Uiso   1.00
H1089  H     0.44800   0.70915   0.70671   0.00000  Uiso   1.00
H1090  H     0.55200   0.95752   0.79329   0.00000  Uiso   1.00
H1091  H     0.54613   0.75315   0.86746   0.00000  Uiso   1.00
H1092  H     0.57720   0.79972   0.86190   0.00000  Uiso   1.00
H1093  H     0.42287   0.86687   0.63780   0.00000  Uiso   1.00
H1094  H     0.45385   0.91358   0.63274   0.00000  Uiso   1.00
H1095  H     0.43204   0.94380   0.93642   0.00000  Uiso   1.00
H1096  H     0.39287   0.93116   0.97129   0.00000  Uiso   1.00
H1097  H     0.60866   0.77362   0.56416   0.00000  Uiso   1.00
H1098  H     0.54806   0.78616   0.61346   0.00000  Uiso   1.00
H1099  H     0.60315   0.73043   0.52862   0.00000  Uiso   1.00
H1100  H     0.42026   0.90945   0.53808   0.00000  Uiso   1.00
H1101  H     0.58076   0.75839   0.96190   0.00000  Uiso   1.00
H1102  H     0.37081   0.76163   0.73446   0.00000  Uiso   1.00
H1103  H     0.62919   0.90504   0.76551   0.00000  Uiso   1.00
H1104  H     0.62907   0.76161   0.73461   0.00000  Uiso   1.00
H1105  H     0.37093   0.90506   0.76536   0.00000  Uiso   1.00
H1106  H     0.55206   0.70851   0.79320   0.00000  Uiso   1.00
N1107  N     0.50000   0.95240   0.75000   0.00000  Uiso   1.00
N1108  N     0.50000   0.71427   0.75000   0.00000  Uiso   1.00
N1109  N     0.56123   0.77905   0.88466   0.00000  Uiso   1.00
N1110  N     0.43892   0.88773   0.61528   0.00000  Uiso   1.00
N1111  N     0.41496   0.91687   0.95000   0.00000  Uiso   1.00
N1112  N     0.58674   0.75181   0.55000   0.00000  Uiso   1.00
O1113  O     0.43892   0.87154   0.75000   0.00000  Uiso   1.00
O1114  O     0.56108   0.79513   0.75001   0.00000  Uiso   1.00
O1115  O     0.56108   0.87154   0.75001   0.00000  Uiso   1.00
O1116  O     0.43892   0.79513   0.75000   0.00000  Uiso   1.00
O1117  O     0.49999   0.87156   0.68393   0.00000  Uiso   1.00
O1118  O     0.50001   0.79511   0.81608   0.00000  Uiso   1.00
O1119  O     0.50001   0.87156   0.81608   0.00000  Uiso   1.00
O1120  O     0.49999   0.79511   0.68393   0.00000  Uiso   1.00
Zn1121 Zn    0.50000   0.88437   0.75000   0.00000  Uiso   1.00
Zn1122 Zn    0.50000   0.78229   0.75000   0.00000  Uiso   1.00
C1123  C     0.75329   0.83333   0.74994   0.00000  Uiso   1.00
C1124  C     0.70914   0.83334   0.74992   0.00000  Uiso   1.00
C1125  C     0.86225   0.69048   0.77404   0.00000  Uiso   1.00
C1126  C     0.80442   0.97619   0.72597   0.00000  Uiso   1.00
C1127  C     0.80443   0.69083   0.72595   0.00000  Uiso   1.00
C1128  C     0.86224   0.97584   0.77405   0.00000  Uiso   1.00
C1129  C     0.83235   0.83355   0.66349   0.00000  Uiso   1.00
C1130  C     0.83430   0.83312   0.83652   0.00000  Uiso   1.00
C1131  C     0.86406   0.80578   0.90768   0.00000  Uiso   1.00
C1132  C     0.80297   0.86125   0.59230   0.00000  Uiso   1.00
C1133  C     0.83526   0.83273   0.88424   0.00000  Uiso   1.00
C1134  C     0.91338   0.83334   0.75005   0.00000  Uiso   1.00
C1135  C     0.83156   0.83406   0.61576   0.00000  Uiso   1.00
C1136  C     0.80698   0.86033   0.90613   0.00000  Uiso   1.00
C1137  C     0.86006   0.80671   0.59387   0.00000  Uiso   1.00
C1138  C     0.80593   0.86126   0.95239   0.00000  Uiso   1.00
C1139  C     0.86164   0.80644   0.54761   0.00000  Uiso   1.00
C1140  C     0.83425   0.83380   0.97667   0.00000  Uiso   1.00
C1141  C     0.83330   0.83386   0.52332   0.00000  Uiso   1.00
C1142  C     0.86350   0.80622   0.95428   0.00000  Uiso   1.00
C1143  C     0.80386   0.86121   0.54571   0.00000  Uiso   1.00
C1144  C     0.77688   0.88870   0.97468   0.00000  Uiso   1.00
C1145  C     0.77601   0.88824   0.52120   0.00000  Uiso   1.00
C1146  C     0.89098   0.77934   0.52532   0.00000  Uiso   1.00
C1147  C     0.89153   0.77942   0.97879   0.00000  Uiso   1.00
C1148  C     0.68794   0.79298   0.74141   0.00000  Uiso   1.00
C1149  C     0.97872   0.87369   0.75856   0.00000  Uiso   1.00
C1150  C     0.97866   0.79297   0.74150   0.00000  Uiso   1.00
C1151  C     0.68801   0.87370   0.75847   0.00000  Uiso   1.00
C1152  C     0.95752   0.83333   0.75006   0.00000  Uiso   1.00
H1153  H     0.78531   0.88047   0.88656   0.00000  Uiso   1.00
H1154  H     0.78127   0.95816   0.70681   0.00000  Uiso   1.00
H1155  H     0.78133   0.70915   0.70671   0.00000  Uiso   1.00
H1156  H     0.88534   0.95752   0.79329   0.00000  Uiso   1.00
H1157  H     0.87946   0.75315   0.86746   0.00000  Uiso   1.00
H1158  H     0.91054   0.79972   0.86190   0.00000  Uiso   1.00
H1159  H     0.75620   0.86687   0.63780   0.00000  Uiso   1.00
H1160  H     0.78718   0.91358   0.63274   0.00000  Uiso   1.00
H1161  H     0.76537   0.94380   0.93642   0.00000  Uiso   1.00
H1162  H     0.72621   0.93116   0.97129   0.00000  Uiso   1.00
H1163  H     0.94199   0.77362   0.56416   0.00000  Uiso   1.00
H1164  H     0.88139   0.78616   0.61346   0.00000  Uiso   1.00
H1165  H     0.93649   0.73043   0.52862   0.00000  Uiso   1.00
H1166  H     0.75359   0.90945   0.53808   0.00000  Uiso   1.00
H1167  H     0.91409   0.75839   0.96190   0.00000  Uiso   1.00
H1168  H     0.70415   0.76163   0.73446   0.00000  Uiso   1.00
H1169  H     0.96252   0.90504   0.76551   0.00000  Uiso   1.00
H1170  H     0.96240   0.76161   0.73461   0.00000  Uiso   1.00
H1171  H     0.70426   0.90506   0.76536   0.00000  Uiso   1.00
H1172  H     0.88539   0.70851   0.79320   0.00000  Uiso   1.00
N1173  N     0.83333   0.95240   0.75000   0.00000  Uiso   1.00
N1174  N     0.83333   0.71427   0.75000   0.00000  Uiso   1.00
N1175  N     0.89456   0.77905   0.88466   0.00000  Uiso   1.00
N1176  N     0.77225   0.88773   0.61528   0.00000  Uiso   1.00
N1177  N     0.74829   0.91687   0.95000   0.00000  Uiso   1.00
N1178  N     0.92008   0.75181   0.55000   0.00000  Uiso   1.00
O1179  O     0.77226   0.87154   0.75000   0.00000  Uiso   1.00
O1180  O     0.89441   0.79513   0.75001   0.00000  Uiso   1.00
O1181  O     0.89441   0.87154   0.75001   0.00000  Uiso   1.00
O1182  O     0.77226   0.79513   0.75000   0.00000  Uiso   1.00
O1183  O     0.83333   0.87156   0.68393   0.00000  Uiso   1.00
O1184  O     0.83334   0.79511   0.81608   0.00000  Uiso   1.00
O1185  O     0.83334   0.87156   0.81608   0.00000  Uiso   1.00
O1186  O     0.83333   0.79511   0.68393   0.00000  Uiso   1.00
Zn1187 Zn    0.83333   0.88437   0.75000   0.00000  Uiso   1.00
Zn1188 Zn    0.83333   0.78229   0.75000   0.00000  Uiso   1.00
loop_
_geom_bond_atom_site_label_1
_geom_bond_atom_site_label_2
_geom_bond_distance
_geom_bond_site_symmetry_2
_ccdc_geom_bond_type
C1     O57     1.282   .     A
C1     C2      1.419   .     S
C1     O60     1.282   .     A
C2     C26     1.397   .     A
C2     C29     1.397   .     A
C3     N52     1.366   .     A
C3     H50     1.082   .     S
C3     C402    1.416   1_545 S
C4     H32     1.082   .     S
C4     N51     1.366   .     A
C4     C203    1.416   .     S
C5     N52     1.366   .     A
C5     H33     1.082   .     S
C5     C400    1.416   1_545 S
C6     N51     1.366   .     A
C6     H34     1.082   .     S
C6     C201    1.416   .     S
C7     O64     1.285   .     A
C7     C13     1.429   .     S
C7     O61     1.282   .     A
C8     C11     1.429   .     S
C8     O63     1.285   .     A
C8     O62     1.283   .     A
C9     C20     1.396   .     A
C9     C11     1.405   .     A
C9     N53     1.438   .     S
C10    C21     1.396   .     A
C10    N54     1.439   .     S
C10    C13     1.405   .     A
C11    C14     1.389   .     A
C12    O58     1.282   .     A
C12    C30     1.419   .     S
C12    O59     1.282   .     A
C13    C15     1.389   .     A
C14    H31     1.085   .     S
C14    C16     1.386   .     A
C15    C17     1.386   .     A
C15    H42     1.085   .     S
C16    C18     1.416   .     A
C16    C22     1.409   .     A
C17    C19     1.416   .     A
C17    C24     1.409   .     A
C18    C20     1.417   .     A
C18    C613    1.397   .     S
C19    C21     1.417   .     A
C19    C612    1.397   1_554 S
C20    C25     1.402   .     A
C21    C23     1.402   .     A
C22    N55     1.439   .     S
C22    C617    1.393   .     S
C23    H44     1.083   .     S
C23    C616    1.393   1_554 S
C24    N56     1.439   .     S
C24    C619    1.394   1_554 S
C25    H45     1.083   .     S
C25    C618    1.394   .     S
C26    H46     1.084   .     S
C26    C160    1.370   1_455 S
C27    C30     1.397   .     A
C27    H47     1.084   .     S
C27    C95     1.370   .     S
C28    C30     1.397   .     A
C28    H48     1.084   .     S
C28    C92     1.370   .     S
C29    H49     1.084   .     S
C29    C159    1.370   1_455 S
H35    N53     1.044   .     S
H36    N53     1.046   .     S
H37    N54     1.046   .     S
H38    N54     1.044   .     S
H39    N55     1.046   .     S
H40    N55     1.046   .     S
H41    N56     1.046   .     S
H43    N56     1.046   .     S
N51    Zn65    2.008   .     S
N52    Zn66    2.008   .     S
O57    Zn65    1.999   .     S
O58    Zn66    1.999   .     S
O59    Zn65    2.000   .     S
O60    Zn66    2.000   .     S
O61    Zn65    2.017   .     S
O62    Zn66    2.017   .     S
O63    Zn65    2.012   .     S
O64    Zn66    2.012   .     S
C67    O123    1.282   .     A
C67    C68     1.419   .     S
C67    O126    1.282   .     A
C68    C92     1.397   .     A
C68    C95     1.397   .     A
C69    N118    1.366   .     A
C69    H116    1.082   .     S
C69    C468    1.416   1_545 S
C70    H98     1.082   .     S
C70    N117    1.366   .     A
C70    C269    1.416   .     S
C71    N118    1.366   .     A
C71    H99     1.082   .     S
C71    C466    1.416   1_545 S
C72    N117    1.366   .     A
C72    H100    1.082   .     S
C72    C267    1.416   .     S
C73    O130    1.285   .     A
C73    C79     1.429   .     S
C73    O127    1.282   .     A
C74    C77     1.429   .     S
C74    O129    1.285   .     A
C74    O128    1.283   .     A
C75    C86     1.396   .     A
C75    C77     1.405   .     A
C75    N119    1.438   .     S
C76    C87     1.396   .     A
C76    N120    1.439   .     S
C76    C79     1.405   .     A
C77    C80     1.389   .     A
C78    O124    1.282   .     A
C78    C96     1.419   .     S
C78    O125    1.282   .     A
C79    C81     1.389   .     A
C80    H97     1.085   .     S
C80    C82     1.386   .     A
C81    C83     1.386   .     A
C81    H108    1.085   .     S
C82    C84     1.416   .     A
C82    C88     1.409   .     A
C83    C85     1.416   .     A
C83    C90     1.409   .     A
C84    C86     1.417   .     A
C84    C679    1.397   .     S
C85    C87     1.417   .     A
C85    C678    1.397   1_554 S
C86    C91     1.402   .     A
C87    C89     1.402   .     A
C88    N121    1.439   .     S
C88    C683    1.393   .     S
C89    H110    1.083   .     S
C89    C682    1.393   1_554 S
C90    N122    1.439   .     S
C90    C685    1.394   1_554 S
C91    H111    1.083   .     S
C91    C684    1.394   .     S
C92    H112    1.084   .     S
C93    C96     1.397   .     A
C93    H113    1.084   .     S
C93    C161    1.370   .     S
C94    C96     1.397   .     A
C94    H114    1.084   .     S
C94    C158    1.370   .     S
C95    H115    1.084   .     S
H101   N119    1.044   .     S
H102   N119    1.046   .     S
H103   N120    1.046   .     S
H104   N120    1.044   .     S
H105   N121    1.046   .     S
H106   N121    1.046   .     S
H107   N122    1.046   .     S
H109   N122    1.046   .     S
N117   Zn131   2.008   .     S
N118   Zn132   2.008   .     S
O123   Zn131   1.999   .     S
O124   Zn132   1.999   .     S
O125   Zn131   2.000   .     S
O126   Zn132   2.000   .     S
O127   Zn131   2.017   .     S
O128   Zn132   2.017   .     S
O129   Zn131   2.012   .     S
O130   Zn132   2.012   .     S
C133   O189    1.282   .     A
C133   C134    1.419   .     S
C133   O192    1.282   .     A
C134   C158    1.397   .     A
C134   C161    1.397   .     A
C135   N184    1.366   .     A
C135   H182    1.082   .     S
C135   C534    1.416   1_545 S
C136   H164    1.082   .     S
C136   N183    1.366   .     A
C136   C335    1.416   .     S
C137   N184    1.366   .     A
C137   H165    1.082   .     S
C137   C532    1.416   1_545 S
C138   N183    1.366   .     A
C138   H166    1.082   .     S
C138   C333    1.416   .     S
C139   O196    1.285   .     A
C139   C145    1.429   .     S
C139   O193    1.282   .     A
C140   C143    1.429   .     S
C140   O195    1.285   .     A
C140   O194    1.283   .     A
C141   C152    1.396   .     A
C141   C143    1.405   .     A
C141   N185    1.438   .     S
C142   C153    1.396   .     A
C142   N186    1.439   .     S
C142   C145    1.405   .     A
C143   C146    1.389   .     A
C144   O190    1.282   .     A
C144   C162    1.419   .     S
C144   O191    1.282   .     A
C145   C147    1.389   .     A
C146   H163    1.085   .     S
C146   C148    1.386   .     A
C147   C149    1.386   .     A
C147   H174    1.085   .     S
C148   C150    1.416   .     A
C148   C154    1.409   .     A
C149   C151    1.416   .     A
C149   C156    1.409   .     A
C150   C152    1.417   .     A
C150   C745    1.397   .     S
C151   C153    1.417   .     A
C151   C744    1.397   1_554 S
C152   C157    1.402   .     A
C153   C155    1.402   .     A
C154   N187    1.439   .     S
C154   C749    1.393   .     S
C155   H176    1.083   .     S
C155   C748    1.393   1_554 S
C156   N188    1.439   .     S
C156   C751    1.394   1_554 S
C157   H177    1.083   .     S
C157   C750    1.394   .     S
C158   H178    1.084   .     S
C159   C162    1.397   .     A
C159   H179    1.084   .     S
C159   C29     1.370   1_655 S
C160   C162    1.397   .     A
C160   H180    1.084   .     S
C160   C26     1.370   1_655 S
C161   H181    1.084   .     S
H167   N185    1.044   .     S
H168   N185    1.046   .     S
H169   N186    1.046   .     S
H170   N186    1.044   .     S
H171   N187    1.046   .     S
H172   N187    1.046   .     S
H173   N188    1.046   .     S
H175   N188    1.046   .     S
N183   Zn197   2.008   .     S
N184   Zn198   2.008   .     S
O189   Zn197   1.999   .     S
O190   Zn198   1.999   .     S
O191   Zn197   2.000   .     S
O192   Zn198   2.000   .     S
O193   Zn197   2.017   .     S
O194   Zn198   2.017   .     S
O195   Zn197   2.012   .     S
O196   Zn198   2.012   .     S
C199   O255    1.282   .     A
C199   C200    1.419   .     S
C199   O258    1.282   .     A
C200   C224    1.397   .     A
C200   C227    1.397   .     A
C201   N250    1.366   .     A
C201   H248    1.082   .     S
C202   H230    1.082   .     S
C202   N249    1.366   .     A
C202   C401    1.416   .     S
C203   N250    1.366   .     A
C203   H231    1.082   .     S
C204   N249    1.366   .     A
C204   H232    1.082   .     S
C204   C399    1.416   .     S
C205   O262    1.285   .     A
C205   C211    1.429   .     S
C205   O259    1.282   .     A
C206   C209    1.429   .     S
C206   O261    1.285   .     A
C206   O260    1.283   .     A
C207   C218    1.396   .     A
C207   C209    1.405   .     A
C207   N251    1.438   .     S
C208   C219    1.396   .     A
C208   N252    1.439   .     S
C208   C211    1.405   .     A
C209   C212    1.389   .     A
C210   O256    1.282   .     A
C210   C228    1.419   .     S
C210   O257    1.282   .     A
C211   C213    1.389   .     A
C212   H229    1.085   .     S
C212   C214    1.386   .     A
C213   C215    1.386   .     A
C213   H240    1.085   .     S
C214   C216    1.416   .     A
C214   C220    1.409   .     A
C215   C217    1.416   .     A
C215   C222    1.409   .     A
C216   C218    1.417   .     A
C216   C811    1.397   .     S
C217   C219    1.417   .     A
C217   C810    1.397   1_554 S
C218   C223    1.402   .     A
C219   C221    1.402   .     A
C220   N253    1.439   .     S
C220   C815    1.393   .     S
C221   H242    1.083   .     S
C221   C814    1.393   1_554 S
C222   N254    1.439   .     S
C222   C817    1.394   1_554 S
C223   H243    1.083   .     S
C223   C816    1.394   .     S
C224   H244    1.084   .     S
C224   C358    1.370   1_455 S
C225   C228    1.397   .     A
C225   H245    1.084   .     S
C225   C293    1.370   .     S
C226   C228    1.397   .     A
C226   H246    1.084   .     S
C226   C290    1.370   .     S
C227   H247    1.084   .     S
C227   C357    1.370   1_455 S
H233   N251    1.044   .     S
H234   N251    1.046   .     S
H235   N252    1.046   .     S
H236   N252    1.044   .     S
H237   N253    1.046   .     S
H238   N253    1.046   .     S
H239   N254    1.046   .     S
H241   N254    1.046   .     S
N249   Zn263   2.008   .     S
N250   Zn264   2.008   .     S
O255   Zn263   1.999   .     S
O256   Zn264   1.999   .     S
O257   Zn263   2.000   .     S
O258   Zn264   2.000   .     S
O259   Zn263   2.017   .     S
O260   Zn264   2.017   .     S
O261   Zn263   2.012   .     S
O262   Zn264   2.012   .     S
C265   O321    1.282   .     A
C265   C266    1.419   .     S
C265   O324    1.282   .     A
C266   C290    1.397   .     A
C266   C293    1.397   .     A
C267   N316    1.366   .     A
C267   H314    1.082   .     S
C268   H296    1.082   .     S
C268   N315    1.366   .     A
C268   C467    1.416   .     S
C269   N316    1.366   .     A
C269   H297    1.082   .     S
C270   N315    1.366   .     A
C270   H298    1.082   .     S
C270   C465    1.416   .     S
C271   O328    1.285   .     A
C271   C277    1.429   .     S
C271   O325    1.282   .     A
C272   C275    1.429   .     S
C272   O327    1.285   .     A
C272   O326    1.283   .     A
C273   C284    1.396   .     A
C273   C275    1.405   .     A
C273   N317    1.438   .     S
C274   C285    1.396   .     A
C274   N318    1.439   .     S
C274   C277    1.405   .     A
C275   C278    1.389   .     A
C276   O322    1.282   .     A
C276   C294    1.419   .     S
C276   O323    1.282   .     A
C277   C279    1.389   .     A
C278   H295    1.085   .     S
C278   C280    1.386   .     A
C279   C281    1.386   .     A
C279   H306    1.085   .     S
C280   C282    1.416   .     A
C280   C286    1.409   .     A
C281   C283    1.416   .     A
C281   C288    1.409   .     A
C282   C284    1.417   .     A
C282   C877    1.397   .     S
C283   C285    1.417   .     A
C283   C876    1.397   1_554 S
C284   C289    1.402   .     A
C285   C287    1.402   .     A
C286   N319    1.439   .     S
C286   C881    1.393   .     S
C287   H308    1.083   .     S
C287   C880    1.393   1_554 S
C288   N320    1.439   .     S
C288   C883    1.394   1_554 S
C289   H309    1.083   .     S
C289   C882    1.394   .     S
C290   H310    1.084   .     S
C291   C294    1.397   .     A
C291   H311    1.084   .     S
C291   C359    1.370   .     S
C292   C294    1.397   .     A
C292   H312    1.084   .     S
C292   C356    1.370   .     S
C293   H313    1.084   .     S
H299   N317    1.044   .     S
H300   N317    1.046   .     S
H301   N318    1.046   .     S
H302   N318    1.044   .     S
H303   N319    1.046   .     S
H304   N319    1.046   .     S
H305   N320    1.046   .     S
H307   N320    1.046   .     S
N315   Zn329   2.008   .     S
N316   Zn330   2.008   .     S
O321   Zn329   1.999   .     S
O322   Zn330   1.999   .     S
O323   Zn329   2.000   .     S
O324   Zn330   2.000   .     S
O325   Zn329   2.017   .     S
O326   Zn330   2.017   .     S
O327   Zn329   2.012   .     S
O328   Zn330   2.012   .     S
C331   O387    1.282   .     A
C331   C332    1.419   .     S
C331   O390    1.282   .     A
C332   C356    1.397   .     A
C332   C359    1.397   .     A
C333   N382    1.366   .     A
C333   H380    1.082   .     S
C334   H362    1.082   .     S
C334   N381    1.366   .     A
C334   C533    1.416   .     S
C335   N382    1.366   .     A
C335   H363    1.082   .     S
C336   N381    1.366   .     A
C336   H364    1.082   .     S
C336   C531    1.416   .     S
C337   O394    1.285   .     A
C337   C343    1.429   .     S
C337   O391    1.282   .     A
C338   C341    1.429   .     S
C338   O393    1.285   .     A
C338   O392    1.283   .     A
C339   C350    1.396   .     A
C339   C341    1.405   .     A
C339   N383    1.438   .     S
C340   C351    1.396   .     A
C340   N384    1.439   .     S
C340   C343    1.405   .     A
C341   C344    1.389   .     A
C342   O388    1.282   .     A
C342   C360    1.419   .     S
C342   O389    1.282   .     A
C343   C345    1.389   .     A
C344   H361    1.085   .     S
C344   C346    1.386   .     A
C345   C347    1.386   .     A
C345   H372    1.085   .     S
C346   C348    1.416   .     A
C346   C352    1.409   .     A
C347   C349    1.416   .     A
C347   C354    1.409   .     A
C348   C350    1.417   .     A
C348   C943    1.397   .     S
C349   C351    1.417   .     A
C349   C942    1.397   1_554 S
C350   C355    1.402   .     A
C351   C353    1.402   .     A
C352   N385    1.439   .     S
C352   C947    1.393   .     S
C353   H374    1.083   .     S
C353   C946    1.393   1_554 S
C354   N386    1.439   .     S
C354   C949    1.394   1_554 S
C355   H375    1.083   .     S
C355   C948    1.394   .     S
C356   H376    1.084   .     S
C357   C360    1.397   .     A
C357   H377    1.084   .     S
C357   C227    1.370   1_655 S
C358   C360    1.397   .     A
C358   H378    1.084   .     S
C358   C224    1.370   1_655 S
C359   H379    1.084   .     S
H365   N383    1.044   .     S
H366   N383    1.046   .     S
H367   N384    1.046   .     S
H368   N384    1.044   .     S
H369   N385    1.046   .     S
H370   N385    1.046   .     S
H371   N386    1.046   .     S
H373   N386    1.046   .     S
N381   Zn395   2.008   .     S
N382   Zn396   2.008   .     S
O387   Zn395   1.999   .     S
O388   Zn396   1.999   .     S
O389   Zn395   2.000   .     S
O390   Zn396   2.000   .     S
O391   Zn395   2.017   .     S
O392   Zn396   2.017   .     S
O393   Zn395   2.012   .     S
O394   Zn396   2.012   .     S
C397   O453    1.282   .     A
C397   C398    1.419   .     S
C397   O456    1.282   .     A
C398   C422    1.397   .     A
C398   C425    1.397   .     A
C399   N448    1.366   .     A
C399   H446    1.082   .     S
C400   H428    1.082   .     S
C400   N447    1.366   .     A
C400   C5      1.416   1_565 S
C401   N448    1.366   .     A
C401   H429    1.082   .     S
C402   N447    1.366   .     A
C402   H430    1.082   .     S
C402   C3      1.416   1_565 S
C403   O460    1.285   .     A
C403   C409    1.429   .     S
C403   O457    1.282   .     A
C404   C407    1.429   .     S
C404   O459    1.285   .     A
C404   O458    1.283   .     A
C405   C416    1.396   .     A
C405   C407    1.405   .     A
C405   N449    1.438   .     S
C406   C417    1.396   .     A
C406   N450    1.439   .     S
C406   C409    1.405   .     A
C407   C410    1.389   .     A
C408   O454    1.282   .     A
C408   C426    1.419   .     S
C408   O455    1.282   .     A
C409   C411    1.389   .     A
C410   H427    1.085   .     S
C410   C412    1.386   .     A
C411   C413    1.386   .     A
C411   H438    1.085   .     S
C412   C414    1.416   .     A
C412   C418    1.409   .     A
C413   C415    1.416   .     A
C413   C420    1.409   .     A
C414   C416    1.417   .     A
C414   C1009   1.397   .     S
C415   C417    1.417   .     A
C415   C1008   1.397   1_554 S
C416   C421    1.402   .     A
C417   C419    1.402   .     A
C418   N451    1.439   .     S
C418   C1013   1.393   .     S
C419   H440    1.083   .     S
C419   C1012   1.393   1_554 S
C420   N452    1.439   .     S
C420   C1015   1.394   1_554 S
C421   H441    1.083   .     S
C421   C1014   1.394   .     S
C422   H442    1.084   .     S
C422   C556    1.370   1_455 S
C423   C426    1.397   .     A
C423   H443    1.084   .     S
C423   C491    1.370   .     S
C424   C426    1.397   .     A
C424   H444    1.084   .     S
C424   C488    1.370   .     S
C425   H445    1.084   .     S
C425   C555    1.370   1_455 S
H431   N449    1.044   .     S
H432   N449    1.046   .     S
H433   N450    1.046   .     S
H434   N450    1.044   .     S
H435   N451    1.046   .     S
H436   N451    1.046   .     S
H437   N452    1.046   .     S
H439   N452    1.046   .     S
N447   Zn461   2.008   .     S
N448   Zn462   2.008   .     S
O453   Zn461   1.999   .     S
O454   Zn462   1.999   .     S
O455   Zn461   2.000   .     S
O456   Zn462   2.000   .     S
O457   Zn461   2.017   .     S
O458   Zn462   2.017   .     S
O459   Zn461   2.012   .     S
O460   Zn462   2.012   .     S
C463   O519    1.282   .     A
C463   C464    1.419   .     S
C463   O522    1.282   .     A
C464   C488    1.397   .     A
C464   C491    1.397   .     A
C465   N514    1.366   .     A
C465   H512    1.082   .     S
C466   H494    1.082   .     S
C466   N513    1.366   .     A
C466   C71     1.416   1_565 S
C467   N514    1.366   .     A
C467   H495    1.082   .     S
C468   N513    1.366   .     A
C468   H496    1.082   .     S
C468   C69     1.416   1_565 S
C469   O526    1.285   .     A
C469   C475    1.429   .     S
C469   O523    1.282   .     A
C470   C473    1.429   .     S
C470   O525    1.285   .     A
C470   O524    1.283   .     A
C471   C482    1.396   .     A
C471   C473    1.405   .     A
C471   N515    1.438   .     S
C472   C483    1.396   .     A
C472   N516    1.439   .     S
C472   C475    1.405   .     A
C473   C476    1.389   .     A
C474   O520    1.282   .     A
C474   C492    1.419   .     S
C474   O521    1.282   .     A
C475   C477    1.389   .     A
C476   H493    1.085   .     S
C476   C478    1.386   .     A
C477   C479    1.386   .     A
C477   H504    1.085   .     S
C478   C480    1.416   .     A
C478   C484    1.409   .     A
C479   C481    1.416   .     A
C479   C486    1.409   .     A
C480   C482    1.417   .     A
C480   C1075   1.397   .     S
C481   C483    1.417   .     A
C481   C1074   1.397   1_554 S
C482   C487    1.402   .     A
C483   C485    1.402   .     A
C484   N517    1.439   .     S
C484   C1079   1.393   .     S
C485   H506    1.083   .     S
C485   C1078   1.393   1_554 S
C486   N518    1.439   .     S
C486   C1081   1.394   1_554 S
C487   H507    1.083   .     S
C487   C1080   1.394   .     S
C488   H508    1.084   .     S
C489   C492    1.397   .     A
C489   H509    1.084   .     S
C489   C557    1.370   .     S
C490   C492    1.397   .     A
C490   H510    1.084   .     S
C490   C554    1.370   .     S
C491   H511    1.084   .     S
H497   N515    1.044   .     S
H498   N515    1.046   .     S
H499   N516    1.046   .     S
H500   N516    1.044   .     S
H501   N517    1.046   .     S
H502   N517    1.046   .     S
H503   N518    1.046   .     S
H505   N518    1.046   .     S
N513   Zn527   2.008   .     S
N514   Zn528   2.008   .     S
O519   Zn527   1.999   .     S
O520   Zn528   1.999   .     S
O521   Zn527   2.000   .     S
O522   Zn528   2.000   .     S
O523   Zn527   2.017   .     S
O524   Zn528   2.017   .     S
O525   Zn527   2.012   .     S
O526   Zn528   2.012   .     S
C529   O585    1.282   .     A
C529   C530    1.419   .     S
C529   O588    1.282   .     A
C530   C554    1.397   .     A
C530   C557    1.397   .     A
C531   N580    1.366   .     A
C531   H578    1.082   .     S
C532   H560    1.082   .     S
C532   N579    1.366   .     A
C532   C137    1.416   1_565 S
C533   N580    1.366   .     A
C533   H561    1.082   .     S
C534   N579    1.366   .     A
C534   H562    1.082   .     S
C534   C135    1.416   1_565 S
C535   O592    1.285   .     A
C535   C541    1.429   .     S
C535   O589    1.282   .     A
C536   C539    1.429   .     S
C536   O591    1.285   .     A
C536   O590    1.283   .     A
C537   C548    1.396   .     A
C537   C539    1.405   .     A
C537   N581    1.438   .     S
C538   C549    1.396   .     A
C538   N582    1.439   .     S
C538   C541    1.405   .     A
C539   C542    1.389   .     A
C540   O586    1.282   .     A
C540   C558    1.419   .     S
C540   O587    1.282   .     A
C541   C543    1.389   .     A
C542   H559    1.085   .     S
C542   C544    1.386   .     A
C543   C545    1.386   .     A
C543   H570    1.085   .     S
C544   C546    1.416   .     A
C544   C550    1.409   .     A
C545   C547    1.416   .     A
C545   C552    1.409   .     A
C546   C548    1.417   .     A
C546   C1141   1.397   .     S
C547   C549    1.417   .     A
C547   C1140   1.397   1_554 S
C548   C553    1.402   .     A
C549   C551    1.402   .     A
C550   N583    1.439   .     S
C550   C1145   1.393   .     S
C551   H572    1.083   .     S
C551   C1144   1.393   1_554 S
C552   N584    1.439   .     S
C552   C1147   1.394   1_554 S
C553   H573    1.083   .     S
C553   C1146   1.394   .     S
C554   H574    1.084   .     S
C555   C558    1.397   .     A
C555   H575    1.084   .     S
C555   C425    1.370   1_655 S
C556   C558    1.397   .     A
C556   H576    1.084   .     S
C556   C422    1.370   1_655 S
C557   H577    1.084   .     S
H563   N581    1.044   .     S
H564   N581    1.046   .     S
H565   N582    1.046   .     S
H566   N582    1.044   .     S
H567   N583    1.046   .     S
H568   N583    1.046   .     S
H569   N584    1.046   .     S
H571   N584    1.046   .     S
N579   Zn593   2.008   .     S
N580   Zn594   2.008   .     S
O585   Zn593   1.999   .     S
O586   Zn594   1.999   .     S
O587   Zn593   2.000   .     S
O588   Zn594   2.000   .     S
O589   Zn593   2.017   .     S
O590   Zn594   2.017   .     S
O591   Zn593   2.012   .     S
O592   Zn594   2.012   .     S
C595   O651    1.282   .     A
C595   C596    1.419   .     S
C595   O654    1.282   .     A
C596   C620    1.397   .     A
C596   C623    1.397   .     A
C597   N646    1.366   .     A
C597   H644    1.082   .     S
C597   C996    1.416   1_545 S
C598   H626    1.082   .     S
C598   N645    1.366   .     A
C598   C797    1.416   .     S
C599   N646    1.366   .     A
C599   H627    1.082   .     S
C599   C994    1.416   1_545 S
C600   N645    1.366   .     A
C600   H628    1.082   .     S
C600   C795    1.416   .     S
C601   O658    1.285   .     A
C601   C607    1.429   .     S
C601   O655    1.282   .     A
C602   C605    1.429   .     S
C602   O657    1.285   .     A
C602   O656    1.283   .     A
C603   C614    1.396   .     A
C603   C605    1.405   .     A
C603   N647    1.438   .     S
C604   C615    1.396   .     A
C604   N648    1.439   .     S
C604   C607    1.405   .     A
C605   C608    1.389   .     A
C606   O652    1.282   .     A
C606   C624    1.419   .     S
C606   O653    1.282   .     A
C607   C609    1.389   .     A
C608   H625    1.085   .     S
C608   C610    1.386   .     A
C609   C611    1.386   .     A
C609   H636    1.085   .     S
C610   C612    1.416   .     A
C610   C616    1.409   .     A
C611   C613    1.416   .     A
C611   C618    1.409   .     A
C612   C614    1.417   .     A
C612   C19     1.397   1_556 S
C613   C615    1.417   .     A
C614   C619    1.402   .     A
C615   C617    1.402   .     A
C616   N649    1.439   .     S
C616   C23     1.393   1_556 S
C617   H638    1.083   .     S
C618   N650    1.439   .     S
C619   H639    1.083   .     S
C619   C24     1.394   1_556 S
C620   H640    1.084   .     S
C620   C754    1.370   1_455 S
C621   C624    1.397   .     A
C621   H641    1.084   .     S
C621   C689    1.370   .     S
C622   C624    1.397   .     A
C622   H642    1.084   .     S
C622   C686    1.370   .     S
C623   H643    1.084   .     S
C623   C753    1.370   1_455 S
H629   N647    1.044   .     S
H630   N647    1.046   .     S
H631   N648    1.046   .     S
H632   N648    1.044   .     S
H633   N649    1.046   .     S
H634   N649    1.046   .     S
H635   N650    1.046   .     S
H637   N650    1.046   .     S
N645   Zn659   2.008   .     S
N646   Zn660   2.008   .     S
O651   Zn659   1.999   .     S
O652   Zn660   1.999   .     S
O653   Zn659   2.000   .     S
O654   Zn660   2.000   .     S
O655   Zn659   2.017   .     S
O656   Zn660   2.017   .     S
O657   Zn659   2.012   .     S
O658   Zn660   2.012   .     S
C661   O717    1.282   .     A
C661   C662    1.419   .     S
C661   O720    1.282   .     A
C662   C686    1.397   .     A
C662   C689    1.397   .     A
C663   N712    1.366   .     A
C663   H710    1.082   .     S
C663   C1062   1.416   1_545 S
C664   H692    1.082   .     S
C664   N711    1.366   .     A
C664   C863    1.416   .     S
C665   N712    1.366   .     A
C665   H693    1.082   .     S
C665   C1060   1.416   1_545 S
C666   N711    1.366   .     A
C666   H694    1.082   .     S
C666   C861    1.416   .     S
C667   O724    1.285   .     A
C667   C673    1.429   .     S
C667   O721    1.282   .     A
C668   C671    1.429   .     S
C668   O723    1.285   .     A
C668   O722    1.283   .     A
C669   C680    1.396   .     A
C669   C671    1.405   .     A
C669   N713    1.438   .     S
C670   C681    1.396   .     A
C670   N714    1.439   .     S
C670   C673    1.405   .     A
C671   C674    1.389   .     A
C672   O718    1.282   .     A
C672   C690    1.419   .     S
C672   O719    1.282   .     A
C673   C675    1.389   .     A
C674   H691    1.085   .     S
C674   C676    1.386   .     A
C675   C677    1.386   .     A
C675   H702    1.085   .     S
C676   C678    1.416   .     A
C676   C682    1.409   .     A
C677   C679    1.416   .     A
C677   C684    1.409   .     A
C678   C680    1.417   .     A
C678   C85     1.397   1_556 S
C679   C681    1.417   .     A
C680   C685    1.402   .     A
C681   C683    1.402   .     A
C682   N715    1.439   .     S
C682   C89     1.393   1_556 S
C683   H704    1.083   .     S
C684   N716    1.439   .     S
C685   H705    1.083   .     S
C685   C90     1.394   1_556 S
C686   H706    1.084   .     S
C687   C690    1.397   .     A
C687   H707    1.084   .     S
C687   C755    1.370   .     S
C688   C690    1.397   .     A
C688   H708    1.084   .     S
C688   C752    1.370   .     S
C689   H709    1.084   .     S
H695   N713    1.044   .     S
H696   N713    1.046   .     S
H697   N714    1.046   .     S
H698   N714    1.044   .     S
H699   N715    1.046   .     S
H700   N715    1.046   .     S
H701   N716    1.046   .     S
H703   N716    1.046   .     S
N711   Zn725   2.008   .     S
N712   Zn726   2.008   .     S
O717   Zn725   1.999   .     S
O718   Zn726   1.999   .     S
O719   Zn725   2.000   .     S
O720   Zn726   2.000   .     S
O721   Zn725   2.017   .     S
O722   Zn726   2.017   .     S
O723   Zn725   2.012   .     S
O724   Zn726   2.012   .     S
C727   O783    1.282   .     A
C727   C728    1.419   .     S
C727   O786    1.282   .     A
C728   C752    1.397   .     A
C728   C755    1.397   .     A
C729   N778    1.366   .     A
C729   H776    1.082   .     S
C729   C1128   1.416   1_545 S
C730   H758    1.082   .     S
C730   N777    1.366   .     A
C730   C929    1.416   .     S
C731   N778    1.366   .     A
C731   H759    1.082   .     S
C731   C1126   1.416   1_545 S
C732   N777    1.366   .     A
C732   H760    1.082   .     S
C732   C927    1.416   .     S
C733   O790    1.285   .     A
C733   C739    1.429   .     S
C733   O787    1.282   .     A
C734   C737    1.429   .     S
C734   O789    1.285   .     A
C734   O788    1.283   .     A
C735   C746    1.396   .     A
C735   C737    1.405   .     A
C735   N779    1.438   .     S
C736   C747    1.396   .     A
C736   N780    1.439   .     S
C736   C739    1.405   .     A
C737   C740    1.389   .     A
C738   O784    1.282   .     A
C738   C756    1.419   .     S
C738   O785    1.282   .     A
C739   C741    1.389   .     A
C740   H757    1.085   .     S
C740   C742    1.386   .     A
C741   C743    1.386   .     A
C741   H768    1.085   .     S
C742   C744    1.416   .     A
C742   C748    1.409   .     A
C743   C745    1.416   .     A
C743   C750    1.409   .     A
C744   C746    1.417   .     A
C744   C151    1.397   1_556 S
C745   C747    1.417   .     A
C746   C751    1.402   .     A
C747   C749    1.402   .     A
C748   N781    1.439   .     S
C748   C155    1.393   1_556 S
C749   H770    1.083   .     S
C750   N782    1.439   .     S
C751   H771    1.083   .     S
C751   C156    1.394   1_556 S
C752   H772    1.084   .     S
C753   C756    1.397   .     A
C753   H773    1.084   .     S
C753   C623    1.370   1_655 S
C754   C756    1.397   .     A
C754   H774    1.084   .     S
C754   C620    1.370   1_655 S
C755   H775    1.084   .     S
H761   N779    1.044   .     S
H762   N779    1.046   .     S
H763   N780    1.046   .     S
H764   N780    1.044   .     S
H765   N781    1.046   .     S
H766   N781    1.046   .     S
H767   N782    1.046   .     S
H769   N782    1.046   .     S
N777   Zn791   2.008   .     S
N778   Zn792   2.008   .     S
O783   Zn791   1.999   .     S
O784   Zn792   1.999   .     S
O785   Zn791   2.000   .     S
O786   Zn792   2.000   .     S
O787   Zn791   2.017   .     S
O788   Zn792   2.017   .     S
O789   Zn791   2.012   .     S
O790   Zn792   2.012   .     S
C793   O849    1.282   .     A
C793   C794    1.419   .     S
C793   O852    1.282   .     A
C794   C818    1.397   .     A
C794   C821    1.397   .     A
C795   N844    1.366   .     A
C795   H842    1.082   .     S
C796   H824    1.082   .     S
C796   N843    1.366   .     A
C796   C995    1.416   .     S
C797   N844    1.366   .     A
C797   H825    1.082   .     S
C798   N843    1.366   .     A
C798   H826    1.082   .     S
C798   C993    1.416   .     S
C799   O856    1.285   .     A
C799   C805    1.429   .     S
C799   O853    1.282   .     A
C800   C803    1.429   .     S
C800   O855    1.285   .     A
C800   O854    1.283   .     A
C801   C812    1.396   .     A
C801   C803    1.405   .     A
C801   N845    1.438   .     S
C802   C813    1.396   .     A
C802   N846    1.439   .     S
C802   C805    1.405   .     A
C803   C806    1.389   .     A
C804   O850    1.282   .     A
C804   C822    1.419   .     S
C804   O851    1.282   .     A
C805   C807    1.389   .     A
C806   H823    1.085   .     S
C806   C808    1.386   .     A
C807   C809    1.386   .     A
C807   H834    1.085   .     S
C808   C810    1.416   .     A
C808   C814    1.409   .     A
C809   C811    1.416   .     A
C809   C816    1.409   .     A
C810   C812    1.417   .     A
C810   C217    1.397   1_556 S
C811   C813    1.417   .     A
C812   C817    1.402   .     A
C813   C815    1.402   .     A
C814   N847    1.439   .     S
C814   C221    1.393   1_556 S
C815   H836    1.083   .     S
C816   N848    1.439   .     S
C817   H837    1.083   .     S
C817   C222    1.394   1_556 S
C818   H838    1.084   .     S
C818   C952    1.370   1_455 S
C819   C822    1.397   .     A
C819   H839    1.084   .     S
C819   C887    1.370   .     S
C820   C822    1.397   .     A
C820   H840    1.084   .     S
C820   C884    1.370   .     S
C821   H841    1.084   .     S
C821   C951    1.370   1_455 S
H827   N845    1.044   .     S
H828   N845    1.046   .     S
H829   N846    1.046   .     S
H830   N846    1.044   .     S
H831   N847    1.046   .     S
H832   N847    1.046   .     S
H833   N848    1.046   .     S
H835   N848    1.046   .     S
N843   Zn857   2.008   .     S
N844   Zn858   2.008   .     S
O849   Zn857   1.999   .     S
O850   Zn858   1.999   .     S
O851   Zn857   2.000   .     S
O852   Zn858   2.000   .     S
O853   Zn857   2.017   .     S
O854   Zn858   2.017   .     S
O855   Zn857   2.012   .     S
O856   Zn858   2.012   .     S
C859   O915    1.282   .     A
C859   C860    1.419   .     S
C859   O918    1.282   .     A
C860   C884    1.397   .     A
C860   C887    1.397   .     A
C861   N910    1.366   .     A
C861   H908    1.082   .     S
C862   H890    1.082   .     S
C862   N909    1.366   .     A
C862   C1061   1.416   .     S
C863   N910    1.366   .     A
C863   H891    1.082   .     S
C864   N909    1.366   .     A
C864   H892    1.082   .     S
C864   C1059   1.416   .     S
C865   O922    1.285   .     A
C865   C871    1.429   .     S
C865   O919    1.282   .     A
C866   C869    1.429   .     S
C866   O921    1.285   .     A
C866   O920    1.283   .     A
C867   C878    1.396   .     A
C867   C869    1.405   .     A
C867   N911    1.438   .     S
C868   C879    1.396   .     A
C868   N912    1.439   .     S
C868   C871    1.405   .     A
C869   C872    1.389   .     A
C870   O916    1.282   .     A
C870   C888    1.419   .     S
C870   O917    1.282   .     A
C871   C873    1.389   .     A
C872   H889    1.085   .     S
C872   C874    1.386   .     A
C873   C875    1.386   .     A
C873   H900    1.085   .     S
C874   C876    1.416   .     A
C874   C880    1.409   .     A
C875   C877    1.416   .     A
C875   C882    1.409   .     A
C876   C878    1.417   .     A
C876   C283    1.397   1_556 S
C877   C879    1.417   .     A
C878   C883    1.402   .     A
C879   C881    1.402   .     A
C880   N913    1.439   .     S
C880   C287    1.393   1_556 S
C881   H902    1.083   .     S
C882   N914    1.439   .     S
C883   H903    1.083   .     S
C883   C288    1.394   1_556 S
C884   H904    1.084   .     S
C885   C888    1.397   .     A
C885   H905    1.084   .     S
C885   C953    1.370   .     S
C886   C888    1.397   .     A
C886   H906    1.084   .     S
C886   C950    1.370   .     S
C887   H907    1.084   .     S
H893   N911    1.044   .     S
H894   N911    1.046   .     S
H895   N912    1.046   .     S
H896   N912    1.044   .     S
H897   N913    1.046   .     S
H898   N913    1.046   .     S
H899   N914    1.046   .     S
H901   N914    1.046   .     S
N909   Zn923   2.008   .     S
N910   Zn924   2.008   .     S
O915   Zn923   1.999   .     S
O916   Zn924   1.999   .     S
O917   Zn923   2.000   .     S
O918   Zn924   2.000   .     S
O919   Zn923   2.017   .     S
O920   Zn924   2.017   .     S
O921   Zn923   2.012   .     S
O922   Zn924   2.012   .     S
C925   O981    1.282   .     A
C925   C926    1.419   .     S
C925   O984    1.282   .     A
C926   C950    1.397   .     A
C926   C953    1.397   .     A
C927   N976    1.366   .     A
C927   H974    1.082   .     S
C928   H956    1.082   .     S
C928   N975    1.366   .     A
C928   C1127   1.416   .     S
C929   N976    1.366   .     A
C929   H957    1.082   .     S
C930   N975    1.366   .     A
C930   H958    1.082   .     S
C930   C1125   1.416   .     S
C931   O988    1.285   .     A
C931   C937    1.429   .     S
C931   O985    1.282   .     A
C932   C935    1.429   .     S
C932   O987    1.285   .     A
C932   O986    1.283   .     A
C933   C944    1.396   .     A
C933   C935    1.405   .     A
C933   N977    1.438   .     S
C934   C945    1.396   .     A
C934   N978    1.439   .     S
C934   C937    1.405   .     A
C935   C938    1.389   .     A
C936   O982    1.282   .     A
C936   C954    1.419   .     S
C936   O983    1.282   .     A
C937   C939    1.389   .     A
C938   H955    1.085   .     S
C938   C940    1.386   .     A
C939   C941    1.386   .     A
C939   H966    1.085   .     S
C940   C942    1.416   .     A
C940   C946    1.409   .     A
C941   C943    1.416   .     A
C941   C948    1.409   .     A
C942   C944    1.417   .     A
C942   C349    1.397   1_556 S
C943   C945    1.417   .     A
C944   C949    1.402   .     A
C945   C947    1.402   .     A
C946   N979    1.439   .     S
C946   C353    1.393   1_556 S
C947   H968    1.083   .     S
C948   N980    1.439   .     S
C949   H969    1.083   .     S
C949   C354    1.394   1_556 S
C950   H970    1.084   .     S
C951   C954    1.397   .     A
C951   H971    1.084   .     S
C951   C821    1.370   1_655 S
C952   C954    1.397   .     A
C952   H972    1.084   .     S
C952   C818    1.370   1_655 S
C953   H973    1.084   .     S
H959   N977    1.044   .     S
H960   N977    1.046   .     S
H961   N978    1.046   .     S
H962   N978    1.044   .     S
H963   N979    1.046   .     S
H964   N979    1.046   .     S
H965   N980    1.046   .     S
H967   N980    1.046   .     S
N975   Zn989   2.008   .     S
N976   Zn990   2.008   .     S
O981   Zn989   1.999   .     S
O982   Zn990   1.999   .     S
O983   Zn989   2.000   .     S
O984   Zn990   2.000   .     S
O985   Zn989   2.017   .     S
O986   Zn990   2.017   .     S
O987   Zn989   2.012   .     S
O988   Zn990   2.012   .     S
C991   O1047   1.282   .     A
C991   C992    1.419   .     S
C991   O1050   1.282   .     A
C992   C1016   1.397   .     A
C992   C1019   1.397   .     A
C993   N1042   1.366   .     A
C993   H1040   1.082   .     S
C994   H1022   1.082   .     S
C994   N1041   1.366   .     A
C994   C599    1.416   1_565 S
C995   N1042   1.366   .     A
C995   H1023   1.082   .     S
C996   N1041   1.366   .     A
C996   H1024   1.082   .     S
C996   C597    1.416   1_565 S
C997   O1054   1.285   .     A
C997   C1003   1.429   .     S
C997   O1051   1.282   .     A
C998   C1001   1.429   .     S
C998   O1053   1.285   .     A
C998   O1052   1.283   .     A
C999   C1010   1.396   .     A
C999   C1001   1.405   .     A
C999   N1043   1.438   .     S
C1000  C1011   1.396   .     A
C1000  N1044   1.439   .     S
C1000  C1003   1.405   .     A
C1001  C1004   1.389   .     A
C1002  O1048   1.282   .     A
C1002  C1020   1.419   .     S
C1002  O1049   1.282   .     A
C1003  C1005   1.389   .     A
C1004  H1021   1.085   .     S
C1004  C1006   1.386   .     A
C1005  C1007   1.386   .     A
C1005  H1032   1.085   .     S
C1006  C1008   1.416   .     A
C1006  C1012   1.409   .     A
C1007  C1009   1.416   .     A
C1007  C1014   1.409   .     A
C1008  C1010   1.417   .     A
C1008  C415    1.397   1_556 S
C1009  C1011   1.417   .     A
C1010  C1015   1.402   .     A
C1011  C1013   1.402   .     A
C1012  N1045   1.439   .     S
C1012  C419    1.393   1_556 S
C1013  H1034   1.083   .     S
C1014  N1046   1.439   .     S
C1015  H1035   1.083   .     S
C1015  C420    1.394   1_556 S
C1016  H1036   1.084   .     S
C1016  C1150   1.370   1_455 S
C1017  C1020   1.397   .     A
C1017  H1037   1.084   .     S
C1017  C1085   1.370   .     S
C1018  C1020   1.397   .     A
C1018  H1038   1.084   .     S
C1018  C1082   1.370   .     S
C1019  H1039   1.084   .     S
C1019  C1149   1.370   1_455 S
H1025  N1043   1.044   .     S
H1026  N1043   1.046   .     S
H1027  N1044   1.046   .     S
H1028  N1044   1.044   .     S
H1029  N1045   1.046   .     S
H1030  N1045   1.046   .     S
H1031  N1046   1.046   .     S
H1033  N1046   1.046   .     S
N1041  Zn1055  2.008   .     S
N1042  Zn1056  2.008   .     S
O1047  Zn1055  1.999   .     S
O1048  Zn1056  1.999   .     S
O1049  Zn1055  2.000   .     S
O1050  Zn1056  2.000   .     S
O1051  Zn1055  2.017   .     S
O1052  Zn1056  2.017   .     S
O1053  Zn1055  2.012   .     S
O1054  Zn1056  2.012   .     S
C1057  O1113   1.282   .     A
C1057  C1058   1.419   .     S
C1057  O1116   1.282   .     A
C1058  C1082   1.397   .     A
C1058  C1085   1.397   .     A
C1059  N1108   1.366   .     A
C1059  H1106   1.082   .     S
C1060  H1088   1.082   .     S
C1060  N1107   1.366   .     A
C1060  C665    1.416   1_565 S
C1061  N1108   1.366   .     A
C1061  H1089   1.082   .     S
C1062  N1107   1.366   .     A
C1062  H1090   1.082   .     S
C1062  C663    1.416   1_565 S
C1063  O1120   1.285   .     A
C1063  C1069   1.429   .     S
C1063  O1117   1.282   .     A
C1064  C1067   1.429   .     S
C1064  O1119   1.285   .     A
C1064  O1118   1.283   .     A
C1065  C1076   1.396   .     A
C1065  C1067   1.405   .     A
C1065  N1109   1.438   .     S
C1066  C1077   1.396   .     A
C1066  N1110   1.439   .     S
C1066  C1069   1.405   .     A
C1067  C1070   1.389   .     A
C1068  O1114   1.282   .     A
C1068  C1086   1.419   .     S
C1068  O1115   1.282   .     A
C1069  C1071   1.389   .     A
C1070  H1087   1.085   .     S
C1070  C1072   1.386   .     A
C1071  C1073   1.386   .     A
C1071  H1098   1.085   .     S
C1072  C1074   1.416   .     A
C1072  C1078   1.409   .     A
C1073  C1075   1.416   .     A
C1073  C1080   1.409   .     A
C1074  C1076   1.417   .     A
C1074  C481    1.397   1_556 S
C1075  C1077   1.417   .     A
C1076  C1081   1.402   .     A
C1077  C1079   1.402   .     A
C1078  N1111   1.439   .     S
C1078  C485    1.393   1_556 S
C1079  H1100   1.083   .     S
C1080  N1112   1.439   .     S
C1081  H1101   1.083   .     S
C1081  C486    1.394   1_556 S
C1082  H1102   1.084   .     S
C1083  C1086   1.397   .     A
C1083  H1103   1.084   .     S
C1083  C1151   1.370   .     S
C1084  C1086   1.397   .     A
C1084  H1104   1.084   .     S
C1084  C1148   1.370   .     S
C1085  H1105   1.084   .     S
H1091  N1109   1.044   .     S
H1092  N1109   1.046   .     S
H1093  N1110   1.046   .     S
H1094  N1110   1.044   .     S
H1095  N1111   1.046   .     S
H1096  N1111   1.046   .     S
H1097  N1112   1.046   .     S
H1099  N1112   1.046   .     S
N1107  Zn1121  2.008   .     S
N1108  Zn1122  2.008   .     S
O1113  Zn1121  1.999   .     S
O1114  Zn1122  1.999   .     S
O1115  Zn1121  2.000   .     S
O1116  Zn1122  2.000   .     S
O1117  Zn1121  2.017   .     S
O1118  Zn1122  2.017   .     S
O1119  Zn1121  2.012   .     S
O1120  Zn1122  2.012   .     S
C1123  O1179   1.282   .     A
C1123  C1124   1.419   .     S
C1123  O1182   1.282   .     A
C1124  C1148   1.397   .     A
C1124  C1151   1.397   .     A
C1125  N1174   1.366   .     A
C1125  H1172   1.082   .     S
C1126  H1154   1.082   .     S
C1126  N1173   1.366   .     A
C1126  C731    1.416   1_565 S
C1127  N1174   1.366   .     A
C1127  H1155   1.082   .     S
C1128  N1173   1.366   .     A
C1128  H1156   1.082   .     S
C1128  C729    1.416   1_565 S
C1129  O1186   1.285   .     A
C1129  C1135   1.429   .     S
C1129  O1183   1.282   .     A
C1130  C1133   1.429   .     S
C1130  O1185   1.285   .     A
C1130  O1184   1.283   .     A
C1131  C1142   1.396   .     A
C1131  C1133   1.405   .     A
C1131  N1175   1.438   .     S
C1132  C1143   1.396   .     A
C1132  N1176   1.439   .     S
C1132  C1135   1.405   .     A
C1133  C1136   1.389   .     A
C1134  O1180   1.282   .     A
C1134  C1152   1.419   .     S
C1134  O1181   1.282   .     A
C1135  C1137   1.389   .     A
C1136  H1153   1.085   .     S
C1136  C1138   1.386   .     A
C1137  C1139   1.386   .     A
C1137  H1164   1.085   .     S
C1138  C1140   1.416   .     A
C1138  C1144   1.409   .     A
C1139  C1141   1.416   .     A
C1139  C1146   1.409   .     A
C1140  C1142   1.417   .     A
C1140  C547    1.397   1_556 S
C1141  C1143   1.417   .     A
C1142  C1147   1.402   .     A
C1143  C1145   1.402   .     A
C1144  N1177   1.439   .     S
C1144  C551    1.393   1_556 S
C1145  H1166   1.083   .     S
C1146  N1178   1.439   .     S
C1147  H1167   1.083   .     S
C1147  C552    1.394   1_556 S
C1148  H1168   1.084   .     S
C1149  C1152   1.397   .     A
C1149  H1169   1.084   .     S
C1149  C1019   1.370   1_655 S
C1150  C1152   1.397   .     A
C1150  H1170   1.084   .     S
C1150  C1016   1.370   1_655 S
C1151  H1171   1.084   .     S
H1157  N1175   1.044   .     S
H1158  N1175   1.046   .     S
H1159  N1176   1.046   .     S
H1160  N1176   1.044   .     S
H1161  N1177   1.046   .     S
H1162  N1177   1.046   .     S
H1163  N1178   1.046   .     S
H1165  N1178   1.046   .     S
N1173  Zn1187  2.008   .     S
N1174  Zn1188  2.008   .     S
O1179  Zn1187  1.999   .     S
O1180  Zn1188  1.999   .     S
O1181  Zn1187  2.000   .     S
O1182  Zn1188  2.000   .     S
O1183  Zn1187  2.017   .     S
O1184  Zn1188  2.017   .     S
O1185  Zn1187  2.012   .     S
O1186  Zn1188  2.012   .     S
