data_str_m3_o10_o17_pcu_sym.54
_audit_creation_date              2020-01-03
_audit_creation_method            'Materials Studio'
_symmetry_space_group_name_H-M    'P1'
_symmetry_Int_Tables_number       1
_symmetry_cell_setting            triclinic
loop_
_symmetry_equiv_pos_as_xyz
  x,y,z
_cell_length_a                    23.2816
_cell_length_b                    25.7102
_cell_length_c                    29.8835
_cell_angle_alpha                 91.1750
_cell_angle_beta                  85.5953
_cell_angle_gamma                 93.8145
loop_
_atom_site_label
_atom_site_type_symbol
_atom_site_fract_x
_atom_site_fract_y
_atom_site_fract_z
_atom_site_U_iso_or_equiv
_atom_site_adp_type
_atom_site_occupancy
Br1    Br    0.33094   0.24349   0.04314   0.00000  Uiso   1.00
Br2    Br    0.00239   0.08984   0.45686   0.00000  Uiso   1.00
C3     C     0.18198   0.26494   0.24883   0.00000  Uiso   1.00
C4     C     0.21635   0.18557   0.40452   0.00000  Uiso   1.00
C5     C     0.16544   0.16853   0.11572   0.00000  Uiso   1.00
C6     C     0.16790   0.16480   0.38428   0.00000  Uiso   1.00
C7     C     0.21409   0.18958   0.09055   0.00000  Uiso   1.00
C8     C     0.11925   0.14376   0.40945   0.00000  Uiso   1.00
C9     C     0.21526   0.18964   0.04408   0.00000  Uiso   1.00
C10    C     0.11808   0.14370   0.45592   0.00000  Uiso   1.00
C11    C     0.16651   0.16739   0.02330   0.00000  Uiso   1.00
C12    C     0.16683   0.16595   0.47670   0.00000  Uiso   1.00
C13    C     0.11737   0.14649   0.04919   0.00000  Uiso   1.00
C14    C     0.15136   0.06840   0.25117   0.00000  Uiso   1.00
C15    C     0.21596   0.18685   0.45081   0.00000  Uiso   1.00
C16    C     0.26374   0.21096   0.01786   0.00000  Uiso   1.00
C17    C     0.06960   0.12237   0.48214   0.00000  Uiso   1.00
C18    C     0.26371   0.20927   0.47138   0.00000  Uiso   1.00
C19    C     0.06962   0.12406   0.02862   0.00000  Uiso   1.00
C20    C     0.19002   0.31945   0.24814   0.00000  Uiso   1.00
C21    C     0.14331   0.01388   0.25186   0.00000  Uiso   1.00
C22    C     0.16716   0.16619   0.33654   0.00000  Uiso   1.00
C23    C     0.16617   0.16715   0.16346   0.00000  Uiso   1.00
C24    C     0.11698   0.14777   0.09548   0.00000  Uiso   1.00
H25    H     0.07973   0.13138   0.11575   0.00000  Uiso   1.00
H26    H     0.32864   0.20572   0.28398   0.00000  Uiso   1.00
H27    H     0.25361   0.20196   0.38425   0.00000  Uiso   1.00
H28    H     0.25063   0.20586   0.10767   0.00000  Uiso   1.00
H29    H     0.08271   0.12747   0.39233   0.00000  Uiso   1.00
H30    H     0.30114   0.22551   0.45129   0.00000  Uiso   1.00
H31    H     0.03219   0.10782   0.04871   0.00000  Uiso   1.00
H32    H     0.23411   0.00323   0.24459   0.00000  Uiso   1.00
H33    H     0.09922   0.33011   0.25541   0.00000  Uiso   1.00
H34    H     0.00469   0.12761   0.21602   0.00000  Uiso   1.00
N35    N     0.31678   0.15265   0.23783   0.00000  Uiso   1.00
N36    N     0.01656   0.18068   0.26217   0.00000  Uiso   1.00
O37    O     0.12975   0.24619   0.25298   0.00000  Uiso   1.00
O38    O     0.20358   0.08714   0.24701   0.00000  Uiso   1.00
O39    O     0.22613   0.23721   0.24518   0.00000  Uiso   1.00
O40    O     0.10720   0.09613   0.25481   0.00000  Uiso   1.00
O41    O     0.11847   0.17117   0.31997   0.00000  Uiso   1.00
O42    O     0.21486   0.16216   0.18002   0.00000  Uiso   1.00
O43    O     0.21485   0.16219   0.31217   0.00000  Uiso   1.00
O44    O     0.11848   0.17115   0.18782   0.00000  Uiso   1.00
Zn45   Zn    0.10231   0.17266   0.25521   0.00000  Uiso   1.00
Zn46   Zn    0.23102   0.16067   0.24479   0.00000  Uiso   1.00
Br47   Br    0.66428   0.24349   0.04314   0.00000  Uiso   1.00
Br48   Br    0.33572   0.08984   0.45686   0.00000  Uiso   1.00
C49    C     0.51531   0.26494   0.24883   0.00000  Uiso   1.00
C50    C     0.54969   0.18557   0.40452   0.00000  Uiso   1.00
C51    C     0.49877   0.16853   0.11572   0.00000  Uiso   1.00
C52    C     0.50123   0.16480   0.38428   0.00000  Uiso   1.00
C53    C     0.54742   0.18958   0.09055   0.00000  Uiso   1.00
C54    C     0.45258   0.14376   0.40945   0.00000  Uiso   1.00
C55    C     0.54859   0.18964   0.04408   0.00000  Uiso   1.00
C56    C     0.45141   0.14370   0.45592   0.00000  Uiso   1.00
C57    C     0.49984   0.16739   0.02330   0.00000  Uiso   1.00
C58    C     0.50016   0.16595   0.47670   0.00000  Uiso   1.00
C59    C     0.45070   0.14649   0.04919   0.00000  Uiso   1.00
C60    C     0.48469   0.06840   0.25117   0.00000  Uiso   1.00
C61    C     0.54929   0.18685   0.45081   0.00000  Uiso   1.00
C62    C     0.59707   0.21096   0.01786   0.00000  Uiso   1.00
C63    C     0.40293   0.12237   0.48214   0.00000  Uiso   1.00
C64    C     0.59705   0.20927   0.47138   0.00000  Uiso   1.00
C65    C     0.40295   0.12406   0.02862   0.00000  Uiso   1.00
C66    C     0.52336   0.31945   0.24814   0.00000  Uiso   1.00
C67    C     0.47664   0.01388   0.25186   0.00000  Uiso   1.00
C68    C     0.50050   0.16619   0.33654   0.00000  Uiso   1.00
C69    C     0.49950   0.16715   0.16346   0.00000  Uiso   1.00
C70    C     0.45031   0.14777   0.09548   0.00000  Uiso   1.00
H71    H     0.41306   0.13138   0.11575   0.00000  Uiso   1.00
H72    H     0.66198   0.20572   0.28398   0.00000  Uiso   1.00
H73    H     0.58694   0.20196   0.38425   0.00000  Uiso   1.00
H74    H     0.58396   0.20586   0.10767   0.00000  Uiso   1.00
H75    H     0.41604   0.12747   0.39233   0.00000  Uiso   1.00
H76    H     0.63447   0.22551   0.45129   0.00000  Uiso   1.00
H77    H     0.36553   0.10782   0.04871   0.00000  Uiso   1.00
H78    H     0.56744   0.00323   0.24459   0.00000  Uiso   1.00
H79    H     0.43255   0.33011   0.25541   0.00000  Uiso   1.00
H80    H     0.33802   0.12761   0.21602   0.00000  Uiso   1.00
N81    N     0.65011   0.15265   0.23783   0.00000  Uiso   1.00
N82    N     0.34989   0.18068   0.26217   0.00000  Uiso   1.00
O83    O     0.46308   0.24619   0.25298   0.00000  Uiso   1.00
O84    O     0.53692   0.08714   0.24701   0.00000  Uiso   1.00
O85    O     0.55946   0.23721   0.24518   0.00000  Uiso   1.00
O86    O     0.44054   0.09613   0.25481   0.00000  Uiso   1.00
O87    O     0.45181   0.17117   0.31997   0.00000  Uiso   1.00
O88    O     0.54819   0.16216   0.18002   0.00000  Uiso   1.00
O89    O     0.54819   0.16219   0.31217   0.00000  Uiso   1.00
O90    O     0.45181   0.17115   0.18782   0.00000  Uiso   1.00
Zn91   Zn    0.43565   0.17266   0.25521   0.00000  Uiso   1.00
Zn92   Zn    0.56435   0.16067   0.24479   0.00000  Uiso   1.00
Br93   Br    0.99761   0.24349   0.04314   0.00000  Uiso   1.00
Br94   Br    0.66906   0.08984   0.45686   0.00000  Uiso   1.00
C95    C     0.84864   0.26494   0.24883   0.00000  Uiso   1.00
C96    C     0.88302   0.18557   0.40452   0.00000  Uiso   1.00
C97    C     0.83210   0.16853   0.11572   0.00000  Uiso   1.00
C98    C     0.83456   0.16480   0.38428   0.00000  Uiso   1.00
C99    C     0.88075   0.18958   0.09055   0.00000  Uiso   1.00
C100   C     0.78591   0.14376   0.40945   0.00000  Uiso   1.00
C101   C     0.88192   0.18964   0.04408   0.00000  Uiso   1.00
C102   C     0.78474   0.14370   0.45592   0.00000  Uiso   1.00
C103   C     0.83317   0.16739   0.02330   0.00000  Uiso   1.00
C104   C     0.83349   0.16595   0.47670   0.00000  Uiso   1.00
C105   C     0.78404   0.14649   0.04919   0.00000  Uiso   1.00
C106   C     0.81802   0.06840   0.25117   0.00000  Uiso   1.00
C107   C     0.88263   0.18685   0.45081   0.00000  Uiso   1.00
C108   C     0.93040   0.21096   0.01786   0.00000  Uiso   1.00
C109   C     0.73626   0.12237   0.48214   0.00000  Uiso   1.00
C110   C     0.93038   0.20927   0.47138   0.00000  Uiso   1.00
C111   C     0.73629   0.12406   0.02862   0.00000  Uiso   1.00
C112   C     0.85669   0.31945   0.24814   0.00000  Uiso   1.00
C113   C     0.80998   0.01388   0.25186   0.00000  Uiso   1.00
C114   C     0.83383   0.16619   0.33654   0.00000  Uiso   1.00
C115   C     0.83284   0.16715   0.16346   0.00000  Uiso   1.00
C116   C     0.78365   0.14777   0.09548   0.00000  Uiso   1.00
H117   H     0.74639   0.13138   0.11575   0.00000  Uiso   1.00
H118   H     0.99531   0.20572   0.28398   0.00000  Uiso   1.00
H119   H     0.92027   0.20196   0.38425   0.00000  Uiso   1.00
H120   H     0.91729   0.20586   0.10767   0.00000  Uiso   1.00
H121   H     0.74937   0.12747   0.39233   0.00000  Uiso   1.00
H122   H     0.96781   0.22551   0.45129   0.00000  Uiso   1.00
H123   H     0.69886   0.10782   0.04871   0.00000  Uiso   1.00
H124   H     0.90078   0.00323   0.24459   0.00000  Uiso   1.00
H125   H     0.76589   0.33011   0.25541   0.00000  Uiso   1.00
H126   H     0.67136   0.12761   0.21602   0.00000  Uiso   1.00
N127   N     0.98344   0.15265   0.23783   0.00000  Uiso   1.00
N128   N     0.68322   0.18068   0.26217   0.00000  Uiso   1.00
O129   O     0.79642   0.24619   0.25298   0.00000  Uiso   1.00
O130   O     0.87025   0.08714   0.24701   0.00000  Uiso   1.00
O131   O     0.89280   0.23721   0.24518   0.00000  Uiso   1.00
O132   O     0.77387   0.09613   0.25481   0.00000  Uiso   1.00
O133   O     0.78514   0.17117   0.31997   0.00000  Uiso   1.00
O134   O     0.88153   0.16216   0.18002   0.00000  Uiso   1.00
O135   O     0.88152   0.16219   0.31217   0.00000  Uiso   1.00
O136   O     0.78515   0.17115   0.18782   0.00000  Uiso   1.00
Zn137  Zn    0.76898   0.17266   0.25521   0.00000  Uiso   1.00
Zn138  Zn    0.89769   0.16067   0.24479   0.00000  Uiso   1.00
Br139  Br    0.33094   0.57683   0.04314   0.00000  Uiso   1.00
Br140  Br    0.00239   0.42317   0.45686   0.00000  Uiso   1.00
C141   C     0.18198   0.59827   0.24883   0.00000  Uiso   1.00
C142   C     0.21635   0.51890   0.40452   0.00000  Uiso   1.00
C143   C     0.16544   0.50186   0.11572   0.00000  Uiso   1.00
C144   C     0.16790   0.49814   0.38428   0.00000  Uiso   1.00
C145   C     0.21409   0.52291   0.09055   0.00000  Uiso   1.00
C146   C     0.11925   0.47709   0.40945   0.00000  Uiso   1.00
C147   C     0.21526   0.52297   0.04408   0.00000  Uiso   1.00
C148   C     0.11808   0.47703   0.45592   0.00000  Uiso   1.00
C149   C     0.16651   0.50072   0.02330   0.00000  Uiso   1.00
C150   C     0.16683   0.49928   0.47670   0.00000  Uiso   1.00
C151   C     0.11737   0.47982   0.04919   0.00000  Uiso   1.00
C152   C     0.15136   0.40173   0.25117   0.00000  Uiso   1.00
C153   C     0.21596   0.52018   0.45081   0.00000  Uiso   1.00
C154   C     0.26374   0.54429   0.01786   0.00000  Uiso   1.00
C155   C     0.06960   0.45571   0.48214   0.00000  Uiso   1.00
C156   C     0.26371   0.54260   0.47138   0.00000  Uiso   1.00
C157   C     0.06962   0.45740   0.02862   0.00000  Uiso   1.00
C158   C     0.19002   0.65279   0.24814   0.00000  Uiso   1.00
C159   C     0.14331   0.34721   0.25186   0.00000  Uiso   1.00
C160   C     0.16716   0.49952   0.33654   0.00000  Uiso   1.00
C161   C     0.16617   0.50048   0.16346   0.00000  Uiso   1.00
C162   C     0.11698   0.48110   0.09548   0.00000  Uiso   1.00
H163   H     0.07973   0.46471   0.11575   0.00000  Uiso   1.00
H164   H     0.32864   0.53905   0.28398   0.00000  Uiso   1.00
H165   H     0.25361   0.53529   0.38425   0.00000  Uiso   1.00
H166   H     0.25063   0.53919   0.10767   0.00000  Uiso   1.00
H167   H     0.08271   0.46081   0.39233   0.00000  Uiso   1.00
H168   H     0.30114   0.55885   0.45129   0.00000  Uiso   1.00
H169   H     0.03219   0.44115   0.04871   0.00000  Uiso   1.00
H170   H     0.23411   0.33656   0.24459   0.00000  Uiso   1.00
H171   H     0.09922   0.66344   0.25541   0.00000  Uiso   1.00
H172   H     0.00469   0.46095   0.21602   0.00000  Uiso   1.00
N173   N     0.31678   0.48598   0.23783   0.00000  Uiso   1.00
N174   N     0.01656   0.51402   0.26217   0.00000  Uiso   1.00
O175   O     0.12975   0.57952   0.25298   0.00000  Uiso   1.00
O176   O     0.20358   0.42048   0.24701   0.00000  Uiso   1.00
O177   O     0.22613   0.57054   0.24518   0.00000  Uiso   1.00
O178   O     0.10720   0.42946   0.25481   0.00000  Uiso   1.00
O179   O     0.11847   0.50450   0.31997   0.00000  Uiso   1.00
O180   O     0.21486   0.49550   0.18002   0.00000  Uiso   1.00
O181   O     0.21485   0.49552   0.31217   0.00000  Uiso   1.00
O182   O     0.11848   0.50448   0.18782   0.00000  Uiso   1.00
Zn183  Zn    0.10231   0.50600   0.25521   0.00000  Uiso   1.00
Zn184  Zn    0.23102   0.49400   0.24479   0.00000  Uiso   1.00
Br185  Br    0.66428   0.57683   0.04314   0.00000  Uiso   1.00
Br186  Br    0.33572   0.42317   0.45686   0.00000  Uiso   1.00
C187   C     0.51531   0.59827   0.24883   0.00000  Uiso   1.00
C188   C     0.54969   0.51890   0.40452   0.00000  Uiso   1.00
C189   C     0.49877   0.50186   0.11572   0.00000  Uiso   1.00
C190   C     0.50123   0.49814   0.38428   0.00000  Uiso   1.00
C191   C     0.54742   0.52291   0.09055   0.00000  Uiso   1.00
C192   C     0.45258   0.47709   0.40945   0.00000  Uiso   1.00
C193   C     0.54859   0.52297   0.04408   0.00000  Uiso   1.00
C194   C     0.45141   0.47703   0.45592   0.00000  Uiso   1.00
C195   C     0.49984   0.50072   0.02330   0.00000  Uiso   1.00
C196   C     0.50016   0.49928   0.47670   0.00000  Uiso   1.00
C197   C     0.45070   0.47982   0.04919   0.00000  Uiso   1.00
C198   C     0.48469   0.40173   0.25117   0.00000  Uiso   1.00
C199   C     0.54929   0.52018   0.45081   0.00000  Uiso   1.00
C200   C     0.59707   0.54429   0.01786   0.00000  Uiso   1.00
C201   C     0.40293   0.45571   0.48214   0.00000  Uiso   1.00
C202   C     0.59705   0.54260   0.47138   0.00000  Uiso   1.00
C203   C     0.40295   0.45740   0.02862   0.00000  Uiso   1.00
C204   C     0.52336   0.65279   0.24814   0.00000  Uiso   1.00
C205   C     0.47664   0.34721   0.25186   0.00000  Uiso   1.00
C206   C     0.50050   0.49952   0.33654   0.00000  Uiso   1.00
C207   C     0.49950   0.50048   0.16346   0.00000  Uiso   1.00
C208   C     0.45031   0.48110   0.09548   0.00000  Uiso   1.00
H209   H     0.41306   0.46471   0.11575   0.00000  Uiso   1.00
H210   H     0.66198   0.53905   0.28398   0.00000  Uiso   1.00
H211   H     0.58694   0.53529   0.38425   0.00000  Uiso   1.00
H212   H     0.58396   0.53919   0.10767   0.00000  Uiso   1.00
H213   H     0.41604   0.46081   0.39233   0.00000  Uiso   1.00
H214   H     0.63447   0.55885   0.45129   0.00000  Uiso   1.00
H215   H     0.36553   0.44115   0.04871   0.00000  Uiso   1.00
H216   H     0.56744   0.33656   0.24459   0.00000  Uiso   1.00
H217   H     0.43255   0.66344   0.25541   0.00000  Uiso   1.00
H218   H     0.33802   0.46095   0.21602   0.00000  Uiso   1.00
N219   N     0.65011   0.48598   0.23783   0.00000  Uiso   1.00
N220   N     0.34989   0.51402   0.26217   0.00000  Uiso   1.00
O221   O     0.46308   0.57952   0.25298   0.00000  Uiso   1.00
O222   O     0.53692   0.42048   0.24701   0.00000  Uiso   1.00
O223   O     0.55946   0.57054   0.24518   0.00000  Uiso   1.00
O224   O     0.44054   0.42946   0.25481   0.00000  Uiso   1.00
O225   O     0.45181   0.50450   0.31997   0.00000  Uiso   1.00
O226   O     0.54819   0.49550   0.18002   0.00000  Uiso   1.00
O227   O     0.54819   0.49552   0.31217   0.00000  Uiso   1.00
O228   O     0.45181   0.50448   0.18782   0.00000  Uiso   1.00
Zn229  Zn    0.43565   0.50600   0.25521   0.00000  Uiso   1.00
Zn230  Zn    0.56435   0.49400   0.24479   0.00000  Uiso   1.00
Br231  Br    0.99761   0.57683   0.04314   0.00000  Uiso   1.00
Br232  Br    0.66906   0.42317   0.45686   0.00000  Uiso   1.00
C233   C     0.84864   0.59827   0.24883   0.00000  Uiso   1.00
C234   C     0.88302   0.51890   0.40452   0.00000  Uiso   1.00
C235   C     0.83210   0.50186   0.11572   0.00000  Uiso   1.00
C236   C     0.83456   0.49814   0.38428   0.00000  Uiso   1.00
C237   C     0.88075   0.52291   0.09055   0.00000  Uiso   1.00
C238   C     0.78591   0.47709   0.40945   0.00000  Uiso   1.00
C239   C     0.88192   0.52297   0.04408   0.00000  Uiso   1.00
C240   C     0.78474   0.47703   0.45592   0.00000  Uiso   1.00
C241   C     0.83317   0.50072   0.02330   0.00000  Uiso   1.00
C242   C     0.83349   0.49928   0.47670   0.00000  Uiso   1.00
C243   C     0.78404   0.47982   0.04919   0.00000  Uiso   1.00
C244   C     0.81802   0.40173   0.25117   0.00000  Uiso   1.00
C245   C     0.88263   0.52018   0.45081   0.00000  Uiso   1.00
C246   C     0.93040   0.54429   0.01786   0.00000  Uiso   1.00
C247   C     0.73626   0.45571   0.48214   0.00000  Uiso   1.00
C248   C     0.93038   0.54260   0.47138   0.00000  Uiso   1.00
C249   C     0.73629   0.45740   0.02862   0.00000  Uiso   1.00
C250   C     0.85669   0.65279   0.24814   0.00000  Uiso   1.00
C251   C     0.80998   0.34721   0.25186   0.00000  Uiso   1.00
C252   C     0.83383   0.49952   0.33654   0.00000  Uiso   1.00
C253   C     0.83284   0.50048   0.16346   0.00000  Uiso   1.00
C254   C     0.78365   0.48110   0.09548   0.00000  Uiso   1.00
H255   H     0.74639   0.46471   0.11575   0.00000  Uiso   1.00
H256   H     0.99531   0.53905   0.28398   0.00000  Uiso   1.00
H257   H     0.92027   0.53529   0.38425   0.00000  Uiso   1.00
H258   H     0.91729   0.53919   0.10767   0.00000  Uiso   1.00
H259   H     0.74937   0.46081   0.39233   0.00000  Uiso   1.00
H260   H     0.96781   0.55885   0.45129   0.00000  Uiso   1.00
H261   H     0.69886   0.44115   0.04871   0.00000  Uiso   1.00
H262   H     0.90078   0.33656   0.24459   0.00000  Uiso   1.00
H263   H     0.76589   0.66344   0.25541   0.00000  Uiso   1.00
H264   H     0.67136   0.46095   0.21602   0.00000  Uiso   1.00
N265   N     0.98344   0.48598   0.23783   0.00000  Uiso   1.00
N266   N     0.68322   0.51402   0.26217   0.00000  Uiso   1.00
O267   O     0.79642   0.57952   0.25298   0.00000  Uiso   1.00
O268   O     0.87025   0.42048   0.24701   0.00000  Uiso   1.00
O269   O     0.89280   0.57054   0.24518   0.00000  Uiso   1.00
O270   O     0.77387   0.42946   0.25481   0.00000  Uiso   1.00
O271   O     0.78514   0.50450   0.31997   0.00000  Uiso   1.00
O272   O     0.88153   0.49550   0.18002   0.00000  Uiso   1.00
O273   O     0.88152   0.49552   0.31217   0.00000  Uiso   1.00
O274   O     0.78515   0.50448   0.18782   0.00000  Uiso   1.00
Zn275  Zn    0.76898   0.50600   0.25521   0.00000  Uiso   1.00
Zn276  Zn    0.89769   0.49400   0.24479   0.00000  Uiso   1.00
Br277  Br    0.33094   0.91016   0.04314   0.00000  Uiso   1.00
Br278  Br    0.00239   0.75651   0.45686   0.00000  Uiso   1.00
C279   C     0.18198   0.93160   0.24883   0.00000  Uiso   1.00
C280   C     0.21635   0.85223   0.40452   0.00000  Uiso   1.00
C281   C     0.16544   0.83520   0.11572   0.00000  Uiso   1.00
C282   C     0.16790   0.83147   0.38428   0.00000  Uiso   1.00
C283   C     0.21409   0.85624   0.09055   0.00000  Uiso   1.00
C284   C     0.11925   0.81042   0.40945   0.00000  Uiso   1.00
C285   C     0.21526   0.85630   0.04408   0.00000  Uiso   1.00
C286   C     0.11808   0.81036   0.45592   0.00000  Uiso   1.00
C287   C     0.16651   0.83405   0.02330   0.00000  Uiso   1.00
C288   C     0.16683   0.83261   0.47670   0.00000  Uiso   1.00
C289   C     0.11737   0.81315   0.04919   0.00000  Uiso   1.00
C290   C     0.15136   0.73507   0.25117   0.00000  Uiso   1.00
C291   C     0.21596   0.85351   0.45081   0.00000  Uiso   1.00
C292   C     0.26374   0.87763   0.01786   0.00000  Uiso   1.00
C293   C     0.06960   0.78904   0.48214   0.00000  Uiso   1.00
C294   C     0.26371   0.87594   0.47138   0.00000  Uiso   1.00
C295   C     0.06962   0.79073   0.02862   0.00000  Uiso   1.00
C296   C     0.19002   0.98612   0.24814   0.00000  Uiso   1.00
C297   C     0.14331   0.68055   0.25186   0.00000  Uiso   1.00
C298   C     0.16716   0.83285   0.33654   0.00000  Uiso   1.00
C299   C     0.16617   0.83381   0.16346   0.00000  Uiso   1.00
C300   C     0.11698   0.81444   0.09548   0.00000  Uiso   1.00
H301   H     0.07973   0.79804   0.11575   0.00000  Uiso   1.00
H302   H     0.32864   0.87239   0.28398   0.00000  Uiso   1.00
H303   H     0.25361   0.86862   0.38425   0.00000  Uiso   1.00
H304   H     0.25063   0.87253   0.10767   0.00000  Uiso   1.00
H305   H     0.08271   0.79414   0.39233   0.00000  Uiso   1.00
H306   H     0.30114   0.89218   0.45129   0.00000  Uiso   1.00
H307   H     0.03219   0.77449   0.04871   0.00000  Uiso   1.00
H308   H     0.23411   0.66989   0.24459   0.00000  Uiso   1.00
H309   H     0.09922   0.99677   0.25541   0.00000  Uiso   1.00
H310   H     0.00469   0.79428   0.21602   0.00000  Uiso   1.00
N311   N     0.31678   0.81932   0.23783   0.00000  Uiso   1.00
N312   N     0.01656   0.84735   0.26217   0.00000  Uiso   1.00
O313   O     0.12975   0.91286   0.25298   0.00000  Uiso   1.00
O314   O     0.20358   0.75381   0.24701   0.00000  Uiso   1.00
O315   O     0.22613   0.90387   0.24518   0.00000  Uiso   1.00
O316   O     0.10720   0.76279   0.25481   0.00000  Uiso   1.00
O317   O     0.11847   0.83784   0.31997   0.00000  Uiso   1.00
O318   O     0.21486   0.82883   0.18002   0.00000  Uiso   1.00
O319   O     0.21485   0.82885   0.31217   0.00000  Uiso   1.00
O320   O     0.11848   0.83781   0.18782   0.00000  Uiso   1.00
Zn321  Zn    0.10231   0.83933   0.25521   0.00000  Uiso   1.00
Zn322  Zn    0.23102   0.82734   0.24479   0.00000  Uiso   1.00
Br323  Br    0.66428   0.91016   0.04314   0.00000  Uiso   1.00
Br324  Br    0.33572   0.75651   0.45686   0.00000  Uiso   1.00
C325   C     0.51531   0.93160   0.24883   0.00000  Uiso   1.00
C326   C     0.54969   0.85223   0.40452   0.00000  Uiso   1.00
C327   C     0.49877   0.83520   0.11572   0.00000  Uiso   1.00
C328   C     0.50123   0.83147   0.38428   0.00000  Uiso   1.00
C329   C     0.54742   0.85624   0.09055   0.00000  Uiso   1.00
C330   C     0.45258   0.81042   0.40945   0.00000  Uiso   1.00
C331   C     0.54859   0.85630   0.04408   0.00000  Uiso   1.00
C332   C     0.45141   0.81036   0.45592   0.00000  Uiso   1.00
C333   C     0.49984   0.83405   0.02330   0.00000  Uiso   1.00
C334   C     0.50016   0.83261   0.47670   0.00000  Uiso   1.00
C335   C     0.45070   0.81315   0.04919   0.00000  Uiso   1.00
C336   C     0.48469   0.73507   0.25117   0.00000  Uiso   1.00
C337   C     0.54929   0.85351   0.45081   0.00000  Uiso   1.00
C338   C     0.59707   0.87763   0.01786   0.00000  Uiso   1.00
C339   C     0.40293   0.78904   0.48214   0.00000  Uiso   1.00
C340   C     0.59705   0.87594   0.47138   0.00000  Uiso   1.00
C341   C     0.40295   0.79073   0.02862   0.00000  Uiso   1.00
C342   C     0.52336   0.98612   0.24814   0.00000  Uiso   1.00
C343   C     0.47664   0.68055   0.25186   0.00000  Uiso   1.00
C344   C     0.50050   0.83285   0.33654   0.00000  Uiso   1.00
C345   C     0.49950   0.83381   0.16346   0.00000  Uiso   1.00
C346   C     0.45031   0.81444   0.09548   0.00000  Uiso   1.00
H347   H     0.41306   0.79804   0.11575   0.00000  Uiso   1.00
H348   H     0.66198   0.87239   0.28398   0.00000  Uiso   1.00
H349   H     0.58694   0.86862   0.38425   0.00000  Uiso   1.00
H350   H     0.58396   0.87253   0.10767   0.00000  Uiso   1.00
H351   H     0.41604   0.79414   0.39233   0.00000  Uiso   1.00
H352   H     0.63447   0.89218   0.45129   0.00000  Uiso   1.00
H353   H     0.36553   0.77449   0.04871   0.00000  Uiso   1.00
H354   H     0.56744   0.66989   0.24459   0.00000  Uiso   1.00
H355   H     0.43255   0.99677   0.25541   0.00000  Uiso   1.00
H356   H     0.33802   0.79428   0.21602   0.00000  Uiso   1.00
N357   N     0.65011   0.81932   0.23783   0.00000  Uiso   1.00
N358   N     0.34989   0.84735   0.26217   0.00000  Uiso   1.00
O359   O     0.46308   0.91286   0.25298   0.00000  Uiso   1.00
O360   O     0.53692   0.75381   0.24701   0.00000  Uiso   1.00
O361   O     0.55946   0.90387   0.24518   0.00000  Uiso   1.00
O362   O     0.44054   0.76279   0.25481   0.00000  Uiso   1.00
O363   O     0.45181   0.83784   0.31997   0.00000  Uiso   1.00
O364   O     0.54819   0.82883   0.18002   0.00000  Uiso   1.00
O365   O     0.54819   0.82885   0.31217   0.00000  Uiso   1.00
O366   O     0.45181   0.83781   0.18782   0.00000  Uiso   1.00
Zn367  Zn    0.43565   0.83933   0.25521   0.00000  Uiso   1.00
Zn368  Zn    0.56435   0.82734   0.24479   0.00000  Uiso   1.00
Br369  Br    0.99761   0.91016   0.04314   0.00000  Uiso   1.00
Br370  Br    0.66906   0.75651   0.45686   0.00000  Uiso   1.00
C371   C     0.84864   0.93160   0.24883   0.00000  Uiso   1.00
C372   C     0.88302   0.85223   0.40452   0.00000  Uiso   1.00
C373   C     0.83210   0.83520   0.11572   0.00000  Uiso   1.00
C374   C     0.83456   0.83147   0.38428   0.00000  Uiso   1.00
C375   C     0.88075   0.85624   0.09055   0.00000  Uiso   1.00
C376   C     0.78591   0.81042   0.40945   0.00000  Uiso   1.00
C377   C     0.88192   0.85630   0.04408   0.00000  Uiso   1.00
C378   C     0.78474   0.81036   0.45592   0.00000  Uiso   1.00
C379   C     0.83317   0.83405   0.02330   0.00000  Uiso   1.00
C380   C     0.83349   0.83261   0.47670   0.00000  Uiso   1.00
C381   C     0.78404   0.81315   0.04919   0.00000  Uiso   1.00
C382   C     0.81802   0.73507   0.25117   0.00000  Uiso   1.00
C383   C     0.88263   0.85351   0.45081   0.00000  Uiso   1.00
C384   C     0.93040   0.87763   0.01786   0.00000  Uiso   1.00
C385   C     0.73626   0.78904   0.48214   0.00000  Uiso   1.00
C386   C     0.93038   0.87594   0.47138   0.00000  Uiso   1.00
C387   C     0.73629   0.79073   0.02862   0.00000  Uiso   1.00
C388   C     0.85669   0.98612   0.24814   0.00000  Uiso   1.00
C389   C     0.80998   0.68055   0.25186   0.00000  Uiso   1.00
C390   C     0.83383   0.83285   0.33654   0.00000  Uiso   1.00
C391   C     0.83284   0.83381   0.16346   0.00000  Uiso   1.00
C392   C     0.78365   0.81444   0.09548   0.00000  Uiso   1.00
H393   H     0.74639   0.79804   0.11575   0.00000  Uiso   1.00
H394   H     0.99531   0.87239   0.28398   0.00000  Uiso   1.00
H395   H     0.92027   0.86862   0.38425   0.00000  Uiso   1.00
H396   H     0.91729   0.87253   0.10767   0.00000  Uiso   1.00
H397   H     0.74937   0.79414   0.39233   0.00000  Uiso   1.00
H398   H     0.96781   0.89218   0.45129   0.00000  Uiso   1.00
H399   H     0.69886   0.77449   0.04871   0.00000  Uiso   1.00
H400   H     0.90078   0.66989   0.24459   0.00000  Uiso   1.00
H401   H     0.76589   0.99677   0.25541   0.00000  Uiso   1.00
H402   H     0.67136   0.79428   0.21602   0.00000  Uiso   1.00
N403   N     0.98344   0.81932   0.23783   0.00000  Uiso   1.00
N404   N     0.68322   0.84735   0.26217   0.00000  Uiso   1.00
O405   O     0.79642   0.91286   0.25298   0.00000  Uiso   1.00
O406   O     0.87025   0.75381   0.24701   0.00000  Uiso   1.00
O407   O     0.89280   0.90387   0.24518   0.00000  Uiso   1.00
O408   O     0.77387   0.76279   0.25481   0.00000  Uiso   1.00
O409   O     0.78514   0.83784   0.31997   0.00000  Uiso   1.00
O410   O     0.88153   0.82883   0.18002   0.00000  Uiso   1.00
O411   O     0.88152   0.82885   0.31217   0.00000  Uiso   1.00
O412   O     0.78515   0.83781   0.18782   0.00000  Uiso   1.00
Zn413  Zn    0.76898   0.83933   0.25521   0.00000  Uiso   1.00
Zn414  Zn    0.89769   0.82734   0.24479   0.00000  Uiso   1.00
Br415  Br    0.33094   0.24349   0.54314   0.00000  Uiso   1.00
Br416  Br    0.00239   0.08984   0.95686   0.00000  Uiso   1.00
C417   C     0.18198   0.26494   0.74883   0.00000  Uiso   1.00
C418   C     0.21635   0.18557   0.90452   0.00000  Uiso   1.00
C419   C     0.16544   0.16853   0.61572   0.00000  Uiso   1.00
C420   C     0.16790   0.16480   0.88428   0.00000  Uiso   1.00
C421   C     0.21409   0.18958   0.59055   0.00000  Uiso   1.00
C422   C     0.11925   0.14376   0.90945   0.00000  Uiso   1.00
C423   C     0.21526   0.18964   0.54408   0.00000  Uiso   1.00
C424   C     0.11808   0.14370   0.95592   0.00000  Uiso   1.00
C425   C     0.16651   0.16739   0.52330   0.00000  Uiso   1.00
C426   C     0.16683   0.16595   0.97670   0.00000  Uiso   1.00
C427   C     0.11737   0.14649   0.54919   0.00000  Uiso   1.00
C428   C     0.15136   0.06840   0.75117   0.00000  Uiso   1.00
C429   C     0.21596   0.18685   0.95081   0.00000  Uiso   1.00
C430   C     0.26374   0.21096   0.51786   0.00000  Uiso   1.00
C431   C     0.06960   0.12237   0.98214   0.00000  Uiso   1.00
C432   C     0.26371   0.20927   0.97138   0.00000  Uiso   1.00
C433   C     0.06962   0.12406   0.52862   0.00000  Uiso   1.00
C434   C     0.19002   0.31945   0.74814   0.00000  Uiso   1.00
C435   C     0.14331   0.01388   0.75186   0.00000  Uiso   1.00
C436   C     0.16716   0.16619   0.83654   0.00000  Uiso   1.00
C437   C     0.16617   0.16715   0.66346   0.00000  Uiso   1.00
C438   C     0.11698   0.14777   0.59548   0.00000  Uiso   1.00
H439   H     0.07973   0.13138   0.61575   0.00000  Uiso   1.00
H440   H     0.32864   0.20572   0.78398   0.00000  Uiso   1.00
H441   H     0.25361   0.20196   0.88425   0.00000  Uiso   1.00
H442   H     0.25063   0.20586   0.60767   0.00000  Uiso   1.00
H443   H     0.08271   0.12747   0.89233   0.00000  Uiso   1.00
H444   H     0.30114   0.22551   0.95129   0.00000  Uiso   1.00
H445   H     0.03219   0.10782   0.54871   0.00000  Uiso   1.00
H446   H     0.23411   0.00323   0.74459   0.00000  Uiso   1.00
H447   H     0.09922   0.33011   0.75541   0.00000  Uiso   1.00
H448   H     0.00469   0.12761   0.71602   0.00000  Uiso   1.00
N449   N     0.31678   0.15265   0.73783   0.00000  Uiso   1.00
N450   N     0.01656   0.18068   0.76217   0.00000  Uiso   1.00
O451   O     0.12975   0.24619   0.75298   0.00000  Uiso   1.00
O452   O     0.20358   0.08714   0.74701   0.00000  Uiso   1.00
O453   O     0.22613   0.23721   0.74518   0.00000  Uiso   1.00
O454   O     0.10720   0.09613   0.75481   0.00000  Uiso   1.00
O455   O     0.11847   0.17117   0.81997   0.00000  Uiso   1.00
O456   O     0.21486   0.16216   0.68002   0.00000  Uiso   1.00
O457   O     0.21485   0.16219   0.81217   0.00000  Uiso   1.00
O458   O     0.11848   0.17115   0.68782   0.00000  Uiso   1.00
Zn459  Zn    0.10231   0.17266   0.75521   0.00000  Uiso   1.00
Zn460  Zn    0.23102   0.16067   0.74479   0.00000  Uiso   1.00
Br461  Br    0.66428   0.24349   0.54314   0.00000  Uiso   1.00
Br462  Br    0.33572   0.08984   0.95686   0.00000  Uiso   1.00
C463   C     0.51531   0.26494   0.74883   0.00000  Uiso   1.00
C464   C     0.54969   0.18557   0.90452   0.00000  Uiso   1.00
C465   C     0.49877   0.16853   0.61572   0.00000  Uiso   1.00
C466   C     0.50123   0.16480   0.88428   0.00000  Uiso   1.00
C467   C     0.54742   0.18958   0.59055   0.00000  Uiso   1.00
C468   C     0.45258   0.14376   0.90945   0.00000  Uiso   1.00
C469   C     0.54859   0.18964   0.54408   0.00000  Uiso   1.00
C470   C     0.45141   0.14370   0.95592   0.00000  Uiso   1.00
C471   C     0.49984   0.16739   0.52330   0.00000  Uiso   1.00
C472   C     0.50016   0.16595   0.97670   0.00000  Uiso   1.00
C473   C     0.45070   0.14649   0.54919   0.00000  Uiso   1.00
C474   C     0.48469   0.06840   0.75117   0.00000  Uiso   1.00
C475   C     0.54929   0.18685   0.95081   0.00000  Uiso   1.00
C476   C     0.59707   0.21096   0.51786   0.00000  Uiso   1.00
C477   C     0.40293   0.12237   0.98214   0.00000  Uiso   1.00
C478   C     0.59705   0.20927   0.97138   0.00000  Uiso   1.00
C479   C     0.40295   0.12406   0.52862   0.00000  Uiso   1.00
C480   C     0.52336   0.31945   0.74814   0.00000  Uiso   1.00
C481   C     0.47664   0.01388   0.75186   0.00000  Uiso   1.00
C482   C     0.50050   0.16619   0.83654   0.00000  Uiso   1.00
C483   C     0.49950   0.16715   0.66346   0.00000  Uiso   1.00
C484   C     0.45031   0.14777   0.59548   0.00000  Uiso   1.00
H485   H     0.41306   0.13138   0.61575   0.00000  Uiso   1.00
H486   H     0.66198   0.20572   0.78398   0.00000  Uiso   1.00
H487   H     0.58694   0.20196   0.88425   0.00000  Uiso   1.00
H488   H     0.58396   0.20586   0.60767   0.00000  Uiso   1.00
H489   H     0.41604   0.12747   0.89233   0.00000  Uiso   1.00
H490   H     0.63447   0.22551   0.95129   0.00000  Uiso   1.00
H491   H     0.36553   0.10782   0.54871   0.00000  Uiso   1.00
H492   H     0.56744   0.00323   0.74459   0.00000  Uiso   1.00
H493   H     0.43255   0.33011   0.75541   0.00000  Uiso   1.00
H494   H     0.33802   0.12761   0.71602   0.00000  Uiso   1.00
N495   N     0.65011   0.15265   0.73783   0.00000  Uiso   1.00
N496   N     0.34989   0.18068   0.76217   0.00000  Uiso   1.00
O497   O     0.46308   0.24619   0.75298   0.00000  Uiso   1.00
O498   O     0.53692   0.08714   0.74701   0.00000  Uiso   1.00
O499   O     0.55946   0.23721   0.74518   0.00000  Uiso   1.00
O500   O     0.44054   0.09613   0.75481   0.00000  Uiso   1.00
O501   O     0.45181   0.17117   0.81997   0.00000  Uiso   1.00
O502   O     0.54819   0.16216   0.68002   0.00000  Uiso   1.00
O503   O     0.54819   0.16219   0.81217   0.00000  Uiso   1.00
O504   O     0.45181   0.17115   0.68782   0.00000  Uiso   1.00
Zn505  Zn    0.43565   0.17266   0.75521   0.00000  Uiso   1.00
Zn506  Zn    0.56435   0.16067   0.74479   0.00000  Uiso   1.00
Br507  Br    0.99761   0.24349   0.54314   0.00000  Uiso   1.00
Br508  Br    0.66906   0.08984   0.95686   0.00000  Uiso   1.00
C509   C     0.84864   0.26494   0.74883   0.00000  Uiso   1.00
C510   C     0.88302   0.18557   0.90452   0.00000  Uiso   1.00
C511   C     0.83210   0.16853   0.61572   0.00000  Uiso   1.00
C512   C     0.83456   0.16480   0.88428   0.00000  Uiso   1.00
C513   C     0.88075   0.18958   0.59055   0.00000  Uiso   1.00
C514   C     0.78591   0.14376   0.90945   0.00000  Uiso   1.00
C515   C     0.88192   0.18964   0.54408   0.00000  Uiso   1.00
C516   C     0.78474   0.14370   0.95592   0.00000  Uiso   1.00
C517   C     0.83317   0.16739   0.52330   0.00000  Uiso   1.00
C518   C     0.83349   0.16595   0.97670   0.00000  Uiso   1.00
C519   C     0.78404   0.14649   0.54919   0.00000  Uiso   1.00
C520   C     0.81802   0.06840   0.75117   0.00000  Uiso   1.00
C521   C     0.88263   0.18685   0.95081   0.00000  Uiso   1.00
C522   C     0.93040   0.21096   0.51786   0.00000  Uiso   1.00
C523   C     0.73626   0.12237   0.98214   0.00000  Uiso   1.00
C524   C     0.93038   0.20927   0.97138   0.00000  Uiso   1.00
C525   C     0.73629   0.12406   0.52862   0.00000  Uiso   1.00
C526   C     0.85669   0.31945   0.74814   0.00000  Uiso   1.00
C527   C     0.80998   0.01388   0.75186   0.00000  Uiso   1.00
C528   C     0.83383   0.16619   0.83654   0.00000  Uiso   1.00
C529   C     0.83284   0.16715   0.66346   0.00000  Uiso   1.00
C530   C     0.78365   0.14777   0.59548   0.00000  Uiso   1.00
H531   H     0.74639   0.13138   0.61575   0.00000  Uiso   1.00
H532   H     0.99531   0.20572   0.78398   0.00000  Uiso   1.00
H533   H     0.92027   0.20196   0.88425   0.00000  Uiso   1.00
H534   H     0.91729   0.20586   0.60767   0.00000  Uiso   1.00
H535   H     0.74937   0.12747   0.89233   0.00000  Uiso   1.00
H536   H     0.96781   0.22551   0.95129   0.00000  Uiso   1.00
H537   H     0.69886   0.10782   0.54871   0.00000  Uiso   1.00
H538   H     0.90078   0.00323   0.74459   0.00000  Uiso   1.00
H539   H     0.76589   0.33011   0.75541   0.00000  Uiso   1.00
H540   H     0.67136   0.12761   0.71602   0.00000  Uiso   1.00
N541   N     0.98344   0.15265   0.73783   0.00000  Uiso   1.00
N542   N     0.68322   0.18068   0.76217   0.00000  Uiso   1.00
O543   O     0.79642   0.24619   0.75298   0.00000  Uiso   1.00
O544   O     0.87025   0.08714   0.74701   0.00000  Uiso   1.00
O545   O     0.89280   0.23721   0.74518   0.00000  Uiso   1.00
O546   O     0.77387   0.09613   0.75481   0.00000  Uiso   1.00
O547   O     0.78514   0.17117   0.81997   0.00000  Uiso   1.00
O548   O     0.88153   0.16216   0.68002   0.00000  Uiso   1.00
O549   O     0.88152   0.16219   0.81217   0.00000  Uiso   1.00
O550   O     0.78515   0.17115   0.68782   0.00000  Uiso   1.00
Zn551  Zn    0.76898   0.17266   0.75521   0.00000  Uiso   1.00
Zn552  Zn    0.89769   0.16067   0.74479   0.00000  Uiso   1.00
Br553  Br    0.33094   0.57683   0.54314   0.00000  Uiso   1.00
Br554  Br    0.00239   0.42317   0.95686   0.00000  Uiso   1.00
C555   C     0.18198   0.59827   0.74883   0.00000  Uiso   1.00
C556   C     0.21635   0.51890   0.90452   0.00000  Uiso   1.00
C557   C     0.16544   0.50186   0.61572   0.00000  Uiso   1.00
C558   C     0.16790   0.49814   0.88428   0.00000  Uiso   1.00
C559   C     0.21409   0.52291   0.59055   0.00000  Uiso   1.00
C560   C     0.11925   0.47709   0.90945   0.00000  Uiso   1.00
C561   C     0.21526   0.52297   0.54408   0.00000  Uiso   1.00
C562   C     0.11808   0.47703   0.95592   0.00000  Uiso   1.00
C563   C     0.16651   0.50072   0.52330   0.00000  Uiso   1.00
C564   C     0.16683   0.49928   0.97670   0.00000  Uiso   1.00
C565   C     0.11737   0.47982   0.54919   0.00000  Uiso   1.00
C566   C     0.15136   0.40173   0.75117   0.00000  Uiso   1.00
C567   C     0.21596   0.52018   0.95081   0.00000  Uiso   1.00
C568   C     0.26374   0.54429   0.51786   0.00000  Uiso   1.00
C569   C     0.06960   0.45571   0.98214   0.00000  Uiso   1.00
C570   C     0.26371   0.54260   0.97138   0.00000  Uiso   1.00
C571   C     0.06962   0.45740   0.52862   0.00000  Uiso   1.00
C572   C     0.19002   0.65279   0.74814   0.00000  Uiso   1.00
C573   C     0.14331   0.34721   0.75186   0.00000  Uiso   1.00
C574   C     0.16716   0.49952   0.83654   0.00000  Uiso   1.00
C575   C     0.16617   0.50048   0.66346   0.00000  Uiso   1.00
C576   C     0.11698   0.48110   0.59548   0.00000  Uiso   1.00
H577   H     0.07973   0.46471   0.61575   0.00000  Uiso   1.00
H578   H     0.32864   0.53905   0.78398   0.00000  Uiso   1.00
H579   H     0.25361   0.53529   0.88425   0.00000  Uiso   1.00
H580   H     0.25063   0.53919   0.60767   0.00000  Uiso   1.00
H581   H     0.08271   0.46081   0.89233   0.00000  Uiso   1.00
H582   H     0.30114   0.55885   0.95129   0.00000  Uiso   1.00
H583   H     0.03219   0.44115   0.54871   0.00000  Uiso   1.00
H584   H     0.23411   0.33656   0.74459   0.00000  Uiso   1.00
H585   H     0.09922   0.66344   0.75541   0.00000  Uiso   1.00
H586   H     0.00469   0.46095   0.71602   0.00000  Uiso   1.00
N587   N     0.31678   0.48598   0.73783   0.00000  Uiso   1.00
N588   N     0.01656   0.51402   0.76217   0.00000  Uiso   1.00
O589   O     0.12975   0.57952   0.75298   0.00000  Uiso   1.00
O590   O     0.20358   0.42048   0.74701   0.00000  Uiso   1.00
O591   O     0.22613   0.57054   0.74518   0.00000  Uiso   1.00
O592   O     0.10720   0.42946   0.75481   0.00000  Uiso   1.00
O593   O     0.11847   0.50450   0.81997   0.00000  Uiso   1.00
O594   O     0.21486   0.49550   0.68002   0.00000  Uiso   1.00
O595   O     0.21485   0.49552   0.81217   0.00000  Uiso   1.00
O596   O     0.11848   0.50448   0.68782   0.00000  Uiso   1.00
Zn597  Zn    0.10231   0.50600   0.75521   0.00000  Uiso   1.00
Zn598  Zn    0.23102   0.49400   0.74479   0.00000  Uiso   1.00
Br599  Br    0.66428   0.57683   0.54314   0.00000  Uiso   1.00
Br600  Br    0.33572   0.42317   0.95686   0.00000  Uiso   1.00
C601   C     0.51531   0.59827   0.74883   0.00000  Uiso   1.00
C602   C     0.54969   0.51890   0.90452   0.00000  Uiso   1.00
C603   C     0.49877   0.50186   0.61572   0.00000  Uiso   1.00
C604   C     0.50123   0.49814   0.88428   0.00000  Uiso   1.00
C605   C     0.54742   0.52291   0.59055   0.00000  Uiso   1.00
C606   C     0.45258   0.47709   0.90945   0.00000  Uiso   1.00
C607   C     0.54859   0.52297   0.54408   0.00000  Uiso   1.00
C608   C     0.45141   0.47703   0.95592   0.00000  Uiso   1.00
C609   C     0.49984   0.50072   0.52330   0.00000  Uiso   1.00
C610   C     0.50016   0.49928   0.97670   0.00000  Uiso   1.00
C611   C     0.45070   0.47982   0.54919   0.00000  Uiso   1.00
C612   C     0.48469   0.40173   0.75117   0.00000  Uiso   1.00
C613   C     0.54929   0.52018   0.95081   0.00000  Uiso   1.00
C614   C     0.59707   0.54429   0.51786   0.00000  Uiso   1.00
C615   C     0.40293   0.45571   0.98214   0.00000  Uiso   1.00
C616   C     0.59705   0.54260   0.97138   0.00000  Uiso   1.00
C617   C     0.40295   0.45740   0.52862   0.00000  Uiso   1.00
C618   C     0.52336   0.65279   0.74814   0.00000  Uiso   1.00
C619   C     0.47664   0.34721   0.75186   0.00000  Uiso   1.00
C620   C     0.50050   0.49952   0.83654   0.00000  Uiso   1.00
C621   C     0.49950   0.50048   0.66346   0.00000  Uiso   1.00
C622   C     0.45031   0.48110   0.59548   0.00000  Uiso   1.00
H623   H     0.41306   0.46471   0.61575   0.00000  Uiso   1.00
H624   H     0.66198   0.53905   0.78398   0.00000  Uiso   1.00
H625   H     0.58694   0.53529   0.88425   0.00000  Uiso   1.00
H626   H     0.58396   0.53919   0.60767   0.00000  Uiso   1.00
H627   H     0.41604   0.46081   0.89233   0.00000  Uiso   1.00
H628   H     0.63447   0.55885   0.95129   0.00000  Uiso   1.00
H629   H     0.36553   0.44115   0.54871   0.00000  Uiso   1.00
H630   H     0.56744   0.33656   0.74459   0.00000  Uiso   1.00
H631   H     0.43255   0.66344   0.75541   0.00000  Uiso   1.00
H632   H     0.33802   0.46095   0.71602   0.00000  Uiso   1.00
N633   N     0.65011   0.48598   0.73783   0.00000  Uiso   1.00
N634   N     0.34989   0.51402   0.76217   0.00000  Uiso   1.00
O635   O     0.46308   0.57952   0.75298   0.00000  Uiso   1.00
O636   O     0.53692   0.42048   0.74701   0.00000  Uiso   1.00
O637   O     0.55946   0.57054   0.74518   0.00000  Uiso   1.00
O638   O     0.44054   0.42946   0.75481   0.00000  Uiso   1.00
O639   O     0.45181   0.50450   0.81997   0.00000  Uiso   1.00
O640   O     0.54819   0.49550   0.68002   0.00000  Uiso   1.00
O641   O     0.54819   0.49552   0.81217   0.00000  Uiso   1.00
O642   O     0.45181   0.50448   0.68782   0.00000  Uiso   1.00
Zn643  Zn    0.43565   0.50600   0.75521   0.00000  Uiso   1.00
Zn644  Zn    0.56435   0.49400   0.74479   0.00000  Uiso   1.00
Br645  Br    0.99761   0.57683   0.54314   0.00000  Uiso   1.00
Br646  Br    0.66906   0.42317   0.95686   0.00000  Uiso   1.00
C647   C     0.84864   0.59827   0.74883   0.00000  Uiso   1.00
C648   C     0.88302   0.51890   0.90452   0.00000  Uiso   1.00
C649   C     0.83210   0.50186   0.61572   0.00000  Uiso   1.00
C650   C     0.83456   0.49814   0.88428   0.00000  Uiso   1.00
C651   C     0.88075   0.52291   0.59055   0.00000  Uiso   1.00
C652   C     0.78591   0.47709   0.90945   0.00000  Uiso   1.00
C653   C     0.88192   0.52297   0.54408   0.00000  Uiso   1.00
C654   C     0.78474   0.47703   0.95592   0.00000  Uiso   1.00
C655   C     0.83317   0.50072   0.52330   0.00000  Uiso   1.00
C656   C     0.83349   0.49928   0.97670   0.00000  Uiso   1.00
C657   C     0.78404   0.47982   0.54919   0.00000  Uiso   1.00
C658   C     0.81802   0.40173   0.75117   0.00000  Uiso   1.00
C659   C     0.88263   0.52018   0.95081   0.00000  Uiso   1.00
C660   C     0.93040   0.54429   0.51786   0.00000  Uiso   1.00
C661   C     0.73626   0.45571   0.98214   0.00000  Uiso   1.00
C662   C     0.93038   0.54260   0.97138   0.00000  Uiso   1.00
C663   C     0.73629   0.45740   0.52862   0.00000  Uiso   1.00
C664   C     0.85669   0.65279   0.74814   0.00000  Uiso   1.00
C665   C     0.80998   0.34721   0.75186   0.00000  Uiso   1.00
C666   C     0.83383   0.49952   0.83654   0.00000  Uiso   1.00
C667   C     0.83284   0.50048   0.66346   0.00000  Uiso   1.00
C668   C     0.78365   0.48110   0.59548   0.00000  Uiso   1.00
H669   H     0.74639   0.46471   0.61575   0.00000  Uiso   1.00
H670   H     0.99531   0.53905   0.78398   0.00000  Uiso   1.00
H671   H     0.92027   0.53529   0.88425   0.00000  Uiso   1.00
H672   H     0.91729   0.53919   0.60767   0.00000  Uiso   1.00
H673   H     0.74937   0.46081   0.89233   0.00000  Uiso   1.00
H674   H     0.96781   0.55885   0.95129   0.00000  Uiso   1.00
H675   H     0.69886   0.44115   0.54871   0.00000  Uiso   1.00
H676   H     0.90078   0.33656   0.74459   0.00000  Uiso   1.00
H677   H     0.76589   0.66344   0.75541   0.00000  Uiso   1.00
H678   H     0.67136   0.46095   0.71602   0.00000  Uiso   1.00
N679   N     0.98344   0.48598   0.73783   0.00000  Uiso   1.00
N680   N     0.68322   0.51402   0.76217   0.00000  Uiso   1.00
O681   O     0.79642   0.57952   0.75298   0.00000  Uiso   1.00
O682   O     0.87025   0.42048   0.74701   0.00000  Uiso   1.00
O683   O     0.89280   0.57054   0.74518   0.00000  Uiso   1.00
O684   O     0.77387   0.42946   0.75481   0.00000  Uiso   1.00
O685   O     0.78514   0.50450   0.81997   0.00000  Uiso   1.00
O686   O     0.88153   0.49550   0.68002   0.00000  Uiso   1.00
O687   O     0.88152   0.49552   0.81217   0.00000  Uiso   1.00
O688   O     0.78515   0.50448   0.68782   0.00000  Uiso   1.00
Zn689  Zn    0.76898   0.50600   0.75521   0.00000  Uiso   1.00
Zn690  Zn    0.89769   0.49400   0.74479   0.00000  Uiso   1.00
Br691  Br    0.33094   0.91016   0.54314   0.00000  Uiso   1.00
Br692  Br    0.00239   0.75651   0.95686   0.00000  Uiso   1.00
C693   C     0.18198   0.93160   0.74883   0.00000  Uiso   1.00
C694   C     0.21635   0.85223   0.90452   0.00000  Uiso   1.00
C695   C     0.16544   0.83520   0.61572   0.00000  Uiso   1.00
C696   C     0.16790   0.83147   0.88428   0.00000  Uiso   1.00
C697   C     0.21409   0.85624   0.59055   0.00000  Uiso   1.00
C698   C     0.11925   0.81042   0.90945   0.00000  Uiso   1.00
C699   C     0.21526   0.85630   0.54408   0.00000  Uiso   1.00
C700   C     0.11808   0.81036   0.95592   0.00000  Uiso   1.00
C701   C     0.16651   0.83405   0.52330   0.00000  Uiso   1.00
C702   C     0.16683   0.83261   0.97670   0.00000  Uiso   1.00
C703   C     0.11737   0.81315   0.54919   0.00000  Uiso   1.00
C704   C     0.15136   0.73507   0.75117   0.00000  Uiso   1.00
C705   C     0.21596   0.85351   0.95081   0.00000  Uiso   1.00
C706   C     0.26374   0.87763   0.51786   0.00000  Uiso   1.00
C707   C     0.06960   0.78904   0.98214   0.00000  Uiso   1.00
C708   C     0.26371   0.87594   0.97138   0.00000  Uiso   1.00
C709   C     0.06962   0.79073   0.52862   0.00000  Uiso   1.00
C710   C     0.19002   0.98612   0.74814   0.00000  Uiso   1.00
C711   C     0.14331   0.68055   0.75186   0.00000  Uiso   1.00
C712   C     0.16716   0.83285   0.83654   0.00000  Uiso   1.00
C713   C     0.16617   0.83381   0.66346   0.00000  Uiso   1.00
C714   C     0.11698   0.81444   0.59548   0.00000  Uiso   1.00
H715   H     0.07973   0.79804   0.61575   0.00000  Uiso   1.00
H716   H     0.32864   0.87239   0.78398   0.00000  Uiso   1.00
H717   H     0.25361   0.86862   0.88425   0.00000  Uiso   1.00
H718   H     0.25063   0.87253   0.60767   0.00000  Uiso   1.00
H719   H     0.08271   0.79414   0.89233   0.00000  Uiso   1.00
H720   H     0.30114   0.89218   0.95129   0.00000  Uiso   1.00
H721   H     0.03219   0.77449   0.54871   0.00000  Uiso   1.00
H722   H     0.23411   0.66989   0.74459   0.00000  Uiso   1.00
H723   H     0.09922   0.99677   0.75541   0.00000  Uiso   1.00
H724   H     0.00469   0.79428   0.71602   0.00000  Uiso   1.00
N725   N     0.31678   0.81932   0.73783   0.00000  Uiso   1.00
N726   N     0.01656   0.84735   0.76217   0.00000  Uiso   1.00
O727   O     0.12975   0.91286   0.75298   0.00000  Uiso   1.00
O728   O     0.20358   0.75381   0.74701   0.00000  Uiso   1.00
O729   O     0.22613   0.90387   0.74518   0.00000  Uiso   1.00
O730   O     0.10720   0.76279   0.75481   0.00000  Uiso   1.00
O731   O     0.11847   0.83784   0.81997   0.00000  Uiso   1.00
O732   O     0.21486   0.82883   0.68002   0.00000  Uiso   1.00
O733   O     0.21485   0.82885   0.81217   0.00000  Uiso   1.00
O734   O     0.11848   0.83781   0.68782   0.00000  Uiso   1.00
Zn735  Zn    0.10231   0.83933   0.75521   0.00000  Uiso   1.00
Zn736  Zn    0.23102   0.82734   0.74479   0.00000  Uiso   1.00
Br737  Br    0.66428   0.91016   0.54314   0.00000  Uiso   1.00
Br738  Br    0.33572   0.75651   0.95686   0.00000  Uiso   1.00
C739   C     0.51531   0.93160   0.74883   0.00000  Uiso   1.00
C740   C     0.54969   0.85223   0.90452   0.00000  Uiso   1.00
C741   C     0.49877   0.83520   0.61572   0.00000  Uiso   1.00
C742   C     0.50123   0.83147   0.88428   0.00000  Uiso   1.00
C743   C     0.54742   0.85624   0.59055   0.00000  Uiso   1.00
C744   C     0.45258   0.81042   0.90945   0.00000  Uiso   1.00
C745   C     0.54859   0.85630   0.54408   0.00000  Uiso   1.00
C746   C     0.45141   0.81036   0.95592   0.00000  Uiso   1.00
C747   C     0.49984   0.83405   0.52330   0.00000  Uiso   1.00
C748   C     0.50016   0.83261   0.97670   0.00000  Uiso   1.00
C749   C     0.45070   0.81315   0.54919   0.00000  Uiso   1.00
C750   C     0.48469   0.73507   0.75117   0.00000  Uiso   1.00
C751   C     0.54929   0.85351   0.95081   0.00000  Uiso   1.00
C752   C     0.59707   0.87763   0.51786   0.00000  Uiso   1.00
C753   C     0.40293   0.78904   0.98214   0.00000  Uiso   1.00
C754   C     0.59705   0.87594   0.97138   0.00000  Uiso   1.00
C755   C     0.40295   0.79073   0.52862   0.00000  Uiso   1.00
C756   C     0.52336   0.98612   0.74814   0.00000  Uiso   1.00
C757   C     0.47664   0.68055   0.75186   0.00000  Uiso   1.00
C758   C     0.50050   0.83285   0.83654   0.00000  Uiso   1.00
C759   C     0.49950   0.83381   0.66346   0.00000  Uiso   1.00
C760   C     0.45031   0.81444   0.59548   0.00000  Uiso   1.00
H761   H     0.41306   0.79804   0.61575   0.00000  Uiso   1.00
H762   H     0.66198   0.87239   0.78398   0.00000  Uiso   1.00
H763   H     0.58694   0.86862   0.88425   0.00000  Uiso   1.00
H764   H     0.58396   0.87253   0.60767   0.00000  Uiso   1.00
H765   H     0.41604   0.79414   0.89233   0.00000  Uiso   1.00
H766   H     0.63447   0.89218   0.95129   0.00000  Uiso   1.00
H767   H     0.36553   0.77449   0.54871   0.00000  Uiso   1.00
H768   H     0.56744   0.66989   0.74459   0.00000  Uiso   1.00
H769   H     0.43255   0.99677   0.75541   0.00000  Uiso   1.00
H770   H     0.33802   0.79428   0.71602   0.00000  Uiso   1.00
N771   N     0.65011   0.81932   0.73783   0.00000  Uiso   1.00
N772   N     0.34989   0.84735   0.76217   0.00000  Uiso   1.00
O773   O     0.46308   0.91286   0.75298   0.00000  Uiso   1.00
O774   O     0.53692   0.75381   0.74701   0.00000  Uiso   1.00
O775   O     0.55946   0.90387   0.74518   0.00000  Uiso   1.00
O776   O     0.44054   0.76279   0.75481   0.00000  Uiso   1.00
O777   O     0.45181   0.83784   0.81997   0.00000  Uiso   1.00
O778   O     0.54819   0.82883   0.68002   0.00000  Uiso   1.00
O779   O     0.54819   0.82885   0.81217   0.00000  Uiso   1.00
O780   O     0.45181   0.83781   0.68782   0.00000  Uiso   1.00
Zn781  Zn    0.43565   0.83933   0.75521   0.00000  Uiso   1.00
Zn782  Zn    0.56435   0.82734   0.74479   0.00000  Uiso   1.00
Br783  Br    0.99761   0.91016   0.54314   0.00000  Uiso   1.00
Br784  Br    0.66906   0.75651   0.95686   0.00000  Uiso   1.00
C785   C     0.84864   0.93160   0.74883   0.00000  Uiso   1.00
C786   C     0.88302   0.85223   0.90452   0.00000  Uiso   1.00
C787   C     0.83210   0.83520   0.61572   0.00000  Uiso   1.00
C788   C     0.83456   0.83147   0.88428   0.00000  Uiso   1.00
C789   C     0.88075   0.85624   0.59055   0.00000  Uiso   1.00
C790   C     0.78591   0.81042   0.90945   0.00000  Uiso   1.00
C791   C     0.88192   0.85630   0.54408   0.00000  Uiso   1.00
C792   C     0.78474   0.81036   0.95592   0.00000  Uiso   1.00
C793   C     0.83317   0.83405   0.52330   0.00000  Uiso   1.00
C794   C     0.83349   0.83261   0.97670   0.00000  Uiso   1.00
C795   C     0.78404   0.81315   0.54919   0.00000  Uiso   1.00
C796   C     0.81802   0.73507   0.75117   0.00000  Uiso   1.00
C797   C     0.88263   0.85351   0.95081   0.00000  Uiso   1.00
C798   C     0.93040   0.87763   0.51786   0.00000  Uiso   1.00
C799   C     0.73626   0.78904   0.98214   0.00000  Uiso   1.00
C800   C     0.93038   0.87594   0.97138   0.00000  Uiso   1.00
C801   C     0.73629   0.79073   0.52862   0.00000  Uiso   1.00
C802   C     0.85669   0.98612   0.74814   0.00000  Uiso   1.00
C803   C     0.80998   0.68055   0.75186   0.00000  Uiso   1.00
C804   C     0.83383   0.83285   0.83654   0.00000  Uiso   1.00
C805   C     0.83284   0.83381   0.66346   0.00000  Uiso   1.00
C806   C     0.78365   0.81444   0.59548   0.00000  Uiso   1.00
H807   H     0.74639   0.79804   0.61575   0.00000  Uiso   1.00
H808   H     0.99531   0.87239   0.78398   0.00000  Uiso   1.00
H809   H     0.92027   0.86862   0.88425   0.00000  Uiso   1.00
H810   H     0.91729   0.87253   0.60767   0.00000  Uiso   1.00
H811   H     0.74937   0.79414   0.89233   0.00000  Uiso   1.00
H812   H     0.96781   0.89218   0.95129   0.00000  Uiso   1.00
H813   H     0.69886   0.77449   0.54871   0.00000  Uiso   1.00
H814   H     0.90078   0.66989   0.74459   0.00000  Uiso   1.00
H815   H     0.76589   0.99677   0.75541   0.00000  Uiso   1.00
H816   H     0.67136   0.79428   0.71602   0.00000  Uiso   1.00
N817   N     0.98344   0.81932   0.73783   0.00000  Uiso   1.00
N818   N     0.68322   0.84735   0.76217   0.00000  Uiso   1.00
O819   O     0.79642   0.91286   0.75298   0.00000  Uiso   1.00
O820   O     0.87025   0.75381   0.74701   0.00000  Uiso   1.00
O821   O     0.89280   0.90387   0.74518   0.00000  Uiso   1.00
O822   O     0.77387   0.76279   0.75481   0.00000  Uiso   1.00
O823   O     0.78514   0.83784   0.81997   0.00000  Uiso   1.00
O824   O     0.88153   0.82883   0.68002   0.00000  Uiso   1.00
O825   O     0.88152   0.82885   0.81217   0.00000  Uiso   1.00
O826   O     0.78515   0.83781   0.68782   0.00000  Uiso   1.00
Zn827  Zn    0.76898   0.83933   0.75521   0.00000  Uiso   1.00
Zn828  Zn    0.89769   0.82734   0.74479   0.00000  Uiso   1.00
loop_
_geom_bond_atom_site_label_1
_geom_bond_atom_site_label_2
_geom_bond_distance
_geom_bond_site_symmetry_2
_ccdc_geom_bond_type
Br1    C16     1.924   .     S
Br2    C17     1.924   .     S
C3     O39     1.286   .     A
C3     C20     1.402   .     S
C3     O37     1.276   .     A
C4     C15     1.382   .     A
C4     C6      1.391   .     A
C4     H27     1.085   .     S
C5     C23     1.429   .     S
C5     C24     1.391   .     A
C5     C7      1.395   .     A
C6     C22     1.429   .     S
C6     C8      1.395   .     A
C7     C9      1.387   .     A
C7     H28     1.082   .     S
C8     H29     1.082   .     S
C8     C10     1.387   .     A
C9     C11     1.417   .     A
C9     C16     1.410   .     A
C10    C12     1.417   .     A
C10    C17     1.410   .     A
C11    C13     1.413   .     A
C11    C426    1.392   1_554 S
C12    C15     1.413   .     A
C12    C425    1.392   .     S
C13    C19     1.397   .     A
C13    C24     1.382   .     A
C14    O38     1.276   .     A
C14    C21     1.402   .     S
C14    O40     1.286   .     A
C15    C18     1.397   .     A
C16    C432    1.389   1_554 S
C17    C433    1.389   .     S
C18    H30     1.084   .     S
C18    C430    1.389   .     S
C19    H31     1.084   .     S
C19    C431    1.389   1_554 S
C20    C159    1.336   .     S
C20    H170    1.088   .     S
C21    C296    1.336   1_545 S
C21    H309    1.088   1_545 S
C22    O41     1.286   .     A
C22    O43     1.289   .     A
C23    O42     1.286   .     A
C23    O44     1.289   .     A
C24    H25     1.085   .     S
H26    N82     1.029   .     S
H32    C296    1.088   1_545 S
H33    C159    1.088   .     S
H34    N127    1.029   1_455 S
N35    Zn46    2.015   .     S
N35    H80     1.029   .     S
N35    N82     1.278   .     S
N36    Zn45    2.015   .     S
N36    N127    1.278   1_455 S
N36    H118    1.029   1_455 S
O37    Zn45    1.955   .     S
O38    Zn46    1.955   .     S
O39    Zn46    1.978   .     S
O40    Zn45    1.978   .     S
O41    Zn45    2.001   .     S
O42    Zn46    2.001   .     S
O43    Zn46    2.020   .     S
O44    Zn45    2.020   .     S
Br47   C62     1.924   .     S
Br48   C63     1.924   .     S
C49    O85     1.286   .     A
C49    C66     1.402   .     S
C49    O83     1.276   .     A
C50    C61     1.382   .     A
C50    C52     1.391   .     A
C50    H73     1.085   .     S
C51    C69     1.429   .     S
C51    C70     1.391   .     A
C51    C53     1.395   .     A
C52    C68     1.429   .     S
C52    C54     1.395   .     A
C53    C55     1.387   .     A
C53    H74     1.082   .     S
C54    H75     1.082   .     S
C54    C56     1.387   .     A
C55    C57     1.417   .     A
C55    C62     1.410   .     A
C56    C58     1.417   .     A
C56    C63     1.410   .     A
C57    C59     1.413   .     A
C57    C472    1.392   1_554 S
C58    C61     1.413   .     A
C58    C471    1.392   .     S
C59    C65     1.397   .     A
C59    C70     1.382   .     A
C60    O84     1.276   .     A
C60    C67     1.402   .     S
C60    O86     1.286   .     A
C61    C64     1.397   .     A
C62    C478    1.389   1_554 S
C63    C479    1.389   .     S
C64    H76     1.084   .     S
C64    C476    1.389   .     S
C65    H77     1.084   .     S
C65    C477    1.389   1_554 S
C66    C205    1.336   .     S
C66    H216    1.088   .     S
C67    C342    1.336   1_545 S
C67    H355    1.088   1_545 S
C68    O87     1.286   .     A
C68    O89     1.289   .     A
C69    O88     1.286   .     A
C69    O90     1.289   .     A
C70    H71     1.085   .     S
H72    N128    1.029   .     S
H78    C342    1.088   1_545 S
H79    C205    1.088   .     S
N81    Zn92    2.015   .     S
N81    H126    1.029   .     S
N81    N128    1.278   .     S
N82    Zn91    2.015   .     S
O83    Zn91    1.955   .     S
O84    Zn92    1.955   .     S
O85    Zn92    1.978   .     S
O86    Zn91    1.978   .     S
O87    Zn91    2.001   .     S
O88    Zn92    2.001   .     S
O89    Zn92    2.020   .     S
O90    Zn91    2.020   .     S
Br93   C108    1.924   .     S
Br94   C109    1.924   .     S
C95    O131    1.286   .     A
C95    C112    1.402   .     S
C95    O129    1.276   .     A
C96    C107    1.382   .     A
C96    C98     1.391   .     A
C96    H119    1.085   .     S
C97    C115    1.429   .     S
C97    C116    1.391   .     A
C97    C99     1.395   .     A
C98    C114    1.429   .     S
C98    C100    1.395   .     A
C99    C101    1.387   .     A
C99    H120    1.082   .     S
C100   H121    1.082   .     S
C100   C102    1.387   .     A
C101   C103    1.417   .     A
C101   C108    1.410   .     A
C102   C104    1.417   .     A
C102   C109    1.410   .     A
C103   C105    1.413   .     A
C103   C518    1.392   1_554 S
C104   C107    1.413   .     A
C104   C517    1.392   .     S
C105   C111    1.397   .     A
C105   C116    1.382   .     A
C106   O130    1.276   .     A
C106   C113    1.402   .     S
C106   O132    1.286   .     A
C107   C110    1.397   .     A
C108   C524    1.389   1_554 S
C109   C525    1.389   .     S
C110   H122    1.084   .     S
C110   C522    1.389   .     S
C111   H123    1.084   .     S
C111   C523    1.389   1_554 S
C112   C251    1.336   .     S
C112   H262    1.088   .     S
C113   C388    1.336   1_545 S
C113   H401    1.088   1_545 S
C114   O133    1.286   .     A
C114   O135    1.289   .     A
C115   O134    1.286   .     A
C115   O136    1.289   .     A
C116   H117    1.085   .     S
H118   N36     1.029   1_655 S
H124   C388    1.088   1_545 S
H125   C251    1.088   .     S
N127   Zn138   2.015   .     S
N127   H34     1.029   1_655 S
N127   N36     1.278   1_655 S
N128   Zn137   2.015   .     S
O129   Zn137   1.955   .     S
O130   Zn138   1.955   .     S
O131   Zn138   1.978   .     S
O132   Zn137   1.978   .     S
O133   Zn137   2.001   .     S
O134   Zn138   2.001   .     S
O135   Zn138   2.020   .     S
O136   Zn137   2.020   .     S
Br139  C154    1.924   .     S
Br140  C155    1.924   .     S
C141   O177    1.286   .     A
C141   C158    1.402   .     S
C141   O175    1.276   .     A
C142   C153    1.382   .     A
C142   C144    1.391   .     A
C142   H165    1.085   .     S
C143   C161    1.429   .     S
C143   C162    1.391   .     A
C143   C145    1.395   .     A
C144   C160    1.429   .     S
C144   C146    1.395   .     A
C145   C147    1.387   .     A
C145   H166    1.082   .     S
C146   H167    1.082   .     S
C146   C148    1.387   .     A
C147   C149    1.417   .     A
C147   C154    1.410   .     A
C148   C150    1.417   .     A
C148   C155    1.410   .     A
C149   C151    1.413   .     A
C149   C564    1.392   1_554 S
C150   C153    1.413   .     A
C150   C563    1.392   .     S
C151   C157    1.397   .     A
C151   C162    1.382   .     A
C152   O176    1.276   .     A
C152   C159    1.402   .     S
C152   O178    1.286   .     A
C153   C156    1.397   .     A
C154   C570    1.389   1_554 S
C155   C571    1.389   .     S
C156   H168    1.084   .     S
C156   C568    1.389   .     S
C157   H169    1.084   .     S
C157   C569    1.389   1_554 S
C158   C297    1.336   .     S
C158   H308    1.088   .     S
C160   O179    1.286   .     A
C160   O181    1.289   .     A
C161   O180    1.286   .     A
C161   O182    1.289   .     A
C162   H163    1.085   .     S
H164   N220    1.029   .     S
H171   C297    1.088   .     S
H172   N265    1.029   1_455 S
N173   Zn184   2.015   .     S
N173   H218    1.029   .     S
N173   N220    1.278   .     S
N174   Zn183   2.015   .     S
N174   N265    1.278   1_455 S
N174   H256    1.029   1_455 S
O175   Zn183   1.955   .     S
O176   Zn184   1.955   .     S
O177   Zn184   1.978   .     S
O178   Zn183   1.978   .     S
O179   Zn183   2.001   .     S
O180   Zn184   2.001   .     S
O181   Zn184   2.020   .     S
O182   Zn183   2.020   .     S
Br185  C200    1.924   .     S
Br186  C201    1.924   .     S
C187   O223    1.286   .     A
C187   C204    1.402   .     S
C187   O221    1.276   .     A
C188   C199    1.382   .     A
C188   C190    1.391   .     A
C188   H211    1.085   .     S
C189   C207    1.429   .     S
C189   C208    1.391   .     A
C189   C191    1.395   .     A
C190   C206    1.429   .     S
C190   C192    1.395   .     A
C191   C193    1.387   .     A
C191   H212    1.082   .     S
C192   H213    1.082   .     S
C192   C194    1.387   .     A
C193   C195    1.417   .     A
C193   C200    1.410   .     A
C194   C196    1.417   .     A
C194   C201    1.410   .     A
C195   C197    1.413   .     A
C195   C610    1.392   1_554 S
C196   C199    1.413   .     A
C196   C609    1.392   .     S
C197   C203    1.397   .     A
C197   C208    1.382   .     A
C198   O222    1.276   .     A
C198   C205    1.402   .     S
C198   O224    1.286   .     A
C199   C202    1.397   .     A
C200   C616    1.389   1_554 S
C201   C617    1.389   .     S
C202   H214    1.084   .     S
C202   C614    1.389   .     S
C203   H215    1.084   .     S
C203   C615    1.389   1_554 S
C204   C343    1.336   .     S
C204   H354    1.088   .     S
C206   O225    1.286   .     A
C206   O227    1.289   .     A
C207   O226    1.286   .     A
C207   O228    1.289   .     A
C208   H209    1.085   .     S
H210   N266    1.029   .     S
H217   C343    1.088   .     S
N219   Zn230   2.015   .     S
N219   H264    1.029   .     S
N219   N266    1.278   .     S
N220   Zn229   2.015   .     S
O221   Zn229   1.955   .     S
O222   Zn230   1.955   .     S
O223   Zn230   1.978   .     S
O224   Zn229   1.978   .     S
O225   Zn229   2.001   .     S
O226   Zn230   2.001   .     S
O227   Zn230   2.020   .     S
O228   Zn229   2.020   .     S
Br231  C246    1.924   .     S
Br232  C247    1.924   .     S
C233   O269    1.286   .     A
C233   C250    1.402   .     S
C233   O267    1.276   .     A
C234   C245    1.382   .     A
C234   C236    1.391   .     A
C234   H257    1.085   .     S
C235   C253    1.429   .     S
C235   C254    1.391   .     A
C235   C237    1.395   .     A
C236   C252    1.429   .     S
C236   C238    1.395   .     A
C237   C239    1.387   .     A
C237   H258    1.082   .     S
C238   H259    1.082   .     S
C238   C240    1.387   .     A
C239   C241    1.417   .     A
C239   C246    1.410   .     A
C240   C242    1.417   .     A
C240   C247    1.410   .     A
C241   C243    1.413   .     A
C241   C656    1.392   1_554 S
C242   C245    1.413   .     A
C242   C655    1.392   .     S
C243   C249    1.397   .     A
C243   C254    1.382   .     A
C244   O268    1.276   .     A
C244   C251    1.402   .     S
C244   O270    1.286   .     A
C245   C248    1.397   .     A
C246   C662    1.389   1_554 S
C247   C663    1.389   .     S
C248   H260    1.084   .     S
C248   C660    1.389   .     S
C249   H261    1.084   .     S
C249   C661    1.389   1_554 S
C250   C389    1.336   .     S
C250   H400    1.088   .     S
C252   O271    1.286   .     A
C252   O273    1.289   .     A
C253   O272    1.286   .     A
C253   O274    1.289   .     A
C254   H255    1.085   .     S
H256   N174    1.029   1_655 S
H263   C389    1.088   .     S
N265   Zn276   2.015   .     S
N265   H172    1.029   1_655 S
N265   N174    1.278   1_655 S
N266   Zn275   2.015   .     S
O267   Zn275   1.955   .     S
O268   Zn276   1.955   .     S
O269   Zn276   1.978   .     S
O270   Zn275   1.978   .     S
O271   Zn275   2.001   .     S
O272   Zn276   2.001   .     S
O273   Zn276   2.020   .     S
O274   Zn275   2.020   .     S
Br277  C292    1.924   .     S
Br278  C293    1.924   .     S
C279   O315    1.286   .     A
C279   C296    1.402   .     S
C279   O313    1.276   .     A
C280   C291    1.382   .     A
C280   C282    1.391   .     A
C280   H303    1.085   .     S
C281   C299    1.429   .     S
C281   C300    1.391   .     A
C281   C283    1.395   .     A
C282   C298    1.429   .     S
C282   C284    1.395   .     A
C283   C285    1.387   .     A
C283   H304    1.082   .     S
C284   H305    1.082   .     S
C284   C286    1.387   .     A
C285   C287    1.417   .     A
C285   C292    1.410   .     A
C286   C288    1.417   .     A
C286   C293    1.410   .     A
C287   C289    1.413   .     A
C287   C702    1.392   1_554 S
C288   C291    1.413   .     A
C288   C701    1.392   .     S
C289   C295    1.397   .     A
C289   C300    1.382   .     A
C290   O314    1.276   .     A
C290   C297    1.402   .     S
C290   O316    1.286   .     A
C291   C294    1.397   .     A
C292   C708    1.389   1_554 S
C293   C709    1.389   .     S
C294   H306    1.084   .     S
C294   C706    1.389   .     S
C295   H307    1.084   .     S
C295   C707    1.389   1_554 S
C296   C21     1.336   1_565 S
C296   H32     1.088   1_565 S
C298   O317    1.286   .     A
C298   O319    1.289   .     A
C299   O318    1.286   .     A
C299   O320    1.289   .     A
C300   H301    1.085   .     S
H302   N358    1.029   .     S
H309   C21     1.088   1_565 S
H310   N403    1.029   1_455 S
N311   Zn322   2.015   .     S
N311   H356    1.029   .     S
N311   N358    1.278   .     S
N312   Zn321   2.015   .     S
N312   N403    1.278   1_455 S
N312   H394    1.029   1_455 S
O313   Zn321   1.955   .     S
O314   Zn322   1.955   .     S
O315   Zn322   1.978   .     S
O316   Zn321   1.978   .     S
O317   Zn321   2.001   .     S
O318   Zn322   2.001   .     S
O319   Zn322   2.020   .     S
O320   Zn321   2.020   .     S
Br323  C338    1.924   .     S
Br324  C339    1.924   .     S
C325   O361    1.286   .     A
C325   C342    1.402   .     S
C325   O359    1.276   .     A
C326   C337    1.382   .     A
C326   C328    1.391   .     A
C326   H349    1.085   .     S
C327   C345    1.429   .     S
C327   C346    1.391   .     A
C327   C329    1.395   .     A
C328   C344    1.429   .     S
C328   C330    1.395   .     A
C329   C331    1.387   .     A
C329   H350    1.082   .     S
C330   H351    1.082   .     S
C330   C332    1.387   .     A
C331   C333    1.417   .     A
C331   C338    1.410   .     A
C332   C334    1.417   .     A
C332   C339    1.410   .     A
C333   C335    1.413   .     A
C333   C748    1.392   1_554 S
C334   C337    1.413   .     A
C334   C747    1.392   .     S
C335   C341    1.397   .     A
C335   C346    1.382   .     A
C336   O360    1.276   .     A
C336   C343    1.402   .     S
C336   O362    1.286   .     A
C337   C340    1.397   .     A
C338   C754    1.389   1_554 S
C339   C755    1.389   .     S
C340   H352    1.084   .     S
C340   C752    1.389   .     S
C341   H353    1.084   .     S
C341   C753    1.389   1_554 S
C342   C67     1.336   1_565 S
C342   H78     1.088   1_565 S
C344   O363    1.286   .     A
C344   O365    1.289   .     A
C345   O364    1.286   .     A
C345   O366    1.289   .     A
C346   H347    1.085   .     S
H348   N404    1.029   .     S
H355   C67     1.088   1_565 S
N357   Zn368   2.015   .     S
N357   H402    1.029   .     S
N357   N404    1.278   .     S
N358   Zn367   2.015   .     S
O359   Zn367   1.955   .     S
O360   Zn368   1.955   .     S
O361   Zn368   1.978   .     S
O362   Zn367   1.978   .     S
O363   Zn367   2.001   .     S
O364   Zn368   2.001   .     S
O365   Zn368   2.020   .     S
O366   Zn367   2.020   .     S
Br369  C384    1.924   .     S
Br370  C385    1.924   .     S
C371   O407    1.286   .     A
C371   C388    1.402   .     S
C371   O405    1.276   .     A
C372   C383    1.382   .     A
C372   C374    1.391   .     A
C372   H395    1.085   .     S
C373   C391    1.429   .     S
C373   C392    1.391   .     A
C373   C375    1.395   .     A
C374   C390    1.429   .     S
C374   C376    1.395   .     A
C375   C377    1.387   .     A
C375   H396    1.082   .     S
C376   H397    1.082   .     S
C376   C378    1.387   .     A
C377   C379    1.417   .     A
C377   C384    1.410   .     A
C378   C380    1.417   .     A
C378   C385    1.410   .     A
C379   C381    1.413   .     A
C379   C794    1.392   1_554 S
C380   C383    1.413   .     A
C380   C793    1.392   .     S
C381   C387    1.397   .     A
C381   C392    1.382   .     A
C382   O406    1.276   .     A
C382   C389    1.402   .     S
C382   O408    1.286   .     A
C383   C386    1.397   .     A
C384   C800    1.389   1_554 S
C385   C801    1.389   .     S
C386   H398    1.084   .     S
C386   C798    1.389   .     S
C387   H399    1.084   .     S
C387   C799    1.389   1_554 S
C388   C113    1.336   1_565 S
C388   H124    1.088   1_565 S
C390   O409    1.286   .     A
C390   O411    1.289   .     A
C391   O410    1.286   .     A
C391   O412    1.289   .     A
C392   H393    1.085   .     S
H394   N312    1.029   1_655 S
H401   C113    1.088   1_565 S
N403   Zn414   2.015   .     S
N403   H310    1.029   1_655 S
N403   N312    1.278   1_655 S
N404   Zn413   2.015   .     S
O405   Zn413   1.955   .     S
O406   Zn414   1.955   .     S
O407   Zn414   1.978   .     S
O408   Zn413   1.978   .     S
O409   Zn413   2.001   .     S
O410   Zn414   2.001   .     S
O411   Zn414   2.020   .     S
O412   Zn413   2.020   .     S
Br415  C430    1.924   .     S
Br416  C431    1.924   .     S
C417   O453    1.286   .     A
C417   C434    1.402   .     S
C417   O451    1.276   .     A
C418   C429    1.382   .     A
C418   C420    1.391   .     A
C418   H441    1.085   .     S
C419   C437    1.429   .     S
C419   C438    1.391   .     A
C419   C421    1.395   .     A
C420   C436    1.429   .     S
C420   C422    1.395   .     A
C421   C423    1.387   .     A
C421   H442    1.082   .     S
C422   H443    1.082   .     S
C422   C424    1.387   .     A
C423   C425    1.417   .     A
C423   C430    1.410   .     A
C424   C426    1.417   .     A
C424   C431    1.410   .     A
C425   C427    1.413   .     A
C426   C429    1.413   .     A
C426   C11     1.392   1_556 S
C427   C433    1.397   .     A
C427   C438    1.382   .     A
C428   O452    1.276   .     A
C428   C435    1.402   .     S
C428   O454    1.286   .     A
C429   C432    1.397   .     A
C431   C19     1.389   1_556 S
C432   H444    1.084   .     S
C432   C16     1.389   1_556 S
C433   H445    1.084   .     S
C434   C573    1.336   .     S
C434   H584    1.088   .     S
C435   C710    1.336   1_545 S
C435   H723    1.088   1_545 S
C436   O455    1.286   .     A
C436   O457    1.289   .     A
C437   O456    1.286   .     A
C437   O458    1.289   .     A
C438   H439    1.085   .     S
H440   N496    1.029   .     S
H446   C710    1.088   1_545 S
H447   C573    1.088   .     S
H448   N541    1.029   1_455 S
N449   Zn460   2.015   .     S
N449   H494    1.029   .     S
N449   N496    1.278   .     S
N450   Zn459   2.015   .     S
N450   N541    1.278   1_455 S
N450   H532    1.029   1_455 S
O451   Zn459   1.955   .     S
O452   Zn460   1.955   .     S
O453   Zn460   1.978   .     S
O454   Zn459   1.978   .     S
O455   Zn459   2.001   .     S
O456   Zn460   2.001   .     S
O457   Zn460   2.020   .     S
O458   Zn459   2.020   .     S
Br461  C476    1.924   .     S
Br462  C477    1.924   .     S
C463   O499    1.286   .     A
C463   C480    1.402   .     S
C463   O497    1.276   .     A
C464   C475    1.382   .     A
C464   C466    1.391   .     A
C464   H487    1.085   .     S
C465   C483    1.429   .     S
C465   C484    1.391   .     A
C465   C467    1.395   .     A
C466   C482    1.429   .     S
C466   C468    1.395   .     A
C467   C469    1.387   .     A
C467   H488    1.082   .     S
C468   H489    1.082   .     S
C468   C470    1.387   .     A
C469   C471    1.417   .     A
C469   C476    1.410   .     A
C470   C472    1.417   .     A
C470   C477    1.410   .     A
C471   C473    1.413   .     A
C472   C475    1.413   .     A
C472   C57     1.392   1_556 S
C473   C479    1.397   .     A
C473   C484    1.382   .     A
C474   O498    1.276   .     A
C474   C481    1.402   .     S
C474   O500    1.286   .     A
C475   C478    1.397   .     A
C477   C65     1.389   1_556 S
C478   H490    1.084   .     S
C478   C62     1.389   1_556 S
C479   H491    1.084   .     S
C480   C619    1.336   .     S
C480   H630    1.088   .     S
C481   C756    1.336   1_545 S
C481   H769    1.088   1_545 S
C482   O501    1.286   .     A
C482   O503    1.289   .     A
C483   O502    1.286   .     A
C483   O504    1.289   .     A
C484   H485    1.085   .     S
H486   N542    1.029   .     S
H492   C756    1.088   1_545 S
H493   C619    1.088   .     S
N495   Zn506   2.015   .     S
N495   H540    1.029   .     S
N495   N542    1.278   .     S
N496   Zn505   2.015   .     S
O497   Zn505   1.955   .     S
O498   Zn506   1.955   .     S
O499   Zn506   1.978   .     S
O500   Zn505   1.978   .     S
O501   Zn505   2.001   .     S
O502   Zn506   2.001   .     S
O503   Zn506   2.020   .     S
O504   Zn505   2.020   .     S
Br507  C522    1.924   .     S
Br508  C523    1.924   .     S
C509   O545    1.286   .     A
C509   C526    1.402   .     S
C509   O543    1.276   .     A
C510   C521    1.382   .     A
C510   C512    1.391   .     A
C510   H533    1.085   .     S
C511   C529    1.429   .     S
C511   C530    1.391   .     A
C511   C513    1.395   .     A
C512   C528    1.429   .     S
C512   C514    1.395   .     A
C513   C515    1.387   .     A
C513   H534    1.082   .     S
C514   H535    1.082   .     S
C514   C516    1.387   .     A
C515   C517    1.417   .     A
C515   C522    1.410   .     A
C516   C518    1.417   .     A
C516   C523    1.410   .     A
C517   C519    1.413   .     A
C518   C521    1.413   .     A
C518   C103    1.392   1_556 S
C519   C525    1.397   .     A
C519   C530    1.382   .     A
C520   O544    1.276   .     A
C520   C527    1.402   .     S
C520   O546    1.286   .     A
C521   C524    1.397   .     A
C523   C111    1.389   1_556 S
C524   H536    1.084   .     S
C524   C108    1.389   1_556 S
C525   H537    1.084   .     S
C526   C665    1.336   .     S
C526   H676    1.088   .     S
C527   C802    1.336   1_545 S
C527   H815    1.088   1_545 S
C528   O547    1.286   .     A
C528   O549    1.289   .     A
C529   O548    1.286   .     A
C529   O550    1.289   .     A
C530   H531    1.085   .     S
H532   N450    1.029   1_655 S
H538   C802    1.088   1_545 S
H539   C665    1.088   .     S
N541   Zn552   2.015   .     S
N541   H448    1.029   1_655 S
N541   N450    1.278   1_655 S
N542   Zn551   2.015   .     S
O543   Zn551   1.955   .     S
O544   Zn552   1.955   .     S
O545   Zn552   1.978   .     S
O546   Zn551   1.978   .     S
O547   Zn551   2.001   .     S
O548   Zn552   2.001   .     S
O549   Zn552   2.020   .     S
O550   Zn551   2.020   .     S
Br553  C568    1.924   .     S
Br554  C569    1.924   .     S
C555   O591    1.286   .     A
C555   C572    1.402   .     S
C555   O589    1.276   .     A
C556   C567    1.382   .     A
C556   C558    1.391   .     A
C556   H579    1.085   .     S
C557   C575    1.429   .     S
C557   C576    1.391   .     A
C557   C559    1.395   .     A
C558   C574    1.429   .     S
C558   C560    1.395   .     A
C559   C561    1.387   .     A
C559   H580    1.082   .     S
C560   H581    1.082   .     S
C560   C562    1.387   .     A
C561   C563    1.417   .     A
C561   C568    1.410   .     A
C562   C564    1.417   .     A
C562   C569    1.410   .     A
C563   C565    1.413   .     A
C564   C567    1.413   .     A
C564   C149    1.392   1_556 S
C565   C571    1.397   .     A
C565   C576    1.382   .     A
C566   O590    1.276   .     A
C566   C573    1.402   .     S
C566   O592    1.286   .     A
C567   C570    1.397   .     A
C569   C157    1.389   1_556 S
C570   H582    1.084   .     S
C570   C154    1.389   1_556 S
C571   H583    1.084   .     S
C572   C711    1.336   .     S
C572   H722    1.088   .     S
C574   O593    1.286   .     A
C574   O595    1.289   .     A
C575   O594    1.286   .     A
C575   O596    1.289   .     A
C576   H577    1.085   .     S
H578   N634    1.029   .     S
H585   C711    1.088   .     S
H586   N679    1.029   1_455 S
N587   Zn598   2.015   .     S
N587   H632    1.029   .     S
N587   N634    1.278   .     S
N588   Zn597   2.015   .     S
N588   N679    1.278   1_455 S
N588   H670    1.029   1_455 S
O589   Zn597   1.955   .     S
O590   Zn598   1.955   .     S
O591   Zn598   1.978   .     S
O592   Zn597   1.978   .     S
O593   Zn597   2.001   .     S
O594   Zn598   2.001   .     S
O595   Zn598   2.020   .     S
O596   Zn597   2.020   .     S
Br599  C614    1.924   .     S
Br600  C615    1.924   .     S
C601   O637    1.286   .     A
C601   C618    1.402   .     S
C601   O635    1.276   .     A
C602   C613    1.382   .     A
C602   C604    1.391   .     A
C602   H625    1.085   .     S
C603   C621    1.429   .     S
C603   C622    1.391   .     A
C603   C605    1.395   .     A
C604   C620    1.429   .     S
C604   C606    1.395   .     A
C605   C607    1.387   .     A
C605   H626    1.082   .     S
C606   H627    1.082   .     S
C606   C608    1.387   .     A
C607   C609    1.417   .     A
C607   C614    1.410   .     A
C608   C610    1.417   .     A
C608   C615    1.410   .     A
C609   C611    1.413   .     A
C610   C613    1.413   .     A
C610   C195    1.392   1_556 S
C611   C617    1.397   .     A
C611   C622    1.382   .     A
C612   O636    1.276   .     A
C612   C619    1.402   .     S
C612   O638    1.286   .     A
C613   C616    1.397   .     A
C615   C203    1.389   1_556 S
C616   H628    1.084   .     S
C616   C200    1.389   1_556 S
C617   H629    1.084   .     S
C618   C757    1.336   .     S
C618   H768    1.088   .     S
C620   O639    1.286   .     A
C620   O641    1.289   .     A
C621   O640    1.286   .     A
C621   O642    1.289   .     A
C622   H623    1.085   .     S
H624   N680    1.029   .     S
H631   C757    1.088   .     S
N633   Zn644   2.015   .     S
N633   H678    1.029   .     S
N633   N680    1.278   .     S
N634   Zn643   2.015   .     S
O635   Zn643   1.955   .     S
O636   Zn644   1.955   .     S
O637   Zn644   1.978   .     S
O638   Zn643   1.978   .     S
O639   Zn643   2.001   .     S
O640   Zn644   2.001   .     S
O641   Zn644   2.020   .     S
O642   Zn643   2.020   .     S
Br645  C660    1.924   .     S
Br646  C661    1.924   .     S
C647   O683    1.286   .     A
C647   C664    1.402   .     S
C647   O681    1.276   .     A
C648   C659    1.382   .     A
C648   C650    1.391   .     A
C648   H671    1.085   .     S
C649   C667    1.429   .     S
C649   C668    1.391   .     A
C649   C651    1.395   .     A
C650   C666    1.429   .     S
C650   C652    1.395   .     A
C651   C653    1.387   .     A
C651   H672    1.082   .     S
C652   H673    1.082   .     S
C652   C654    1.387   .     A
C653   C655    1.417   .     A
C653   C660    1.410   .     A
C654   C656    1.417   .     A
C654   C661    1.410   .     A
C655   C657    1.413   .     A
C656   C659    1.413   .     A
C656   C241    1.392   1_556 S
C657   C663    1.397   .     A
C657   C668    1.382   .     A
C658   O682    1.276   .     A
C658   C665    1.402   .     S
C658   O684    1.286   .     A
C659   C662    1.397   .     A
C661   C249    1.389   1_556 S
C662   H674    1.084   .     S
C662   C246    1.389   1_556 S
C663   H675    1.084   .     S
C664   C803    1.336   .     S
C664   H814    1.088   .     S
C666   O685    1.286   .     A
C666   O687    1.289   .     A
C667   O686    1.286   .     A
C667   O688    1.289   .     A
C668   H669    1.085   .     S
H670   N588    1.029   1_655 S
H677   C803    1.088   .     S
N679   Zn690   2.015   .     S
N679   H586    1.029   1_655 S
N679   N588    1.278   1_655 S
N680   Zn689   2.015   .     S
O681   Zn689   1.955   .     S
O682   Zn690   1.955   .     S
O683   Zn690   1.978   .     S
O684   Zn689   1.978   .     S
O685   Zn689   2.001   .     S
O686   Zn690   2.001   .     S
O687   Zn690   2.020   .     S
O688   Zn689   2.020   .     S
Br691  C706    1.924   .     S
Br692  C707    1.924   .     S
C693   O729    1.286   .     A
C693   C710    1.402   .     S
C693   O727    1.276   .     A
C694   C705    1.382   .     A
C694   C696    1.391   .     A
C694   H717    1.085   .     S
C695   C713    1.429   .     S
C695   C714    1.391   .     A
C695   C697    1.395   .     A
C696   C712    1.429   .     S
C696   C698    1.395   .     A
C697   C699    1.387   .     A
C697   H718    1.082   .     S
C698   H719    1.082   .     S
C698   C700    1.387   .     A
C699   C701    1.417   .     A
C699   C706    1.410   .     A
C700   C702    1.417   .     A
C700   C707    1.410   .     A
C701   C703    1.413   .     A
C702   C705    1.413   .     A
C702   C287    1.392   1_556 S
C703   C709    1.397   .     A
C703   C714    1.382   .     A
C704   O728    1.276   .     A
C704   C711    1.402   .     S
C704   O730    1.286   .     A
C705   C708    1.397   .     A
C707   C295    1.389   1_556 S
C708   H720    1.084   .     S
C708   C292    1.389   1_556 S
C709   H721    1.084   .     S
C710   C435    1.336   1_565 S
C710   H446    1.088   1_565 S
C712   O731    1.286   .     A
C712   O733    1.289   .     A
C713   O732    1.286   .     A
C713   O734    1.289   .     A
C714   H715    1.085   .     S
H716   N772    1.029   .     S
H723   C435    1.088   1_565 S
H724   N817    1.029   1_455 S
N725   Zn736   2.015   .     S
N725   H770    1.029   .     S
N725   N772    1.278   .     S
N726   Zn735   2.015   .     S
N726   N817    1.278   1_455 S
N726   H808    1.029   1_455 S
O727   Zn735   1.955   .     S
O728   Zn736   1.955   .     S
O729   Zn736   1.978   .     S
O730   Zn735   1.978   .     S
O731   Zn735   2.001   .     S
O732   Zn736   2.001   .     S
O733   Zn736   2.020   .     S
O734   Zn735   2.020   .     S
Br737  C752    1.924   .     S
Br738  C753    1.924   .     S
C739   O775    1.286   .     A
C739   C756    1.402   .     S
C739   O773    1.276   .     A
C740   C751    1.382   .     A
C740   C742    1.391   .     A
C740   H763    1.085   .     S
C741   C759    1.429   .     S
C741   C760    1.391   .     A
C741   C743    1.395   .     A
C742   C758    1.429   .     S
C742   C744    1.395   .     A
C743   C745    1.387   .     A
C743   H764    1.082   .     S
C744   H765    1.082   .     S
C744   C746    1.387   .     A
C745   C747    1.417   .     A
C745   C752    1.410   .     A
C746   C748    1.417   .     A
C746   C753    1.410   .     A
C747   C749    1.413   .     A
C748   C751    1.413   .     A
C748   C333    1.392   1_556 S
C749   C755    1.397   .     A
C749   C760    1.382   .     A
C750   O774    1.276   .     A
C750   C757    1.402   .     S
C750   O776    1.286   .     A
C751   C754    1.397   .     A
C753   C341    1.389   1_556 S
C754   H766    1.084   .     S
C754   C338    1.389   1_556 S
C755   H767    1.084   .     S
C756   C481    1.336   1_565 S
C756   H492    1.088   1_565 S
C758   O777    1.286   .     A
C758   O779    1.289   .     A
C759   O778    1.286   .     A
C759   O780    1.289   .     A
C760   H761    1.085   .     S
H762   N818    1.029   .     S
H769   C481    1.088   1_565 S
N771   Zn782   2.015   .     S
N771   H816    1.029   .     S
N771   N818    1.278   .     S
N772   Zn781   2.015   .     S
O773   Zn781   1.955   .     S
O774   Zn782   1.955   .     S
O775   Zn782   1.978   .     S
O776   Zn781   1.978   .     S
O777   Zn781   2.001   .     S
O778   Zn782   2.001   .     S
O779   Zn782   2.020   .     S
O780   Zn781   2.020   .     S
Br783  C798    1.924   .     S
Br784  C799    1.924   .     S
C785   O821    1.286   .     A
C785   C802    1.402   .     S
C785   O819    1.276   .     A
C786   C797    1.382   .     A
C786   C788    1.391   .     A
C786   H809    1.085   .     S
C787   C805    1.429   .     S
C787   C806    1.391   .     A
C787   C789    1.395   .     A
C788   C804    1.429   .     S
C788   C790    1.395   .     A
C789   C791    1.387   .     A
C789   H810    1.082   .     S
C790   H811    1.082   .     S
C790   C792    1.387   .     A
C791   C793    1.417   .     A
C791   C798    1.410   .     A
C792   C794    1.417   .     A
C792   C799    1.410   .     A
C793   C795    1.413   .     A
C794   C797    1.413   .     A
C794   C379    1.392   1_556 S
C795   C801    1.397   .     A
C795   C806    1.382   .     A
C796   O820    1.276   .     A
C796   C803    1.402   .     S
C796   O822    1.286   .     A
C797   C800    1.397   .     A
C799   C387    1.389   1_556 S
C800   H812    1.084   .     S
C800   C384    1.389   1_556 S
C801   H813    1.084   .     S
C802   C527    1.336   1_565 S
C802   H538    1.088   1_565 S
C804   O823    1.286   .     A
C804   O825    1.289   .     A
C805   O824    1.286   .     A
C805   O826    1.289   .     A
C806   H807    1.085   .     S
H808   N726    1.029   1_655 S
H815   C527    1.088   1_565 S
N817   Zn828   2.015   .     S
N817   H724    1.029   1_655 S
N817   N726    1.278   1_655 S
N818   Zn827   2.015   .     S
O819   Zn827   1.955   .     S
O820   Zn828   1.955   .     S
O821   Zn828   1.978   .     S
O822   Zn827   1.978   .     S
O823   Zn827   2.001   .     S
O824   Zn828   2.001   .     S
O825   Zn828   2.020   .     S
O826   Zn827   2.020   .     S
