data_str_m3_o1_o5_pcu_sym.11
_audit_creation_date              2020-01-03
_audit_creation_method            'Materials Studio'
_symmetry_space_group_name_H-M    'P1'
_symmetry_Int_Tables_number       1
_symmetry_cell_setting            triclinic
loop_
_symmetry_equiv_pos_as_xyz
  x,y,z
_cell_length_a                    32.1776
_cell_length_b                    29.7093
_cell_length_c                    26.6943
_cell_angle_alpha                 89.9883
_cell_angle_beta                  91.9160
_cell_angle_gamma                 89.9839
loop_
_atom_site_label
_atom_site_type_symbol
_atom_site_fract_x
_atom_site_fract_y
_atom_site_fract_z
_atom_site_U_iso_or_equiv
_atom_site_adp_type
_atom_site_occupancy
Br1    Br    0.04438   0.06921   0.19900   0.00000  Uiso   1.00
Br2    Br    0.28897   0.26411   0.13430   0.00000  Uiso   1.00
Br3    Br    0.28906   0.06912   0.13467   0.00000  Uiso   1.00
Br4    Br    0.04427   0.26420   0.19871   0.00000  Uiso   1.00
Br5    Br    0.22748   0.05521   0.24738   0.00000  Uiso   1.00
Br6    Br    0.10585   0.27811   0.08597   0.00000  Uiso   1.00
Br7    Br    0.10582   0.05527   0.08598   0.00000  Uiso   1.00
Br8    Br    0.22752   0.27805   0.24733   0.00000  Uiso   1.00
C9     C     0.08688   0.16667   0.17183   0.00000  Uiso   1.00
C10    C     0.02070   0.20791   0.17416   0.00000  Uiso   1.00
C11    C     0.29100   0.16664   0.15661   0.00000  Uiso   1.00
C12    C     0.04233   0.16669   0.17673   0.00000  Uiso   1.00
C13    C     0.19167   0.02391   0.19995   0.00000  Uiso   1.00
C14    C     0.14166   0.30942   0.13338   0.00000  Uiso   1.00
C15    C     0.14166   0.02393   0.13338   0.00000  Uiso   1.00
C16    C     0.19167   0.30939   0.19995   0.00000  Uiso   1.00
C17    C     0.24645   0.16666   0.16151   0.00000  Uiso   1.00
C18    C     0.16654   0.16667   0.07294   0.00000  Uiso   1.00
C19    C     0.16679   0.16666   0.26040   0.00000  Uiso   1.00
C20    C     0.16663   0.16667   0.02181   0.00000  Uiso   1.00
C21    C     0.16671   0.16666   0.31152   0.00000  Uiso   1.00
C22    C     0.02073   0.12543   0.17430   0.00000  Uiso   1.00
C23    C     0.31260   0.20790   0.15903   0.00000  Uiso   1.00
C24    C     0.31263   0.12541   0.15919   0.00000  Uiso   1.00
N25    N     0.16667   0.28573   0.16667   0.00000  Uiso   1.00
N26    N     0.16667   0.04760   0.16667   0.00000  Uiso   1.00
O27    O     0.10559   0.20487   0.16666   0.00000  Uiso   1.00
O28    O     0.22774   0.12846   0.16667   0.00000  Uiso   1.00
O29    O     0.22774   0.20487   0.16667   0.00000  Uiso   1.00
O30    O     0.10559   0.12846   0.16666   0.00000  Uiso   1.00
O31    O     0.16667   0.20488   0.09511   0.00000  Uiso   1.00
O32    O     0.16666   0.12845   0.23822   0.00000  Uiso   1.00
O33    O     0.16666   0.20488   0.23822   0.00000  Uiso   1.00
O34    O     0.16667   0.12845   0.09511   0.00000  Uiso   1.00
Zn35   Zn    0.16667   0.21771   0.16667   0.00000  Uiso   1.00
Zn36   Zn    0.16667   0.11563   0.16667   0.00000  Uiso   1.00
Br37   Br    0.37771   0.06921   0.19900   0.00000  Uiso   1.00
Br38   Br    0.62230   0.26411   0.13430   0.00000  Uiso   1.00
Br39   Br    0.62239   0.06912   0.13467   0.00000  Uiso   1.00
Br40   Br    0.37760   0.26420   0.19871   0.00000  Uiso   1.00
Br41   Br    0.56081   0.05521   0.24738   0.00000  Uiso   1.00
Br42   Br    0.43918   0.27811   0.08597   0.00000  Uiso   1.00
Br43   Br    0.43916   0.05527   0.08598   0.00000  Uiso   1.00
Br44   Br    0.56085   0.27805   0.24733   0.00000  Uiso   1.00
C45    C     0.42021   0.16667   0.17183   0.00000  Uiso   1.00
C46    C     0.35403   0.20791   0.17416   0.00000  Uiso   1.00
C47    C     0.62434   0.16664   0.15661   0.00000  Uiso   1.00
C48    C     0.37567   0.16669   0.17673   0.00000  Uiso   1.00
C49    C     0.52500   0.02391   0.19995   0.00000  Uiso   1.00
C50    C     0.47500   0.30942   0.13338   0.00000  Uiso   1.00
C51    C     0.47499   0.02393   0.13338   0.00000  Uiso   1.00
C52    C     0.52501   0.30939   0.19995   0.00000  Uiso   1.00
C53    C     0.57978   0.16666   0.16151   0.00000  Uiso   1.00
C54    C     0.49987   0.16667   0.07294   0.00000  Uiso   1.00
C55    C     0.50013   0.16666   0.26040   0.00000  Uiso   1.00
C56    C     0.49996   0.16667   0.02181   0.00000  Uiso   1.00
C57    C     0.50004   0.16666   0.31152   0.00000  Uiso   1.00
C58    C     0.35407   0.12543   0.17430   0.00000  Uiso   1.00
C59    C     0.64593   0.20790   0.15903   0.00000  Uiso   1.00
C60    C     0.64596   0.12541   0.15919   0.00000  Uiso   1.00
N61    N     0.50000   0.28573   0.16667   0.00000  Uiso   1.00
N62    N     0.50000   0.04760   0.16667   0.00000  Uiso   1.00
O63    O     0.43892   0.20487   0.16666   0.00000  Uiso   1.00
O64    O     0.56108   0.12846   0.16667   0.00000  Uiso   1.00
O65    O     0.56108   0.20487   0.16667   0.00000  Uiso   1.00
O66    O     0.43892   0.12846   0.16666   0.00000  Uiso   1.00
O67    O     0.50000   0.20488   0.09511   0.00000  Uiso   1.00
O68    O     0.50000   0.12845   0.23822   0.00000  Uiso   1.00
O69    O     0.50000   0.20488   0.23822   0.00000  Uiso   1.00
O70    O     0.50000   0.12845   0.09511   0.00000  Uiso   1.00
Zn71   Zn    0.50000   0.21771   0.16667   0.00000  Uiso   1.00
Zn72   Zn    0.50000   0.11563   0.16667   0.00000  Uiso   1.00
Br73   Br    0.71105   0.06921   0.19900   0.00000  Uiso   1.00
Br74   Br    0.95563   0.26411   0.13430   0.00000  Uiso   1.00
Br75   Br    0.95572   0.06912   0.13467   0.00000  Uiso   1.00
Br76   Br    0.71094   0.26420   0.19871   0.00000  Uiso   1.00
Br77   Br    0.89414   0.05521   0.24738   0.00000  Uiso   1.00
Br78   Br    0.77252   0.27811   0.08597   0.00000  Uiso   1.00
Br79   Br    0.77249   0.05527   0.08598   0.00000  Uiso   1.00
Br80   Br    0.89418   0.27805   0.24733   0.00000  Uiso   1.00
C81    C     0.75355   0.16667   0.17183   0.00000  Uiso   1.00
C82    C     0.68737   0.20791   0.17416   0.00000  Uiso   1.00
C83    C     0.95767   0.16664   0.15661   0.00000  Uiso   1.00
C84    C     0.70900   0.16669   0.17673   0.00000  Uiso   1.00
C85    C     0.85834   0.02391   0.19995   0.00000  Uiso   1.00
C86    C     0.80833   0.30942   0.13338   0.00000  Uiso   1.00
C87    C     0.80833   0.02393   0.13338   0.00000  Uiso   1.00
C88    C     0.85834   0.30939   0.19995   0.00000  Uiso   1.00
C89    C     0.91312   0.16666   0.16151   0.00000  Uiso   1.00
C90    C     0.83321   0.16667   0.07294   0.00000  Uiso   1.00
C91    C     0.83346   0.16666   0.26040   0.00000  Uiso   1.00
C92    C     0.83329   0.16667   0.02181   0.00000  Uiso   1.00
C93    C     0.83337   0.16666   0.31152   0.00000  Uiso   1.00
C94    C     0.68740   0.12543   0.17430   0.00000  Uiso   1.00
C95    C     0.97927   0.20790   0.15903   0.00000  Uiso   1.00
C96    C     0.97930   0.12541   0.15919   0.00000  Uiso   1.00
N97    N     0.83333   0.28573   0.16667   0.00000  Uiso   1.00
N98    N     0.83333   0.04760   0.16667   0.00000  Uiso   1.00
O99    O     0.77226   0.20487   0.16666   0.00000  Uiso   1.00
O100   O     0.89441   0.12846   0.16667   0.00000  Uiso   1.00
O101   O     0.89441   0.20487   0.16667   0.00000  Uiso   1.00
O102   O     0.77226   0.12846   0.16666   0.00000  Uiso   1.00
O103   O     0.83334   0.20488   0.09511   0.00000  Uiso   1.00
O104   O     0.83333   0.12845   0.23822   0.00000  Uiso   1.00
O105   O     0.83333   0.20488   0.23822   0.00000  Uiso   1.00
O106   O     0.83334   0.12845   0.09511   0.00000  Uiso   1.00
Zn107  Zn    0.83333   0.21771   0.16667   0.00000  Uiso   1.00
Zn108  Zn    0.83333   0.11563   0.16667   0.00000  Uiso   1.00
Br109  Br    0.04438   0.40254   0.19900   0.00000  Uiso   1.00
Br110  Br    0.28897   0.59745   0.13430   0.00000  Uiso   1.00
Br111  Br    0.28906   0.40245   0.13467   0.00000  Uiso   1.00
Br112  Br    0.04427   0.59753   0.19871   0.00000  Uiso   1.00
Br113  Br    0.22748   0.38854   0.24738   0.00000  Uiso   1.00
Br114  Br    0.10585   0.61144   0.08597   0.00000  Uiso   1.00
Br115  Br    0.10582   0.38860   0.08598   0.00000  Uiso   1.00
Br116  Br    0.22752   0.61138   0.24733   0.00000  Uiso   1.00
C117   C     0.08688   0.50000   0.17183   0.00000  Uiso   1.00
C118   C     0.02070   0.54125   0.17416   0.00000  Uiso   1.00
C119   C     0.29100   0.49998   0.15661   0.00000  Uiso   1.00
C120   C     0.04233   0.50002   0.17673   0.00000  Uiso   1.00
C121   C     0.19167   0.35724   0.19995   0.00000  Uiso   1.00
C122   C     0.14166   0.64275   0.13338   0.00000  Uiso   1.00
C123   C     0.14166   0.35727   0.13338   0.00000  Uiso   1.00
C124   C     0.19167   0.64273   0.19995   0.00000  Uiso   1.00
C125   C     0.24645   0.50000   0.16151   0.00000  Uiso   1.00
C126   C     0.16654   0.50000   0.07294   0.00000  Uiso   1.00
C127   C     0.16679   0.50000   0.26040   0.00000  Uiso   1.00
C128   C     0.16663   0.50000   0.02181   0.00000  Uiso   1.00
C129   C     0.16671   0.50000   0.31152   0.00000  Uiso   1.00
C130   C     0.02073   0.45876   0.17430   0.00000  Uiso   1.00
C131   C     0.31260   0.54123   0.15903   0.00000  Uiso   1.00
C132   C     0.31263   0.45875   0.15919   0.00000  Uiso   1.00
N133   N     0.16667   0.61907   0.16667   0.00000  Uiso   1.00
N134   N     0.16667   0.38093   0.16667   0.00000  Uiso   1.00
O135   O     0.10559   0.53821   0.16666   0.00000  Uiso   1.00
O136   O     0.22774   0.46179   0.16667   0.00000  Uiso   1.00
O137   O     0.22774   0.53821   0.16667   0.00000  Uiso   1.00
O138   O     0.10559   0.46179   0.16666   0.00000  Uiso   1.00
O139   O     0.16667   0.53821   0.09511   0.00000  Uiso   1.00
O140   O     0.16666   0.46179   0.23822   0.00000  Uiso   1.00
O141   O     0.16666   0.53821   0.23822   0.00000  Uiso   1.00
O142   O     0.16667   0.46179   0.09511   0.00000  Uiso   1.00
Zn143  Zn    0.16667   0.55104   0.16667   0.00000  Uiso   1.00
Zn144  Zn    0.16667   0.44896   0.16667   0.00000  Uiso   1.00
Br145  Br    0.37771   0.40254   0.19900   0.00000  Uiso   1.00
Br146  Br    0.62230   0.59745   0.13430   0.00000  Uiso   1.00
Br147  Br    0.62239   0.40245   0.13467   0.00000  Uiso   1.00
Br148  Br    0.37760   0.59753   0.19871   0.00000  Uiso   1.00
Br149  Br    0.56081   0.38854   0.24738   0.00000  Uiso   1.00
Br150  Br    0.43918   0.61144   0.08597   0.00000  Uiso   1.00
Br151  Br    0.43916   0.38860   0.08598   0.00000  Uiso   1.00
Br152  Br    0.56085   0.61138   0.24733   0.00000  Uiso   1.00
C153   C     0.42021   0.50000   0.17183   0.00000  Uiso   1.00
C154   C     0.35403   0.54125   0.17416   0.00000  Uiso   1.00
C155   C     0.62434   0.49998   0.15661   0.00000  Uiso   1.00
C156   C     0.37567   0.50002   0.17673   0.00000  Uiso   1.00
C157   C     0.52500   0.35724   0.19995   0.00000  Uiso   1.00
C158   C     0.47500   0.64275   0.13338   0.00000  Uiso   1.00
C159   C     0.47499   0.35727   0.13338   0.00000  Uiso   1.00
C160   C     0.52501   0.64273   0.19995   0.00000  Uiso   1.00
C161   C     0.57978   0.50000   0.16151   0.00000  Uiso   1.00
C162   C     0.49987   0.50000   0.07294   0.00000  Uiso   1.00
C163   C     0.50013   0.50000   0.26040   0.00000  Uiso   1.00
C164   C     0.49996   0.50000   0.02181   0.00000  Uiso   1.00
C165   C     0.50004   0.50000   0.31152   0.00000  Uiso   1.00
C166   C     0.35407   0.45876   0.17430   0.00000  Uiso   1.00
C167   C     0.64593   0.54123   0.15903   0.00000  Uiso   1.00
C168   C     0.64596   0.45875   0.15919   0.00000  Uiso   1.00
N169   N     0.50000   0.61907   0.16667   0.00000  Uiso   1.00
N170   N     0.50000   0.38093   0.16667   0.00000  Uiso   1.00
O171   O     0.43892   0.53821   0.16666   0.00000  Uiso   1.00
O172   O     0.56108   0.46179   0.16667   0.00000  Uiso   1.00
O173   O     0.56108   0.53821   0.16667   0.00000  Uiso   1.00
O174   O     0.43892   0.46179   0.16666   0.00000  Uiso   1.00
O175   O     0.50000   0.53821   0.09511   0.00000  Uiso   1.00
O176   O     0.50000   0.46179   0.23822   0.00000  Uiso   1.00
O177   O     0.50000   0.53821   0.23822   0.00000  Uiso   1.00
O178   O     0.50000   0.46179   0.09511   0.00000  Uiso   1.00
Zn179  Zn    0.50000   0.55104   0.16667   0.00000  Uiso   1.00
Zn180  Zn    0.50000   0.44896   0.16667   0.00000  Uiso   1.00
Br181  Br    0.71105   0.40254   0.19900   0.00000  Uiso   1.00
Br182  Br    0.95563   0.59745   0.13430   0.00000  Uiso   1.00
Br183  Br    0.95572   0.40245   0.13467   0.00000  Uiso   1.00
Br184  Br    0.71094   0.59753   0.19871   0.00000  Uiso   1.00
Br185  Br    0.89414   0.38854   0.24738   0.00000  Uiso   1.00
Br186  Br    0.77252   0.61144   0.08597   0.00000  Uiso   1.00
Br187  Br    0.77249   0.38860   0.08598   0.00000  Uiso   1.00
Br188  Br    0.89418   0.61138   0.24733   0.00000  Uiso   1.00
C189   C     0.75355   0.50000   0.17183   0.00000  Uiso   1.00
C190   C     0.68737   0.54125   0.17416   0.00000  Uiso   1.00
C191   C     0.95767   0.49998   0.15661   0.00000  Uiso   1.00
C192   C     0.70900   0.50002   0.17673   0.00000  Uiso   1.00
C193   C     0.85834   0.35724   0.19995   0.00000  Uiso   1.00
C194   C     0.80833   0.64275   0.13338   0.00000  Uiso   1.00
C195   C     0.80833   0.35727   0.13338   0.00000  Uiso   1.00
C196   C     0.85834   0.64273   0.19995   0.00000  Uiso   1.00
C197   C     0.91312   0.50000   0.16151   0.00000  Uiso   1.00
C198   C     0.83321   0.50000   0.07294   0.00000  Uiso   1.00
C199   C     0.83346   0.50000   0.26040   0.00000  Uiso   1.00
C200   C     0.83329   0.50000   0.02181   0.00000  Uiso   1.00
C201   C     0.83337   0.50000   0.31152   0.00000  Uiso   1.00
C202   C     0.68740   0.45876   0.17430   0.00000  Uiso   1.00
C203   C     0.97927   0.54123   0.15903   0.00000  Uiso   1.00
C204   C     0.97930   0.45875   0.15919   0.00000  Uiso   1.00
N205   N     0.83333   0.61907   0.16667   0.00000  Uiso   1.00
N206   N     0.83333   0.38093   0.16667   0.00000  Uiso   1.00
O207   O     0.77226   0.53821   0.16666   0.00000  Uiso   1.00
O208   O     0.89441   0.46179   0.16667   0.00000  Uiso   1.00
O209   O     0.89441   0.53821   0.16667   0.00000  Uiso   1.00
O210   O     0.77226   0.46179   0.16666   0.00000  Uiso   1.00
O211   O     0.83334   0.53821   0.09511   0.00000  Uiso   1.00
O212   O     0.83333   0.46179   0.23822   0.00000  Uiso   1.00
O213   O     0.83333   0.53821   0.23822   0.00000  Uiso   1.00
O214   O     0.83334   0.46179   0.09511   0.00000  Uiso   1.00
Zn215  Zn    0.83333   0.55104   0.16667   0.00000  Uiso   1.00
Zn216  Zn    0.83333   0.44896   0.16667   0.00000  Uiso   1.00
Br217  Br    0.04438   0.73587   0.19900   0.00000  Uiso   1.00
Br218  Br    0.28897   0.93078   0.13430   0.00000  Uiso   1.00
Br219  Br    0.28906   0.73579   0.13467   0.00000  Uiso   1.00
Br220  Br    0.04427   0.93086   0.19871   0.00000  Uiso   1.00
Br221  Br    0.22748   0.72188   0.24738   0.00000  Uiso   1.00
Br222  Br    0.10585   0.94477   0.08597   0.00000  Uiso   1.00
Br223  Br    0.10582   0.72194   0.08598   0.00000  Uiso   1.00
Br224  Br    0.22752   0.94471   0.24733   0.00000  Uiso   1.00
C225   C     0.08688   0.83333   0.17183   0.00000  Uiso   1.00
C226   C     0.02070   0.87458   0.17416   0.00000  Uiso   1.00
C227   C     0.29100   0.83331   0.15661   0.00000  Uiso   1.00
C228   C     0.04233   0.83335   0.17673   0.00000  Uiso   1.00
C229   C     0.19167   0.69057   0.19995   0.00000  Uiso   1.00
C230   C     0.14166   0.97609   0.13338   0.00000  Uiso   1.00
C231   C     0.14166   0.69060   0.13338   0.00000  Uiso   1.00
C232   C     0.19167   0.97606   0.19995   0.00000  Uiso   1.00
C233   C     0.24645   0.83333   0.16151   0.00000  Uiso   1.00
C234   C     0.16654   0.83334   0.07294   0.00000  Uiso   1.00
C235   C     0.16679   0.83333   0.26040   0.00000  Uiso   1.00
C236   C     0.16663   0.83334   0.02181   0.00000  Uiso   1.00
C237   C     0.16671   0.83333   0.31152   0.00000  Uiso   1.00
C238   C     0.02073   0.79209   0.17430   0.00000  Uiso   1.00
C239   C     0.31260   0.87457   0.15903   0.00000  Uiso   1.00
C240   C     0.31263   0.79208   0.15919   0.00000  Uiso   1.00
N241   N     0.16667   0.95240   0.16667   0.00000  Uiso   1.00
N242   N     0.16667   0.71427   0.16667   0.00000  Uiso   1.00
O243   O     0.10559   0.87154   0.16666   0.00000  Uiso   1.00
O244   O     0.22774   0.79513   0.16667   0.00000  Uiso   1.00
O245   O     0.22774   0.87154   0.16667   0.00000  Uiso   1.00
O246   O     0.10559   0.79513   0.16666   0.00000  Uiso   1.00
O247   O     0.16667   0.87155   0.09511   0.00000  Uiso   1.00
O248   O     0.16666   0.79512   0.23822   0.00000  Uiso   1.00
O249   O     0.16666   0.87155   0.23822   0.00000  Uiso   1.00
O250   O     0.16667   0.79512   0.09511   0.00000  Uiso   1.00
Zn251  Zn    0.16667   0.88437   0.16667   0.00000  Uiso   1.00
Zn252  Zn    0.16667   0.78229   0.16667   0.00000  Uiso   1.00
Br253  Br    0.37771   0.73587   0.19900   0.00000  Uiso   1.00
Br254  Br    0.62230   0.93078   0.13430   0.00000  Uiso   1.00
Br255  Br    0.62239   0.73579   0.13467   0.00000  Uiso   1.00
Br256  Br    0.37760   0.93086   0.19871   0.00000  Uiso   1.00
Br257  Br    0.56081   0.72188   0.24738   0.00000  Uiso   1.00
Br258  Br    0.43918   0.94477   0.08597   0.00000  Uiso   1.00
Br259  Br    0.43916   0.72194   0.08598   0.00000  Uiso   1.00
Br260  Br    0.56085   0.94471   0.24733   0.00000  Uiso   1.00
C261   C     0.42021   0.83333   0.17183   0.00000  Uiso   1.00
C262   C     0.35403   0.87458   0.17416   0.00000  Uiso   1.00
C263   C     0.62434   0.83331   0.15661   0.00000  Uiso   1.00
C264   C     0.37567   0.83335   0.17673   0.00000  Uiso   1.00
C265   C     0.52500   0.69057   0.19995   0.00000  Uiso   1.00
C266   C     0.47500   0.97609   0.13338   0.00000  Uiso   1.00
C267   C     0.47499   0.69060   0.13338   0.00000  Uiso   1.00
C268   C     0.52501   0.97606   0.19995   0.00000  Uiso   1.00
C269   C     0.57978   0.83333   0.16151   0.00000  Uiso   1.00
C270   C     0.49987   0.83334   0.07294   0.00000  Uiso   1.00
C271   C     0.50013   0.83333   0.26040   0.00000  Uiso   1.00
C272   C     0.49996   0.83334   0.02181   0.00000  Uiso   1.00
C273   C     0.50004   0.83333   0.31152   0.00000  Uiso   1.00
C274   C     0.35407   0.79209   0.17430   0.00000  Uiso   1.00
C275   C     0.64593   0.87457   0.15903   0.00000  Uiso   1.00
C276   C     0.64596   0.79208   0.15919   0.00000  Uiso   1.00
N277   N     0.50000   0.95240   0.16667   0.00000  Uiso   1.00
N278   N     0.50000   0.71427   0.16667   0.00000  Uiso   1.00
O279   O     0.43892   0.87154   0.16666   0.00000  Uiso   1.00
O280   O     0.56108   0.79513   0.16667   0.00000  Uiso   1.00
O281   O     0.56108   0.87154   0.16667   0.00000  Uiso   1.00
O282   O     0.43892   0.79513   0.16666   0.00000  Uiso   1.00
O283   O     0.50000   0.87155   0.09511   0.00000  Uiso   1.00
O284   O     0.50000   0.79512   0.23822   0.00000  Uiso   1.00
O285   O     0.50000   0.87155   0.23822   0.00000  Uiso   1.00
O286   O     0.50000   0.79512   0.09511   0.00000  Uiso   1.00
Zn287  Zn    0.50000   0.88437   0.16667   0.00000  Uiso   1.00
Zn288  Zn    0.50000   0.78229   0.16667   0.00000  Uiso   1.00
Br289  Br    0.71105   0.73587   0.19900   0.00000  Uiso   1.00
Br290  Br    0.95563   0.93078   0.13430   0.00000  Uiso   1.00
Br291  Br    0.95572   0.73579   0.13467   0.00000  Uiso   1.00
Br292  Br    0.71094   0.93086   0.19871   0.00000  Uiso   1.00
Br293  Br    0.89414   0.72188   0.24738   0.00000  Uiso   1.00
Br294  Br    0.77252   0.94477   0.08597   0.00000  Uiso   1.00
Br295  Br    0.77249   0.72194   0.08598   0.00000  Uiso   1.00
Br296  Br    0.89418   0.94471   0.24733   0.00000  Uiso   1.00
C297   C     0.75355   0.83333   0.17183   0.00000  Uiso   1.00
C298   C     0.68737   0.87458   0.17416   0.00000  Uiso   1.00
C299   C     0.95767   0.83331   0.15661   0.00000  Uiso   1.00
C300   C     0.70900   0.83335   0.17673   0.00000  Uiso   1.00
C301   C     0.85834   0.69057   0.19995   0.00000  Uiso   1.00
C302   C     0.80833   0.97609   0.13338   0.00000  Uiso   1.00
C303   C     0.80833   0.69060   0.13338   0.00000  Uiso   1.00
C304   C     0.85834   0.97606   0.19995   0.00000  Uiso   1.00
C305   C     0.91312   0.83333   0.16151   0.00000  Uiso   1.00
C306   C     0.83321   0.83334   0.07294   0.00000  Uiso   1.00
C307   C     0.83346   0.83333   0.26040   0.00000  Uiso   1.00
C308   C     0.83329   0.83334   0.02181   0.00000  Uiso   1.00
C309   C     0.83337   0.83333   0.31152   0.00000  Uiso   1.00
C310   C     0.68740   0.79209   0.17430   0.00000  Uiso   1.00
C311   C     0.97927   0.87457   0.15903   0.00000  Uiso   1.00
C312   C     0.97930   0.79208   0.15919   0.00000  Uiso   1.00
N313   N     0.83333   0.95240   0.16667   0.00000  Uiso   1.00
N314   N     0.83333   0.71427   0.16667   0.00000  Uiso   1.00
O315   O     0.77226   0.87154   0.16666   0.00000  Uiso   1.00
O316   O     0.89441   0.79513   0.16667   0.00000  Uiso   1.00
O317   O     0.89441   0.87154   0.16667   0.00000  Uiso   1.00
O318   O     0.77226   0.79513   0.16666   0.00000  Uiso   1.00
O319   O     0.83334   0.87155   0.09511   0.00000  Uiso   1.00
O320   O     0.83333   0.79512   0.23822   0.00000  Uiso   1.00
O321   O     0.83333   0.87155   0.23822   0.00000  Uiso   1.00
O322   O     0.83334   0.79512   0.09511   0.00000  Uiso   1.00
Zn323  Zn    0.83333   0.88437   0.16667   0.00000  Uiso   1.00
Zn324  Zn    0.83333   0.78229   0.16667   0.00000  Uiso   1.00
Br325  Br    0.04438   0.06921   0.53234   0.00000  Uiso   1.00
Br326  Br    0.28897   0.26411   0.46763   0.00000  Uiso   1.00
Br327  Br    0.28906   0.06912   0.46800   0.00000  Uiso   1.00
Br328  Br    0.04427   0.26420   0.53204   0.00000  Uiso   1.00
Br329  Br    0.22748   0.05521   0.58072   0.00000  Uiso   1.00
Br330  Br    0.10585   0.27811   0.41930   0.00000  Uiso   1.00
Br331  Br    0.10582   0.05527   0.41932   0.00000  Uiso   1.00
Br332  Br    0.22752   0.27805   0.58067   0.00000  Uiso   1.00
C333   C     0.08688   0.16667   0.50516   0.00000  Uiso   1.00
C334   C     0.02070   0.20791   0.50749   0.00000  Uiso   1.00
C335   C     0.29100   0.16664   0.48994   0.00000  Uiso   1.00
C336   C     0.04233   0.16669   0.51006   0.00000  Uiso   1.00
C337   C     0.19167   0.02391   0.53329   0.00000  Uiso   1.00
C338   C     0.14166   0.30942   0.46672   0.00000  Uiso   1.00
C339   C     0.14166   0.02393   0.46672   0.00000  Uiso   1.00
C340   C     0.19167   0.30939   0.53328   0.00000  Uiso   1.00
C341   C     0.24645   0.16666   0.49484   0.00000  Uiso   1.00
C342   C     0.16654   0.16667   0.40627   0.00000  Uiso   1.00
C343   C     0.16679   0.16666   0.59373   0.00000  Uiso   1.00
C344   C     0.16663   0.16667   0.35515   0.00000  Uiso   1.00
C345   C     0.16671   0.16666   0.64485   0.00000  Uiso   1.00
C346   C     0.02073   0.12543   0.50764   0.00000  Uiso   1.00
C347   C     0.31260   0.20790   0.49236   0.00000  Uiso   1.00
C348   C     0.31263   0.12541   0.49252   0.00000  Uiso   1.00
N349   N     0.16667   0.28573   0.50000   0.00000  Uiso   1.00
N350   N     0.16667   0.04760   0.50000   0.00000  Uiso   1.00
O351   O     0.10559   0.20487   0.50000   0.00000  Uiso   1.00
O352   O     0.22774   0.12846   0.50000   0.00000  Uiso   1.00
O353   O     0.22774   0.20487   0.50000   0.00000  Uiso   1.00
O354   O     0.10559   0.12846   0.50000   0.00000  Uiso   1.00
O355   O     0.16667   0.20488   0.42845   0.00000  Uiso   1.00
O356   O     0.16666   0.12845   0.57155   0.00000  Uiso   1.00
O357   O     0.16666   0.20488   0.57155   0.00000  Uiso   1.00
O358   O     0.16667   0.12845   0.42845   0.00000  Uiso   1.00
Zn359  Zn    0.16667   0.21771   0.50000   0.00000  Uiso   1.00
Zn360  Zn    0.16667   0.11563   0.50000   0.00000  Uiso   1.00
Br361  Br    0.37771   0.06921   0.53234   0.00000  Uiso   1.00
Br362  Br    0.62230   0.26411   0.46763   0.00000  Uiso   1.00
Br363  Br    0.62239   0.06912   0.46800   0.00000  Uiso   1.00
Br364  Br    0.37760   0.26420   0.53204   0.00000  Uiso   1.00
Br365  Br    0.56081   0.05521   0.58072   0.00000  Uiso   1.00
Br366  Br    0.43918   0.27811   0.41930   0.00000  Uiso   1.00
Br367  Br    0.43916   0.05527   0.41932   0.00000  Uiso   1.00
Br368  Br    0.56085   0.27805   0.58067   0.00000  Uiso   1.00
C369   C     0.42021   0.16667   0.50516   0.00000  Uiso   1.00
C370   C     0.35403   0.20791   0.50749   0.00000  Uiso   1.00
C371   C     0.62434   0.16664   0.48994   0.00000  Uiso   1.00
C372   C     0.37567   0.16669   0.51006   0.00000  Uiso   1.00
C373   C     0.52500   0.02391   0.53329   0.00000  Uiso   1.00
C374   C     0.47500   0.30942   0.46672   0.00000  Uiso   1.00
C375   C     0.47499   0.02393   0.46672   0.00000  Uiso   1.00
C376   C     0.52501   0.30939   0.53328   0.00000  Uiso   1.00
C377   C     0.57978   0.16666   0.49484   0.00000  Uiso   1.00
C378   C     0.49987   0.16667   0.40627   0.00000  Uiso   1.00
C379   C     0.50013   0.16666   0.59373   0.00000  Uiso   1.00
C380   C     0.49996   0.16667   0.35515   0.00000  Uiso   1.00
C381   C     0.50004   0.16666   0.64485   0.00000  Uiso   1.00
C382   C     0.35407   0.12543   0.50764   0.00000  Uiso   1.00
C383   C     0.64593   0.20790   0.49236   0.00000  Uiso   1.00
C384   C     0.64596   0.12541   0.49252   0.00000  Uiso   1.00
N385   N     0.50000   0.28573   0.50000   0.00000  Uiso   1.00
N386   N     0.50000   0.04760   0.50000   0.00000  Uiso   1.00
O387   O     0.43892   0.20487   0.50000   0.00000  Uiso   1.00
O388   O     0.56108   0.12846   0.50000   0.00000  Uiso   1.00
O389   O     0.56108   0.20487   0.50000   0.00000  Uiso   1.00
O390   O     0.43892   0.12846   0.50000   0.00000  Uiso   1.00
O391   O     0.50000   0.20488   0.42845   0.00000  Uiso   1.00
O392   O     0.50000   0.12845   0.57155   0.00000  Uiso   1.00
O393   O     0.50000   0.20488   0.57155   0.00000  Uiso   1.00
O394   O     0.50000   0.12845   0.42845   0.00000  Uiso   1.00
Zn395  Zn    0.50000   0.21771   0.50000   0.00000  Uiso   1.00
Zn396  Zn    0.50000   0.11563   0.50000   0.00000  Uiso   1.00
Br397  Br    0.71105   0.06921   0.53234   0.00000  Uiso   1.00
Br398  Br    0.95563   0.26411   0.46763   0.00000  Uiso   1.00
Br399  Br    0.95572   0.06912   0.46800   0.00000  Uiso   1.00
Br400  Br    0.71094   0.26420   0.53204   0.00000  Uiso   1.00
Br401  Br    0.89414   0.05521   0.58072   0.00000  Uiso   1.00
Br402  Br    0.77252   0.27811   0.41930   0.00000  Uiso   1.00
Br403  Br    0.77249   0.05527   0.41932   0.00000  Uiso   1.00
Br404  Br    0.89418   0.27805   0.58067   0.00000  Uiso   1.00
C405   C     0.75355   0.16667   0.50516   0.00000  Uiso   1.00
C406   C     0.68737   0.20791   0.50749   0.00000  Uiso   1.00
C407   C     0.95767   0.16664   0.48994   0.00000  Uiso   1.00
C408   C     0.70900   0.16669   0.51006   0.00000  Uiso   1.00
C409   C     0.85834   0.02391   0.53329   0.00000  Uiso   1.00
C410   C     0.80833   0.30942   0.46672   0.00000  Uiso   1.00
C411   C     0.80833   0.02393   0.46672   0.00000  Uiso   1.00
C412   C     0.85834   0.30939   0.53328   0.00000  Uiso   1.00
C413   C     0.91312   0.16666   0.49484   0.00000  Uiso   1.00
C414   C     0.83321   0.16667   0.40627   0.00000  Uiso   1.00
C415   C     0.83346   0.16666   0.59373   0.00000  Uiso   1.00
C416   C     0.83329   0.16667   0.35515   0.00000  Uiso   1.00
C417   C     0.83337   0.16666   0.64485   0.00000  Uiso   1.00
C418   C     0.68740   0.12543   0.50764   0.00000  Uiso   1.00
C419   C     0.97927   0.20790   0.49236   0.00000  Uiso   1.00
C420   C     0.97930   0.12541   0.49252   0.00000  Uiso   1.00
N421   N     0.83333   0.28573   0.50000   0.00000  Uiso   1.00
N422   N     0.83333   0.04760   0.50000   0.00000  Uiso   1.00
O423   O     0.77226   0.20487   0.50000   0.00000  Uiso   1.00
O424   O     0.89441   0.12846   0.50000   0.00000  Uiso   1.00
O425   O     0.89441   0.20487   0.50000   0.00000  Uiso   1.00
O426   O     0.77226   0.12846   0.50000   0.00000  Uiso   1.00
O427   O     0.83334   0.20488   0.42845   0.00000  Uiso   1.00
O428   O     0.83333   0.12845   0.57155   0.00000  Uiso   1.00
O429   O     0.83333   0.20488   0.57155   0.00000  Uiso   1.00
O430   O     0.83334   0.12845   0.42845   0.00000  Uiso   1.00
Zn431  Zn    0.83333   0.21771   0.50000   0.00000  Uiso   1.00
Zn432  Zn    0.83333   0.11563   0.50000   0.00000  Uiso   1.00
Br433  Br    0.04438   0.40254   0.53234   0.00000  Uiso   1.00
Br434  Br    0.28897   0.59745   0.46763   0.00000  Uiso   1.00
Br435  Br    0.28906   0.40245   0.46800   0.00000  Uiso   1.00
Br436  Br    0.04427   0.59753   0.53204   0.00000  Uiso   1.00
Br437  Br    0.22748   0.38854   0.58072   0.00000  Uiso   1.00
Br438  Br    0.10585   0.61144   0.41930   0.00000  Uiso   1.00
Br439  Br    0.10582   0.38860   0.41932   0.00000  Uiso   1.00
Br440  Br    0.22752   0.61138   0.58067   0.00000  Uiso   1.00
C441   C     0.08688   0.50000   0.50516   0.00000  Uiso   1.00
C442   C     0.02070   0.54125   0.50749   0.00000  Uiso   1.00
C443   C     0.29100   0.49998   0.48994   0.00000  Uiso   1.00
C444   C     0.04233   0.50002   0.51006   0.00000  Uiso   1.00
C445   C     0.19167   0.35724   0.53329   0.00000  Uiso   1.00
C446   C     0.14166   0.64275   0.46672   0.00000  Uiso   1.00
C447   C     0.14166   0.35727   0.46672   0.00000  Uiso   1.00
C448   C     0.19167   0.64273   0.53328   0.00000  Uiso   1.00
C449   C     0.24645   0.50000   0.49484   0.00000  Uiso   1.00
C450   C     0.16654   0.50000   0.40627   0.00000  Uiso   1.00
C451   C     0.16679   0.50000   0.59373   0.00000  Uiso   1.00
C452   C     0.16663   0.50000   0.35515   0.00000  Uiso   1.00
C453   C     0.16671   0.50000   0.64485   0.00000  Uiso   1.00
C454   C     0.02073   0.45876   0.50764   0.00000  Uiso   1.00
C455   C     0.31260   0.54123   0.49236   0.00000  Uiso   1.00
C456   C     0.31263   0.45875   0.49252   0.00000  Uiso   1.00
N457   N     0.16667   0.61907   0.50000   0.00000  Uiso   1.00
N458   N     0.16667   0.38093   0.50000   0.00000  Uiso   1.00
O459   O     0.10559   0.53821   0.50000   0.00000  Uiso   1.00
O460   O     0.22774   0.46179   0.50000   0.00000  Uiso   1.00
O461   O     0.22774   0.53821   0.50000   0.00000  Uiso   1.00
O462   O     0.10559   0.46179   0.50000   0.00000  Uiso   1.00
O463   O     0.16667   0.53821   0.42845   0.00000  Uiso   1.00
O464   O     0.16666   0.46179   0.57155   0.00000  Uiso   1.00
O465   O     0.16666   0.53821   0.57155   0.00000  Uiso   1.00
O466   O     0.16667   0.46179   0.42845   0.00000  Uiso   1.00
Zn467  Zn    0.16667   0.55104   0.50000   0.00000  Uiso   1.00
Zn468  Zn    0.16667   0.44896   0.50000   0.00000  Uiso   1.00
Br469  Br    0.37771   0.40254   0.53234   0.00000  Uiso   1.00
Br470  Br    0.62230   0.59745   0.46763   0.00000  Uiso   1.00
Br471  Br    0.62239   0.40245   0.46800   0.00000  Uiso   1.00
Br472  Br    0.37760   0.59753   0.53204   0.00000  Uiso   1.00
Br473  Br    0.56081   0.38854   0.58072   0.00000  Uiso   1.00
Br474  Br    0.43918   0.61144   0.41930   0.00000  Uiso   1.00
Br475  Br    0.43916   0.38860   0.41932   0.00000  Uiso   1.00
Br476  Br    0.56085   0.61138   0.58067   0.00000  Uiso   1.00
C477   C     0.42021   0.50000   0.50516   0.00000  Uiso   1.00
C478   C     0.35403   0.54125   0.50749   0.00000  Uiso   1.00
C479   C     0.62434   0.49998   0.48994   0.00000  Uiso   1.00
C480   C     0.37567   0.50002   0.51006   0.00000  Uiso   1.00
C481   C     0.52500   0.35724   0.53329   0.00000  Uiso   1.00
C482   C     0.47500   0.64275   0.46672   0.00000  Uiso   1.00
C483   C     0.47499   0.35727   0.46672   0.00000  Uiso   1.00
C484   C     0.52501   0.64273   0.53328   0.00000  Uiso   1.00
C485   C     0.57978   0.50000   0.49484   0.00000  Uiso   1.00
C486   C     0.49987   0.50000   0.40627   0.00000  Uiso   1.00
C487   C     0.50013   0.50000   0.59373   0.00000  Uiso   1.00
C488   C     0.49996   0.50000   0.35515   0.00000  Uiso   1.00
C489   C     0.50004   0.50000   0.64485   0.00000  Uiso   1.00
C490   C     0.35407   0.45876   0.50764   0.00000  Uiso   1.00
C491   C     0.64593   0.54123   0.49236   0.00000  Uiso   1.00
C492   C     0.64596   0.45875   0.49252   0.00000  Uiso   1.00
N493   N     0.50000   0.61907   0.50000   0.00000  Uiso   1.00
N494   N     0.50000   0.38093   0.50000   0.00000  Uiso   1.00
O495   O     0.43892   0.53821   0.50000   0.00000  Uiso   1.00
O496   O     0.56108   0.46179   0.50000   0.00000  Uiso   1.00
O497   O     0.56108   0.53821   0.50000   0.00000  Uiso   1.00
O498   O     0.43892   0.46179   0.50000   0.00000  Uiso   1.00
O499   O     0.50000   0.53821   0.42845   0.00000  Uiso   1.00
O500   O     0.50000   0.46179   0.57155   0.00000  Uiso   1.00
O501   O     0.50000   0.53821   0.57155   0.00000  Uiso   1.00
O502   O     0.50000   0.46179   0.42845   0.00000  Uiso   1.00
Zn503  Zn    0.50000   0.55104   0.50000   0.00000  Uiso   1.00
Zn504  Zn    0.50000   0.44896   0.50000   0.00000  Uiso   1.00
Br505  Br    0.71105   0.40254   0.53234   0.00000  Uiso   1.00
Br506  Br    0.95563   0.59745   0.46763   0.00000  Uiso   1.00
Br507  Br    0.95572   0.40245   0.46800   0.00000  Uiso   1.00
Br508  Br    0.71094   0.59753   0.53204   0.00000  Uiso   1.00
Br509  Br    0.89414   0.38854   0.58072   0.00000  Uiso   1.00
Br510  Br    0.77252   0.61144   0.41930   0.00000  Uiso   1.00
Br511  Br    0.77249   0.38860   0.41932   0.00000  Uiso   1.00
Br512  Br    0.89418   0.61138   0.58067   0.00000  Uiso   1.00
C513   C     0.75355   0.50000   0.50516   0.00000  Uiso   1.00
C514   C     0.68737   0.54125   0.50749   0.00000  Uiso   1.00
C515   C     0.95767   0.49998   0.48994   0.00000  Uiso   1.00
C516   C     0.70900   0.50002   0.51006   0.00000  Uiso   1.00
C517   C     0.85834   0.35724   0.53329   0.00000  Uiso   1.00
C518   C     0.80833   0.64275   0.46672   0.00000  Uiso   1.00
C519   C     0.80833   0.35727   0.46672   0.00000  Uiso   1.00
C520   C     0.85834   0.64273   0.53328   0.00000  Uiso   1.00
C521   C     0.91312   0.50000   0.49484   0.00000  Uiso   1.00
C522   C     0.83321   0.50000   0.40627   0.00000  Uiso   1.00
C523   C     0.83346   0.50000   0.59373   0.00000  Uiso   1.00
C524   C     0.83329   0.50000   0.35515   0.00000  Uiso   1.00
C525   C     0.83337   0.50000   0.64485   0.00000  Uiso   1.00
C526   C     0.68740   0.45876   0.50764   0.00000  Uiso   1.00
C527   C     0.97927   0.54123   0.49236   0.00000  Uiso   1.00
C528   C     0.97930   0.45875   0.49252   0.00000  Uiso   1.00
N529   N     0.83333   0.61907   0.50000   0.00000  Uiso   1.00
N530   N     0.83333   0.38093   0.50000   0.00000  Uiso   1.00
O531   O     0.77226   0.53821   0.50000   0.00000  Uiso   1.00
O532   O     0.89441   0.46179   0.50000   0.00000  Uiso   1.00
O533   O     0.89441   0.53821   0.50000   0.00000  Uiso   1.00
O534   O     0.77226   0.46179   0.50000   0.00000  Uiso   1.00
O535   O     0.83334   0.53821   0.42845   0.00000  Uiso   1.00
O536   O     0.83333   0.46179   0.57155   0.00000  Uiso   1.00
O537   O     0.83333   0.53821   0.57155   0.00000  Uiso   1.00
O538   O     0.83334   0.46179   0.42845   0.00000  Uiso   1.00
Zn539  Zn    0.83333   0.55104   0.50000   0.00000  Uiso   1.00
Zn540  Zn    0.83333   0.44896   0.50000   0.00000  Uiso   1.00
Br541  Br    0.04438   0.73587   0.53234   0.00000  Uiso   1.00
Br542  Br    0.28897   0.93078   0.46763   0.00000  Uiso   1.00
Br543  Br    0.28906   0.73579   0.46800   0.00000  Uiso   1.00
Br544  Br    0.04427   0.93086   0.53204   0.00000  Uiso   1.00
Br545  Br    0.22748   0.72188   0.58072   0.00000  Uiso   1.00
Br546  Br    0.10585   0.94477   0.41930   0.00000  Uiso   1.00
Br547  Br    0.10582   0.72194   0.41932   0.00000  Uiso   1.00
Br548  Br    0.22752   0.94471   0.58067   0.00000  Uiso   1.00
C549   C     0.08688   0.83333   0.50516   0.00000  Uiso   1.00
C550   C     0.02070   0.87458   0.50749   0.00000  Uiso   1.00
C551   C     0.29100   0.83331   0.48994   0.00000  Uiso   1.00
C552   C     0.04233   0.83335   0.51006   0.00000  Uiso   1.00
C553   C     0.19167   0.69057   0.53329   0.00000  Uiso   1.00
C554   C     0.14166   0.97609   0.46672   0.00000  Uiso   1.00
C555   C     0.14166   0.69060   0.46672   0.00000  Uiso   1.00
C556   C     0.19167   0.97606   0.53328   0.00000  Uiso   1.00
C557   C     0.24645   0.83333   0.49484   0.00000  Uiso   1.00
C558   C     0.16654   0.83334   0.40627   0.00000  Uiso   1.00
C559   C     0.16679   0.83333   0.59373   0.00000  Uiso   1.00
C560   C     0.16663   0.83334   0.35515   0.00000  Uiso   1.00
C561   C     0.16671   0.83333   0.64485   0.00000  Uiso   1.00
C562   C     0.02073   0.79209   0.50764   0.00000  Uiso   1.00
C563   C     0.31260   0.87457   0.49236   0.00000  Uiso   1.00
C564   C     0.31263   0.79208   0.49252   0.00000  Uiso   1.00
N565   N     0.16667   0.95240   0.50000   0.00000  Uiso   1.00
N566   N     0.16667   0.71427   0.50000   0.00000  Uiso   1.00
O567   O     0.10559   0.87154   0.50000   0.00000  Uiso   1.00
O568   O     0.22774   0.79513   0.50000   0.00000  Uiso   1.00
O569   O     0.22774   0.87154   0.50000   0.00000  Uiso   1.00
O570   O     0.10559   0.79513   0.50000   0.00000  Uiso   1.00
O571   O     0.16667   0.87155   0.42845   0.00000  Uiso   1.00
O572   O     0.16666   0.79512   0.57155   0.00000  Uiso   1.00
O573   O     0.16666   0.87155   0.57155   0.00000  Uiso   1.00
O574   O     0.16667   0.79512   0.42845   0.00000  Uiso   1.00
Zn575  Zn    0.16667   0.88437   0.50000   0.00000  Uiso   1.00
Zn576  Zn    0.16667   0.78229   0.50000   0.00000  Uiso   1.00
Br577  Br    0.37771   0.73587   0.53234   0.00000  Uiso   1.00
Br578  Br    0.62230   0.93078   0.46763   0.00000  Uiso   1.00
Br579  Br    0.62239   0.73579   0.46800   0.00000  Uiso   1.00
Br580  Br    0.37760   0.93086   0.53204   0.00000  Uiso   1.00
Br581  Br    0.56081   0.72188   0.58072   0.00000  Uiso   1.00
Br582  Br    0.43918   0.94477   0.41930   0.00000  Uiso   1.00
Br583  Br    0.43916   0.72194   0.41932   0.00000  Uiso   1.00
Br584  Br    0.56085   0.94471   0.58067   0.00000  Uiso   1.00
C585   C     0.42021   0.83333   0.50516   0.00000  Uiso   1.00
C586   C     0.35403   0.87458   0.50749   0.00000  Uiso   1.00
C587   C     0.62434   0.83331   0.48994   0.00000  Uiso   1.00
C588   C     0.37567   0.83335   0.51006   0.00000  Uiso   1.00
C589   C     0.52500   0.69057   0.53329   0.00000  Uiso   1.00
C590   C     0.47500   0.97609   0.46672   0.00000  Uiso   1.00
C591   C     0.47499   0.69060   0.46672   0.00000  Uiso   1.00
C592   C     0.52501   0.97606   0.53328   0.00000  Uiso   1.00
C593   C     0.57978   0.83333   0.49484   0.00000  Uiso   1.00
C594   C     0.49987   0.83334   0.40627   0.00000  Uiso   1.00
C595   C     0.50013   0.83333   0.59373   0.00000  Uiso   1.00
C596   C     0.49996   0.83334   0.35515   0.00000  Uiso   1.00
C597   C     0.50004   0.83333   0.64485   0.00000  Uiso   1.00
C598   C     0.35407   0.79209   0.50764   0.00000  Uiso   1.00
C599   C     0.64593   0.87457   0.49236   0.00000  Uiso   1.00
C600   C     0.64596   0.79208   0.49252   0.00000  Uiso   1.00
N601   N     0.50000   0.95240   0.50000   0.00000  Uiso   1.00
N602   N     0.50000   0.71427   0.50000   0.00000  Uiso   1.00
O603   O     0.43892   0.87154   0.50000   0.00000  Uiso   1.00
O604   O     0.56108   0.79513   0.50000   0.00000  Uiso   1.00
O605   O     0.56108   0.87154   0.50000   0.00000  Uiso   1.00
O606   O     0.43892   0.79513   0.50000   0.00000  Uiso   1.00
O607   O     0.50000   0.87155   0.42845   0.00000  Uiso   1.00
O608   O     0.50000   0.79512   0.57155   0.00000  Uiso   1.00
O609   O     0.50000   0.87155   0.57155   0.00000  Uiso   1.00
O610   O     0.50000   0.79512   0.42845   0.00000  Uiso   1.00
Zn611  Zn    0.50000   0.88437   0.50000   0.00000  Uiso   1.00
Zn612  Zn    0.50000   0.78229   0.50000   0.00000  Uiso   1.00
Br613  Br    0.71105   0.73587   0.53234   0.00000  Uiso   1.00
Br614  Br    0.95563   0.93078   0.46763   0.00000  Uiso   1.00
Br615  Br    0.95572   0.73579   0.46800   0.00000  Uiso   1.00
Br616  Br    0.71094   0.93086   0.53204   0.00000  Uiso   1.00
Br617  Br    0.89414   0.72188   0.58072   0.00000  Uiso   1.00
Br618  Br    0.77252   0.94477   0.41930   0.00000  Uiso   1.00
Br619  Br    0.77249   0.72194   0.41932   0.00000  Uiso   1.00
Br620  Br    0.89418   0.94471   0.58067   0.00000  Uiso   1.00
C621   C     0.75355   0.83333   0.50516   0.00000  Uiso   1.00
C622   C     0.68737   0.87458   0.50749   0.00000  Uiso   1.00
C623   C     0.95767   0.83331   0.48994   0.00000  Uiso   1.00
C624   C     0.70900   0.83335   0.51006   0.00000  Uiso   1.00
C625   C     0.85834   0.69057   0.53329   0.00000  Uiso   1.00
C626   C     0.80833   0.97609   0.46672   0.00000  Uiso   1.00
C627   C     0.80833   0.69060   0.46672   0.00000  Uiso   1.00
C628   C     0.85834   0.97606   0.53328   0.00000  Uiso   1.00
C629   C     0.91312   0.83333   0.49484   0.00000  Uiso   1.00
C630   C     0.83321   0.83334   0.40627   0.00000  Uiso   1.00
C631   C     0.83346   0.83333   0.59373   0.00000  Uiso   1.00
C632   C     0.83329   0.83334   0.35515   0.00000  Uiso   1.00
C633   C     0.83337   0.83333   0.64485   0.00000  Uiso   1.00
C634   C     0.68740   0.79209   0.50764   0.00000  Uiso   1.00
C635   C     0.97927   0.87457   0.49236   0.00000  Uiso   1.00
C636   C     0.97930   0.79208   0.49252   0.00000  Uiso   1.00
N637   N     0.83333   0.95240   0.50000   0.00000  Uiso   1.00
N638   N     0.83333   0.71427   0.50000   0.00000  Uiso   1.00
O639   O     0.77226   0.87154   0.50000   0.00000  Uiso   1.00
O640   O     0.89441   0.79513   0.50000   0.00000  Uiso   1.00
O641   O     0.89441   0.87154   0.50000   0.00000  Uiso   1.00
O642   O     0.77226   0.79513   0.50000   0.00000  Uiso   1.00
O643   O     0.83334   0.87155   0.42845   0.00000  Uiso   1.00
O644   O     0.83333   0.79512   0.57155   0.00000  Uiso   1.00
O645   O     0.83333   0.87155   0.57155   0.00000  Uiso   1.00
O646   O     0.83334   0.79512   0.42845   0.00000  Uiso   1.00
Zn647  Zn    0.83333   0.88437   0.50000   0.00000  Uiso   1.00
Zn648  Zn    0.83333   0.78229   0.50000   0.00000  Uiso   1.00
Br649  Br    0.04438   0.06921   0.86567   0.00000  Uiso   1.00
Br650  Br    0.28897   0.26411   0.80097   0.00000  Uiso   1.00
Br651  Br    0.28906   0.06912   0.80134   0.00000  Uiso   1.00
Br652  Br    0.04427   0.26420   0.86537   0.00000  Uiso   1.00
Br653  Br    0.22748   0.05521   0.91405   0.00000  Uiso   1.00
Br654  Br    0.10585   0.27811   0.75264   0.00000  Uiso   1.00
Br655  Br    0.10582   0.05527   0.75265   0.00000  Uiso   1.00
Br656  Br    0.22752   0.27805   0.91400   0.00000  Uiso   1.00
C657   C     0.08688   0.16667   0.83849   0.00000  Uiso   1.00
C658   C     0.02070   0.20791   0.84082   0.00000  Uiso   1.00
C659   C     0.29100   0.16664   0.82327   0.00000  Uiso   1.00
C660   C     0.04233   0.16669   0.84340   0.00000  Uiso   1.00
C661   C     0.19167   0.02391   0.86662   0.00000  Uiso   1.00
C662   C     0.14166   0.30942   0.80005   0.00000  Uiso   1.00
C663   C     0.14166   0.02393   0.80005   0.00000  Uiso   1.00
C664   C     0.19167   0.30939   0.86661   0.00000  Uiso   1.00
C665   C     0.24645   0.16666   0.82818   0.00000  Uiso   1.00
C666   C     0.16654   0.16667   0.73960   0.00000  Uiso   1.00
C667   C     0.16679   0.16666   0.92707   0.00000  Uiso   1.00
C668   C     0.16663   0.16667   0.68848   0.00000  Uiso   1.00
C669   C     0.16671   0.16666   0.97819   0.00000  Uiso   1.00
C670   C     0.02073   0.12543   0.84097   0.00000  Uiso   1.00
C671   C     0.31260   0.20790   0.82570   0.00000  Uiso   1.00
C672   C     0.31263   0.12541   0.82585   0.00000  Uiso   1.00
N673   N     0.16667   0.28573   0.83333   0.00000  Uiso   1.00
N674   N     0.16667   0.04760   0.83333   0.00000  Uiso   1.00
O675   O     0.10559   0.20487   0.83333   0.00000  Uiso   1.00
O676   O     0.22774   0.12846   0.83334   0.00000  Uiso   1.00
O677   O     0.22774   0.20487   0.83334   0.00000  Uiso   1.00
O678   O     0.10559   0.12846   0.83333   0.00000  Uiso   1.00
O679   O     0.16667   0.20488   0.76178   0.00000  Uiso   1.00
O680   O     0.16666   0.12845   0.90489   0.00000  Uiso   1.00
O681   O     0.16666   0.20488   0.90489   0.00000  Uiso   1.00
O682   O     0.16667   0.12845   0.76178   0.00000  Uiso   1.00
Zn683  Zn    0.16667   0.21771   0.83333   0.00000  Uiso   1.00
Zn684  Zn    0.16667   0.11563   0.83333   0.00000  Uiso   1.00
Br685  Br    0.37771   0.06921   0.86567   0.00000  Uiso   1.00
Br686  Br    0.62230   0.26411   0.80097   0.00000  Uiso   1.00
Br687  Br    0.62239   0.06912   0.80134   0.00000  Uiso   1.00
Br688  Br    0.37760   0.26420   0.86537   0.00000  Uiso   1.00
Br689  Br    0.56081   0.05521   0.91405   0.00000  Uiso   1.00
Br690  Br    0.43918   0.27811   0.75264   0.00000  Uiso   1.00
Br691  Br    0.43916   0.05527   0.75265   0.00000  Uiso   1.00
Br692  Br    0.56085   0.27805   0.91400   0.00000  Uiso   1.00
C693   C     0.42021   0.16667   0.83849   0.00000  Uiso   1.00
C694   C     0.35403   0.20791   0.84082   0.00000  Uiso   1.00
C695   C     0.62434   0.16664   0.82327   0.00000  Uiso   1.00
C696   C     0.37567   0.16669   0.84340   0.00000  Uiso   1.00
C697   C     0.52500   0.02391   0.86662   0.00000  Uiso   1.00
C698   C     0.47500   0.30942   0.80005   0.00000  Uiso   1.00
C699   C     0.47499   0.02393   0.80005   0.00000  Uiso   1.00
C700   C     0.52501   0.30939   0.86661   0.00000  Uiso   1.00
C701   C     0.57978   0.16666   0.82818   0.00000  Uiso   1.00
C702   C     0.49987   0.16667   0.73960   0.00000  Uiso   1.00
C703   C     0.50013   0.16666   0.92707   0.00000  Uiso   1.00
C704   C     0.49996   0.16667   0.68848   0.00000  Uiso   1.00
C705   C     0.50004   0.16666   0.97819   0.00000  Uiso   1.00
C706   C     0.35407   0.12543   0.84097   0.00000  Uiso   1.00
C707   C     0.64593   0.20790   0.82570   0.00000  Uiso   1.00
C708   C     0.64596   0.12541   0.82585   0.00000  Uiso   1.00
N709   N     0.50000   0.28573   0.83333   0.00000  Uiso   1.00
N710   N     0.50000   0.04760   0.83333   0.00000  Uiso   1.00
O711   O     0.43892   0.20487   0.83333   0.00000  Uiso   1.00
O712   O     0.56108   0.12846   0.83334   0.00000  Uiso   1.00
O713   O     0.56108   0.20487   0.83334   0.00000  Uiso   1.00
O714   O     0.43892   0.12846   0.83333   0.00000  Uiso   1.00
O715   O     0.50000   0.20488   0.76178   0.00000  Uiso   1.00
O716   O     0.50000   0.12845   0.90489   0.00000  Uiso   1.00
O717   O     0.50000   0.20488   0.90489   0.00000  Uiso   1.00
O718   O     0.50000   0.12845   0.76178   0.00000  Uiso   1.00
Zn719  Zn    0.50000   0.21771   0.83333   0.00000  Uiso   1.00
Zn720  Zn    0.50000   0.11563   0.83333   0.00000  Uiso   1.00
Br721  Br    0.71105   0.06921   0.86567   0.00000  Uiso   1.00
Br722  Br    0.95563   0.26411   0.80097   0.00000  Uiso   1.00
Br723  Br    0.95572   0.06912   0.80134   0.00000  Uiso   1.00
Br724  Br    0.71094   0.26420   0.86537   0.00000  Uiso   1.00
Br725  Br    0.89414   0.05521   0.91405   0.00000  Uiso   1.00
Br726  Br    0.77252   0.27811   0.75264   0.00000  Uiso   1.00
Br727  Br    0.77249   0.05527   0.75265   0.00000  Uiso   1.00
Br728  Br    0.89418   0.27805   0.91400   0.00000  Uiso   1.00
C729   C     0.75355   0.16667   0.83849   0.00000  Uiso   1.00
C730   C     0.68737   0.20791   0.84082   0.00000  Uiso   1.00
C731   C     0.95767   0.16664   0.82327   0.00000  Uiso   1.00
C732   C     0.70900   0.16669   0.84340   0.00000  Uiso   1.00
C733   C     0.85834   0.02391   0.86662   0.00000  Uiso   1.00
C734   C     0.80833   0.30942   0.80005   0.00000  Uiso   1.00
C735   C     0.80833   0.02393   0.80005   0.00000  Uiso   1.00
C736   C     0.85834   0.30939   0.86661   0.00000  Uiso   1.00
C737   C     0.91312   0.16666   0.82818   0.00000  Uiso   1.00
C738   C     0.83321   0.16667   0.73960   0.00000  Uiso   1.00
C739   C     0.83346   0.16666   0.92707   0.00000  Uiso   1.00
C740   C     0.83329   0.16667   0.68848   0.00000  Uiso   1.00
C741   C     0.83337   0.16666   0.97819   0.00000  Uiso   1.00
C742   C     0.68740   0.12543   0.84097   0.00000  Uiso   1.00
C743   C     0.97927   0.20790   0.82570   0.00000  Uiso   1.00
C744   C     0.97930   0.12541   0.82585   0.00000  Uiso   1.00
N745   N     0.83333   0.28573   0.83333   0.00000  Uiso   1.00
N746   N     0.83333   0.04760   0.83333   0.00000  Uiso   1.00
O747   O     0.77226   0.20487   0.83333   0.00000  Uiso   1.00
O748   O     0.89441   0.12846   0.83334   0.00000  Uiso   1.00
O749   O     0.89441   0.20487   0.83334   0.00000  Uiso   1.00
O750   O     0.77226   0.12846   0.83333   0.00000  Uiso   1.00
O751   O     0.83334   0.20488   0.76178   0.00000  Uiso   1.00
O752   O     0.83333   0.12845   0.90489   0.00000  Uiso   1.00
O753   O     0.83333   0.20488   0.90489   0.00000  Uiso   1.00
O754   O     0.83334   0.12845   0.76178   0.00000  Uiso   1.00
Zn755  Zn    0.83333   0.21771   0.83333   0.00000  Uiso   1.00
Zn756  Zn    0.83333   0.11563   0.83333   0.00000  Uiso   1.00
Br757  Br    0.04438   0.40254   0.86567   0.00000  Uiso   1.00
Br758  Br    0.28897   0.59745   0.80097   0.00000  Uiso   1.00
Br759  Br    0.28906   0.40245   0.80134   0.00000  Uiso   1.00
Br760  Br    0.04427   0.59753   0.86537   0.00000  Uiso   1.00
Br761  Br    0.22748   0.38854   0.91405   0.00000  Uiso   1.00
Br762  Br    0.10585   0.61144   0.75264   0.00000  Uiso   1.00
Br763  Br    0.10582   0.38860   0.75265   0.00000  Uiso   1.00
Br764  Br    0.22752   0.61138   0.91400   0.00000  Uiso   1.00
C765   C     0.08688   0.50000   0.83849   0.00000  Uiso   1.00
C766   C     0.02070   0.54125   0.84082   0.00000  Uiso   1.00
C767   C     0.29100   0.49998   0.82327   0.00000  Uiso   1.00
C768   C     0.04233   0.50002   0.84340   0.00000  Uiso   1.00
C769   C     0.19167   0.35724   0.86662   0.00000  Uiso   1.00
C770   C     0.14166   0.64275   0.80005   0.00000  Uiso   1.00
C771   C     0.14166   0.35727   0.80005   0.00000  Uiso   1.00
C772   C     0.19167   0.64273   0.86661   0.00000  Uiso   1.00
C773   C     0.24645   0.50000   0.82818   0.00000  Uiso   1.00
C774   C     0.16654   0.50000   0.73960   0.00000  Uiso   1.00
C775   C     0.16679   0.50000   0.92707   0.00000  Uiso   1.00
C776   C     0.16663   0.50000   0.68848   0.00000  Uiso   1.00
C777   C     0.16671   0.50000   0.97819   0.00000  Uiso   1.00
C778   C     0.02073   0.45876   0.84097   0.00000  Uiso   1.00
C779   C     0.31260   0.54123   0.82570   0.00000  Uiso   1.00
C780   C     0.31263   0.45875   0.82585   0.00000  Uiso   1.00
N781   N     0.16667   0.61907   0.83333   0.00000  Uiso   1.00
N782   N     0.16667   0.38093   0.83333   0.00000  Uiso   1.00
O783   O     0.10559   0.53821   0.83333   0.00000  Uiso   1.00
O784   O     0.22774   0.46179   0.83334   0.00000  Uiso   1.00
O785   O     0.22774   0.53821   0.83334   0.00000  Uiso   1.00
O786   O     0.10559   0.46179   0.83333   0.00000  Uiso   1.00
O787   O     0.16667   0.53821   0.76178   0.00000  Uiso   1.00
O788   O     0.16666   0.46179   0.90489   0.00000  Uiso   1.00
O789   O     0.16666   0.53821   0.90489   0.00000  Uiso   1.00
O790   O     0.16667   0.46179   0.76178   0.00000  Uiso   1.00
Zn791  Zn    0.16667   0.55104   0.83333   0.00000  Uiso   1.00
Zn792  Zn    0.16667   0.44896   0.83333   0.00000  Uiso   1.00
Br793  Br    0.37771   0.40254   0.86567   0.00000  Uiso   1.00
Br794  Br    0.62230   0.59745   0.80097   0.00000  Uiso   1.00
Br795  Br    0.62239   0.40245   0.80134   0.00000  Uiso   1.00
Br796  Br    0.37760   0.59753   0.86537   0.00000  Uiso   1.00
Br797  Br    0.56081   0.38854   0.91405   0.00000  Uiso   1.00
Br798  Br    0.43918   0.61144   0.75264   0.00000  Uiso   1.00
Br799  Br    0.43916   0.38860   0.75265   0.00000  Uiso   1.00
Br800  Br    0.56085   0.61138   0.91400   0.00000  Uiso   1.00
C801   C     0.42021   0.50000   0.83849   0.00000  Uiso   1.00
C802   C     0.35403   0.54125   0.84082   0.00000  Uiso   1.00
C803   C     0.62434   0.49998   0.82327   0.00000  Uiso   1.00
C804   C     0.37567   0.50002   0.84340   0.00000  Uiso   1.00
C805   C     0.52500   0.35724   0.86662   0.00000  Uiso   1.00
C806   C     0.47500   0.64275   0.80005   0.00000  Uiso   1.00
C807   C     0.47499   0.35727   0.80005   0.00000  Uiso   1.00
C808   C     0.52501   0.64273   0.86661   0.00000  Uiso   1.00
C809   C     0.57978   0.50000   0.82818   0.00000  Uiso   1.00
C810   C     0.49987   0.50000   0.73960   0.00000  Uiso   1.00
C811   C     0.50013   0.50000   0.92707   0.00000  Uiso   1.00
C812   C     0.49996   0.50000   0.68848   0.00000  Uiso   1.00
C813   C     0.50004   0.50000   0.97819   0.00000  Uiso   1.00
C814   C     0.35407   0.45876   0.84097   0.00000  Uiso   1.00
C815   C     0.64593   0.54123   0.82570   0.00000  Uiso   1.00
C816   C     0.64596   0.45875   0.82585   0.00000  Uiso   1.00
N817   N     0.50000   0.61907   0.83333   0.00000  Uiso   1.00
N818   N     0.50000   0.38093   0.83333   0.00000  Uiso   1.00
O819   O     0.43892   0.53821   0.83333   0.00000  Uiso   1.00
O820   O     0.56108   0.46179   0.83334   0.00000  Uiso   1.00
O821   O     0.56108   0.53821   0.83334   0.00000  Uiso   1.00
O822   O     0.43892   0.46179   0.83333   0.00000  Uiso   1.00
O823   O     0.50000   0.53821   0.76178   0.00000  Uiso   1.00
O824   O     0.50000   0.46179   0.90489   0.00000  Uiso   1.00
O825   O     0.50000   0.53821   0.90489   0.00000  Uiso   1.00
O826   O     0.50000   0.46179   0.76178   0.00000  Uiso   1.00
Zn827  Zn    0.50000   0.55104   0.83333   0.00000  Uiso   1.00
Zn828  Zn    0.50000   0.44896   0.83333   0.00000  Uiso   1.00
Br829  Br    0.71105   0.40254   0.86567   0.00000  Uiso   1.00
Br830  Br    0.95563   0.59745   0.80097   0.00000  Uiso   1.00
Br831  Br    0.95572   0.40245   0.80134   0.00000  Uiso   1.00
Br832  Br    0.71094   0.59753   0.86537   0.00000  Uiso   1.00
Br833  Br    0.89414   0.38854   0.91405   0.00000  Uiso   1.00
Br834  Br    0.77252   0.61144   0.75264   0.00000  Uiso   1.00
Br835  Br    0.77249   0.38860   0.75265   0.00000  Uiso   1.00
Br836  Br    0.89418   0.61138   0.91400   0.00000  Uiso   1.00
C837   C     0.75355   0.50000   0.83849   0.00000  Uiso   1.00
C838   C     0.68737   0.54125   0.84082   0.00000  Uiso   1.00
C839   C     0.95767   0.49998   0.82327   0.00000  Uiso   1.00
C840   C     0.70900   0.50002   0.84340   0.00000  Uiso   1.00
C841   C     0.85834   0.35724   0.86662   0.00000  Uiso   1.00
C842   C     0.80833   0.64275   0.80005   0.00000  Uiso   1.00
C843   C     0.80833   0.35727   0.80005   0.00000  Uiso   1.00
C844   C     0.85834   0.64273   0.86661   0.00000  Uiso   1.00
C845   C     0.91312   0.50000   0.82818   0.00000  Uiso   1.00
C846   C     0.83321   0.50000   0.73960   0.00000  Uiso   1.00
C847   C     0.83346   0.50000   0.92707   0.00000  Uiso   1.00
C848   C     0.83329   0.50000   0.68848   0.00000  Uiso   1.00
C849   C     0.83337   0.50000   0.97819   0.00000  Uiso   1.00
C850   C     0.68740   0.45876   0.84097   0.00000  Uiso   1.00
C851   C     0.97927   0.54123   0.82570   0.00000  Uiso   1.00
C852   C     0.97930   0.45875   0.82585   0.00000  Uiso   1.00
N853   N     0.83333   0.61907   0.83333   0.00000  Uiso   1.00
N854   N     0.83333   0.38093   0.83333   0.00000  Uiso   1.00
O855   O     0.77226   0.53821   0.83333   0.00000  Uiso   1.00
O856   O     0.89441   0.46179   0.83334   0.00000  Uiso   1.00
O857   O     0.89441   0.53821   0.83334   0.00000  Uiso   1.00
O858   O     0.77226   0.46179   0.83333   0.00000  Uiso   1.00
O859   O     0.83334   0.53821   0.76178   0.00000  Uiso   1.00
O860   O     0.83333   0.46179   0.90489   0.00000  Uiso   1.00
O861   O     0.83333   0.53821   0.90489   0.00000  Uiso   1.00
O862   O     0.83334   0.46179   0.76178   0.00000  Uiso   1.00
Zn863  Zn    0.83333   0.55104   0.83333   0.00000  Uiso   1.00
Zn864  Zn    0.83333   0.44896   0.83333   0.00000  Uiso   1.00
Br865  Br    0.04438   0.73587   0.86567   0.00000  Uiso   1.00
Br866  Br    0.28897   0.93078   0.80097   0.00000  Uiso   1.00
Br867  Br    0.28906   0.73579   0.80134   0.00000  Uiso   1.00
Br868  Br    0.04427   0.93086   0.86537   0.00000  Uiso   1.00
Br869  Br    0.22748   0.72188   0.91405   0.00000  Uiso   1.00
Br870  Br    0.10585   0.94477   0.75264   0.00000  Uiso   1.00
Br871  Br    0.10582   0.72194   0.75265   0.00000  Uiso   1.00
Br872  Br    0.22752   0.94471   0.91400   0.00000  Uiso   1.00
C873   C     0.08688   0.83333   0.83849   0.00000  Uiso   1.00
C874   C     0.02070   0.87458   0.84082   0.00000  Uiso   1.00
C875   C     0.29100   0.83331   0.82327   0.00000  Uiso   1.00
C876   C     0.04233   0.83335   0.84340   0.00000  Uiso   1.00
C877   C     0.19167   0.69057   0.86662   0.00000  Uiso   1.00
C878   C     0.14166   0.97609   0.80005   0.00000  Uiso   1.00
C879   C     0.14166   0.69060   0.80005   0.00000  Uiso   1.00
C880   C     0.19167   0.97606   0.86661   0.00000  Uiso   1.00
C881   C     0.24645   0.83333   0.82818   0.00000  Uiso   1.00
C882   C     0.16654   0.83334   0.73960   0.00000  Uiso   1.00
C883   C     0.16679   0.83333   0.92707   0.00000  Uiso   1.00
C884   C     0.16663   0.83334   0.68848   0.00000  Uiso   1.00
C885   C     0.16671   0.83333   0.97819   0.00000  Uiso   1.00
C886   C     0.02073   0.79209   0.84097   0.00000  Uiso   1.00
C887   C     0.31260   0.87457   0.82570   0.00000  Uiso   1.00
C888   C     0.31263   0.79208   0.82585   0.00000  Uiso   1.00
N889   N     0.16667   0.95240   0.83333   0.00000  Uiso   1.00
N890   N     0.16667   0.71427   0.83333   0.00000  Uiso   1.00
O891   O     0.10559   0.87154   0.83333   0.00000  Uiso   1.00
O892   O     0.22774   0.79513   0.83334   0.00000  Uiso   1.00
O893   O     0.22774   0.87154   0.83334   0.00000  Uiso   1.00
O894   O     0.10559   0.79513   0.83333   0.00000  Uiso   1.00
O895   O     0.16667   0.87155   0.76178   0.00000  Uiso   1.00
O896   O     0.16666   0.79512   0.90489   0.00000  Uiso   1.00
O897   O     0.16666   0.87155   0.90489   0.00000  Uiso   1.00
O898   O     0.16667   0.79512   0.76178   0.00000  Uiso   1.00
Zn899  Zn    0.16667   0.88437   0.83333   0.00000  Uiso   1.00
Zn900  Zn    0.16667   0.78229   0.83333   0.00000  Uiso   1.00
Br901  Br    0.37771   0.73587   0.86567   0.00000  Uiso   1.00
Br902  Br    0.62230   0.93078   0.80097   0.00000  Uiso   1.00
Br903  Br    0.62239   0.73579   0.80134   0.00000  Uiso   1.00
Br904  Br    0.37760   0.93086   0.86537   0.00000  Uiso   1.00
Br905  Br    0.56081   0.72188   0.91405   0.00000  Uiso   1.00
Br906  Br    0.43918   0.94477   0.75264   0.00000  Uiso   1.00
Br907  Br    0.43916   0.72194   0.75265   0.00000  Uiso   1.00
Br908  Br    0.56085   0.94471   0.91400   0.00000  Uiso   1.00
C909   C     0.42021   0.83333   0.83849   0.00000  Uiso   1.00
C910   C     0.35403   0.87458   0.84082   0.00000  Uiso   1.00
C911   C     0.62434   0.83331   0.82327   0.00000  Uiso   1.00
C912   C     0.37567   0.83335   0.84340   0.00000  Uiso   1.00
C913   C     0.52500   0.69057   0.86662   0.00000  Uiso   1.00
C914   C     0.47500   0.97609   0.80005   0.00000  Uiso   1.00
C915   C     0.47499   0.69060   0.80005   0.00000  Uiso   1.00
C916   C     0.52501   0.97606   0.86661   0.00000  Uiso   1.00
C917   C     0.57978   0.83333   0.82818   0.00000  Uiso   1.00
C918   C     0.49987   0.83334   0.73960   0.00000  Uiso   1.00
C919   C     0.50013   0.83333   0.92707   0.00000  Uiso   1.00
C920   C     0.49996   0.83334   0.68848   0.00000  Uiso   1.00
C921   C     0.50004   0.83333   0.97819   0.00000  Uiso   1.00
C922   C     0.35407   0.79209   0.84097   0.00000  Uiso   1.00
C923   C     0.64593   0.87457   0.82570   0.00000  Uiso   1.00
C924   C     0.64596   0.79208   0.82585   0.00000  Uiso   1.00
N925   N     0.50000   0.95240   0.83333   0.00000  Uiso   1.00
N926   N     0.50000   0.71427   0.83333   0.00000  Uiso   1.00
O927   O     0.43892   0.87154   0.83333   0.00000  Uiso   1.00
O928   O     0.56108   0.79513   0.83334   0.00000  Uiso   1.00
O929   O     0.56108   0.87154   0.83334   0.00000  Uiso   1.00
O930   O     0.43892   0.79513   0.83333   0.00000  Uiso   1.00
O931   O     0.50000   0.87155   0.76178   0.00000  Uiso   1.00
O932   O     0.50000   0.79512   0.90489   0.00000  Uiso   1.00
O933   O     0.50000   0.87155   0.90489   0.00000  Uiso   1.00
O934   O     0.50000   0.79512   0.76178   0.00000  Uiso   1.00
Zn935  Zn    0.50000   0.88437   0.83333   0.00000  Uiso   1.00
Zn936  Zn    0.50000   0.78229   0.83333   0.00000  Uiso   1.00
Br937  Br    0.71105   0.73587   0.86567   0.00000  Uiso   1.00
Br938  Br    0.95563   0.93078   0.80097   0.00000  Uiso   1.00
Br939  Br    0.95572   0.73579   0.80134   0.00000  Uiso   1.00
Br940  Br    0.71094   0.93086   0.86537   0.00000  Uiso   1.00
Br941  Br    0.89414   0.72188   0.91405   0.00000  Uiso   1.00
Br942  Br    0.77252   0.94477   0.75264   0.00000  Uiso   1.00
Br943  Br    0.77249   0.72194   0.75265   0.00000  Uiso   1.00
Br944  Br    0.89418   0.94471   0.91400   0.00000  Uiso   1.00
C945   C     0.75355   0.83333   0.83849   0.00000  Uiso   1.00
C946   C     0.68737   0.87458   0.84082   0.00000  Uiso   1.00
C947   C     0.95767   0.83331   0.82327   0.00000  Uiso   1.00
C948   C     0.70900   0.83335   0.84340   0.00000  Uiso   1.00
C949   C     0.85834   0.69057   0.86662   0.00000  Uiso   1.00
C950   C     0.80833   0.97609   0.80005   0.00000  Uiso   1.00
C951   C     0.80833   0.69060   0.80005   0.00000  Uiso   1.00
C952   C     0.85834   0.97606   0.86661   0.00000  Uiso   1.00
C953   C     0.91312   0.83333   0.82818   0.00000  Uiso   1.00
C954   C     0.83321   0.83334   0.73960   0.00000  Uiso   1.00
C955   C     0.83346   0.83333   0.92707   0.00000  Uiso   1.00
C956   C     0.83329   0.83334   0.68848   0.00000  Uiso   1.00
C957   C     0.83337   0.83333   0.97819   0.00000  Uiso   1.00
C958   C     0.68740   0.79209   0.84097   0.00000  Uiso   1.00
C959   C     0.97927   0.87457   0.82570   0.00000  Uiso   1.00
C960   C     0.97930   0.79208   0.82585   0.00000  Uiso   1.00
N961   N     0.83333   0.95240   0.83333   0.00000  Uiso   1.00
N962   N     0.83333   0.71427   0.83333   0.00000  Uiso   1.00
O963   O     0.77226   0.87154   0.83333   0.00000  Uiso   1.00
O964   O     0.89441   0.79513   0.83334   0.00000  Uiso   1.00
O965   O     0.89441   0.87154   0.83334   0.00000  Uiso   1.00
O966   O     0.77226   0.79513   0.83333   0.00000  Uiso   1.00
O967   O     0.83334   0.87155   0.76178   0.00000  Uiso   1.00
O968   O     0.83333   0.79512   0.90489   0.00000  Uiso   1.00
O969   O     0.83333   0.87155   0.90489   0.00000  Uiso   1.00
O970   O     0.83334   0.79512   0.76178   0.00000  Uiso   1.00
Zn971  Zn    0.83333   0.88437   0.83333   0.00000  Uiso   1.00
Zn972  Zn    0.83333   0.78229   0.83333   0.00000  Uiso   1.00
loop_
_geom_bond_atom_site_label_1
_geom_bond_atom_site_label_2
_geom_bond_distance
_geom_bond_site_symmetry_2
_ccdc_geom_bond_type
Br1    C22     1.941   .     S
Br2    C23     1.941   .     S
Br3    C24     1.941   .     S
Br4    C10     1.941   .     S
Br5    C13     1.923   .     S
Br6    C14     1.923   .     S
Br7    C15     1.923   .     S
Br8    C16     1.923   .     S
C9     O27     1.294   .     A
C9     O30     1.294   .     A
C9     C12     1.444   .     S
C10    C12     1.409   .     A
C10    C95     1.380   1_455 S
C11    C23     1.410   .     A
C11    C24     1.409   .     A
C11    C17     1.444   .     S
C12    C22     1.410   .     A
C13    N26     1.373   .     A
C13    C232    1.421   1_545 S
C14    N25     1.372   .     A
C14    C123    1.421   .     S
C15    N26     1.373   .     A
C15    C230    1.421   1_545 S
C16    N25     1.372   .     A
C16    C121    1.421   .     S
C17    O29     1.294   .     A
C17    O28     1.294   .     A
C18    C20     1.365   .     S
C18    O34     1.280   .     A
C18    O31     1.280   .     A
C19    O32     1.280   .     A
C19    O33     1.280   .     A
C19    C21     1.365   .     S
C20    C669    1.165   1_554 S
C21    C344    1.165   .     S
C22    C96     1.380   1_455 S
C23    C46     1.380   .     S
C24    C58     1.380   .     S
N25    Zn35    2.021   .     S
N26    Zn36    2.021   .     S
O27    Zn35    2.002   .     S
O28    Zn36    2.002   .     S
O29    Zn35    2.002   .     S
O30    Zn36    2.002   .     S
O31    Zn35    1.948   .     S
O32    Zn36    1.948   .     S
O33    Zn35    1.948   .     S
O34    Zn36    1.948   .     S
Br37   C58     1.941   .     S
Br38   C59     1.941   .     S
Br39   C60     1.941   .     S
Br40   C46     1.941   .     S
Br41   C49     1.923   .     S
Br42   C50     1.923   .     S
Br43   C51     1.923   .     S
Br44   C52     1.923   .     S
C45    O63     1.294   .     A
C45    O66     1.294   .     A
C45    C48     1.444   .     S
C46    C48     1.409   .     A
C47    C59     1.410   .     A
C47    C60     1.409   .     A
C47    C53     1.444   .     S
C48    C58     1.410   .     A
C49    N62     1.373   .     A
C49    C268    1.421   1_545 S
C50    N61     1.372   .     A
C50    C159    1.421   .     S
C51    N62     1.373   .     A
C51    C266    1.421   1_545 S
C52    N61     1.372   .     A
C52    C157    1.421   .     S
C53    O65     1.294   .     A
C53    O64     1.294   .     A
C54    C56     1.365   .     S
C54    O70     1.280   .     A
C54    O67     1.280   .     A
C55    O68     1.280   .     A
C55    O69     1.280   .     A
C55    C57     1.365   .     S
C56    C705    1.165   1_554 S
C57    C380    1.165   .     S
C59    C82     1.380   .     S
C60    C94     1.380   .     S
N61    Zn71    2.021   .     S
N62    Zn72    2.021   .     S
O63    Zn71    2.002   .     S
O64    Zn72    2.002   .     S
O65    Zn71    2.002   .     S
O66    Zn72    2.002   .     S
O67    Zn71    1.948   .     S
O68    Zn72    1.948   .     S
O69    Zn71    1.948   .     S
O70    Zn72    1.948   .     S
Br73   C94     1.941   .     S
Br74   C95     1.941   .     S
Br75   C96     1.941   .     S
Br76   C82     1.941   .     S
Br77   C85     1.923   .     S
Br78   C86     1.923   .     S
Br79   C87     1.923   .     S
Br80   C88     1.923   .     S
C81    O99     1.294   .     A
C81    O102    1.294   .     A
C81    C84     1.444   .     S
C82    C84     1.409   .     A
C83    C95     1.410   .     A
C83    C96     1.409   .     A
C83    C89     1.444   .     S
C84    C94     1.410   .     A
C85    N98     1.373   .     A
C85    C304    1.421   1_545 S
C86    N97     1.372   .     A
C86    C195    1.421   .     S
C87    N98     1.373   .     A
C87    C302    1.421   1_545 S
C88    N97     1.372   .     A
C88    C193    1.421   .     S
C89    O101    1.294   .     A
C89    O100    1.294   .     A
C90    C92     1.365   .     S
C90    O106    1.280   .     A
C90    O103    1.280   .     A
C91    O104    1.280   .     A
C91    O105    1.280   .     A
C91    C93     1.365   .     S
C92    C741    1.165   1_554 S
C93    C416    1.165   .     S
C95    C10     1.380   1_655 S
C96    C22     1.380   1_655 S
N97    Zn107   2.021   .     S
N98    Zn108   2.021   .     S
O99    Zn107   2.002   .     S
O100   Zn108   2.002   .     S
O101   Zn107   2.002   .     S
O102   Zn108   2.002   .     S
O103   Zn107   1.948   .     S
O104   Zn108   1.948   .     S
O105   Zn107   1.948   .     S
O106   Zn108   1.948   .     S
Br109  C130    1.941   .     S
Br110  C131    1.941   .     S
Br111  C132    1.941   .     S
Br112  C118    1.941   .     S
Br113  C121    1.923   .     S
Br114  C122    1.923   .     S
Br115  C123    1.923   .     S
Br116  C124    1.923   .     S
C117   O135    1.294   .     A
C117   O138    1.294   .     A
C117   C120    1.444   .     S
C118   C120    1.409   .     A
C118   C203    1.380   1_455 S
C119   C131    1.410   .     A
C119   C132    1.409   .     A
C119   C125    1.444   .     S
C120   C130    1.410   .     A
C121   N134    1.373   .     A
C122   N133    1.372   .     A
C122   C231    1.421   .     S
C123   N134    1.373   .     A
C124   N133    1.372   .     A
C124   C229    1.421   .     S
C125   O137    1.294   .     A
C125   O136    1.294   .     A
C126   C128    1.365   .     S
C126   O142    1.280   .     A
C126   O139    1.280   .     A
C127   O140    1.280   .     A
C127   O141    1.280   .     A
C127   C129    1.365   .     S
C128   C777    1.165   1_554 S
C129   C452    1.165   .     S
C130   C204    1.380   1_455 S
C131   C154    1.380   .     S
C132   C166    1.380   .     S
N133   Zn143   2.021   .     S
N134   Zn144   2.021   .     S
O135   Zn143   2.002   .     S
O136   Zn144   2.002   .     S
O137   Zn143   2.002   .     S
O138   Zn144   2.002   .     S
O139   Zn143   1.948   .     S
O140   Zn144   1.948   .     S
O141   Zn143   1.948   .     S
O142   Zn144   1.948   .     S
Br145  C166    1.941   .     S
Br146  C167    1.941   .     S
Br147  C168    1.941   .     S
Br148  C154    1.941   .     S
Br149  C157    1.923   .     S
Br150  C158    1.923   .     S
Br151  C159    1.923   .     S
Br152  C160    1.923   .     S
C153   O171    1.294   .     A
C153   O174    1.294   .     A
C153   C156    1.444   .     S
C154   C156    1.409   .     A
C155   C167    1.410   .     A
C155   C168    1.409   .     A
C155   C161    1.444   .     S
C156   C166    1.410   .     A
C157   N170    1.373   .     A
C158   N169    1.372   .     A
C158   C267    1.421   .     S
C159   N170    1.373   .     A
C160   N169    1.372   .     A
C160   C265    1.421   .     S
C161   O173    1.294   .     A
C161   O172    1.294   .     A
C162   C164    1.365   .     S
C162   O178    1.280   .     A
C162   O175    1.280   .     A
C163   O176    1.280   .     A
C163   O177    1.280   .     A
C163   C165    1.365   .     S
C164   C813    1.165   1_554 S
C165   C488    1.165   .     S
C167   C190    1.380   .     S
C168   C202    1.380   .     S
N169   Zn179   2.021   .     S
N170   Zn180   2.021   .     S
O171   Zn179   2.002   .     S
O172   Zn180   2.002   .     S
O173   Zn179   2.002   .     S
O174   Zn180   2.002   .     S
O175   Zn179   1.948   .     S
O176   Zn180   1.948   .     S
O177   Zn179   1.948   .     S
O178   Zn180   1.948   .     S
Br181  C202    1.941   .     S
Br182  C203    1.941   .     S
Br183  C204    1.941   .     S
Br184  C190    1.941   .     S
Br185  C193    1.923   .     S
Br186  C194    1.923   .     S
Br187  C195    1.923   .     S
Br188  C196    1.923   .     S
C189   O207    1.294   .     A
C189   O210    1.294   .     A
C189   C192    1.444   .     S
C190   C192    1.409   .     A
C191   C203    1.410   .     A
C191   C204    1.409   .     A
C191   C197    1.444   .     S
C192   C202    1.410   .     A
C193   N206    1.373   .     A
C194   N205    1.372   .     A
C194   C303    1.421   .     S
C195   N206    1.373   .     A
C196   N205    1.372   .     A
C196   C301    1.421   .     S
C197   O209    1.294   .     A
C197   O208    1.294   .     A
C198   C200    1.365   .     S
C198   O214    1.280   .     A
C198   O211    1.280   .     A
C199   O212    1.280   .     A
C199   O213    1.280   .     A
C199   C201    1.365   .     S
C200   C849    1.165   1_554 S
C201   C524    1.165   .     S
C203   C118    1.380   1_655 S
C204   C130    1.380   1_655 S
N205   Zn215   2.021   .     S
N206   Zn216   2.021   .     S
O207   Zn215   2.002   .     S
O208   Zn216   2.002   .     S
O209   Zn215   2.002   .     S
O210   Zn216   2.002   .     S
O211   Zn215   1.948   .     S
O212   Zn216   1.948   .     S
O213   Zn215   1.948   .     S
O214   Zn216   1.948   .     S
Br217  C238    1.941   .     S
Br218  C239    1.941   .     S
Br219  C240    1.941   .     S
Br220  C226    1.941   .     S
Br221  C229    1.923   .     S
Br222  C230    1.923   .     S
Br223  C231    1.923   .     S
Br224  C232    1.923   .     S
C225   O243    1.294   .     A
C225   O246    1.294   .     A
C225   C228    1.444   .     S
C226   C228    1.409   .     A
C226   C311    1.380   1_455 S
C227   C239    1.410   .     A
C227   C240    1.409   .     A
C227   C233    1.444   .     S
C228   C238    1.410   .     A
C229   N242    1.373   .     A
C230   N241    1.372   .     A
C230   C15     1.421   1_565 S
C231   N242    1.373   .     A
C232   N241    1.372   .     A
C232   C13     1.421   1_565 S
C233   O245    1.294   .     A
C233   O244    1.294   .     A
C234   C236    1.365   .     S
C234   O250    1.280   .     A
C234   O247    1.280   .     A
C235   O248    1.280   .     A
C235   O249    1.280   .     A
C235   C237    1.365   .     S
C236   C885    1.165   1_554 S
C237   C560    1.165   .     S
C238   C312    1.380   1_455 S
C239   C262    1.380   .     S
C240   C274    1.380   .     S
N241   Zn251   2.021   .     S
N242   Zn252   2.021   .     S
O243   Zn251   2.002   .     S
O244   Zn252   2.002   .     S
O245   Zn251   2.002   .     S
O246   Zn252   2.002   .     S
O247   Zn251   1.948   .     S
O248   Zn252   1.948   .     S
O249   Zn251   1.948   .     S
O250   Zn252   1.948   .     S
Br253  C274    1.941   .     S
Br254  C275    1.941   .     S
Br255  C276    1.941   .     S
Br256  C262    1.941   .     S
Br257  C265    1.923   .     S
Br258  C266    1.923   .     S
Br259  C267    1.923   .     S
Br260  C268    1.923   .     S
C261   O279    1.294   .     A
C261   O282    1.294   .     A
C261   C264    1.444   .     S
C262   C264    1.409   .     A
C263   C275    1.410   .     A
C263   C276    1.409   .     A
C263   C269    1.444   .     S
C264   C274    1.410   .     A
C265   N278    1.373   .     A
C266   N277    1.372   .     A
C266   C51     1.421   1_565 S
C267   N278    1.373   .     A
C268   N277    1.372   .     A
C268   C49     1.421   1_565 S
C269   O281    1.294   .     A
C269   O280    1.294   .     A
C270   C272    1.365   .     S
C270   O286    1.280   .     A
C270   O283    1.280   .     A
C271   O284    1.280   .     A
C271   O285    1.280   .     A
C271   C273    1.365   .     S
C272   C921    1.165   1_554 S
C273   C596    1.165   .     S
C275   C298    1.380   .     S
C276   C310    1.380   .     S
N277   Zn287   2.021   .     S
N278   Zn288   2.021   .     S
O279   Zn287   2.002   .     S
O280   Zn288   2.002   .     S
O281   Zn287   2.002   .     S
O282   Zn288   2.002   .     S
O283   Zn287   1.948   .     S
O284   Zn288   1.948   .     S
O285   Zn287   1.948   .     S
O286   Zn288   1.948   .     S
Br289  C310    1.941   .     S
Br290  C311    1.941   .     S
Br291  C312    1.941   .     S
Br292  C298    1.941   .     S
Br293  C301    1.923   .     S
Br294  C302    1.923   .     S
Br295  C303    1.923   .     S
Br296  C304    1.923   .     S
C297   O315    1.294   .     A
C297   O318    1.294   .     A
C297   C300    1.444   .     S
C298   C300    1.409   .     A
C299   C311    1.410   .     A
C299   C312    1.409   .     A
C299   C305    1.444   .     S
C300   C310    1.410   .     A
C301   N314    1.373   .     A
C302   N313    1.372   .     A
C302   C87     1.421   1_565 S
C303   N314    1.373   .     A
C304   N313    1.372   .     A
C304   C85     1.421   1_565 S
C305   O317    1.294   .     A
C305   O316    1.294   .     A
C306   C308    1.365   .     S
C306   O322    1.280   .     A
C306   O319    1.280   .     A
C307   O320    1.280   .     A
C307   O321    1.280   .     A
C307   C309    1.365   .     S
C308   C957    1.165   1_554 S
C309   C632    1.165   .     S
C311   C226    1.380   1_655 S
C312   C238    1.380   1_655 S
N313   Zn323   2.021   .     S
N314   Zn324   2.021   .     S
O315   Zn323   2.002   .     S
O316   Zn324   2.002   .     S
O317   Zn323   2.002   .     S
O318   Zn324   2.002   .     S
O319   Zn323   1.948   .     S
O320   Zn324   1.948   .     S
O321   Zn323   1.948   .     S
O322   Zn324   1.948   .     S
Br325  C346    1.941   .     S
Br326  C347    1.941   .     S
Br327  C348    1.941   .     S
Br328  C334    1.941   .     S
Br329  C337    1.923   .     S
Br330  C338    1.923   .     S
Br331  C339    1.923   .     S
Br332  C340    1.923   .     S
C333   O351    1.294   .     A
C333   O354    1.294   .     A
C333   C336    1.444   .     S
C334   C336    1.409   .     A
C334   C419    1.380   1_455 S
C335   C347    1.410   .     A
C335   C348    1.409   .     A
C335   C341    1.444   .     S
C336   C346    1.410   .     A
C337   N350    1.373   .     A
C337   C556    1.421   1_545 S
C338   N349    1.372   .     A
C338   C447    1.421   .     S
C339   N350    1.373   .     A
C339   C554    1.421   1_545 S
C340   N349    1.372   .     A
C340   C445    1.421   .     S
C341   O353    1.294   .     A
C341   O352    1.294   .     A
C342   C344    1.365   .     S
C342   O358    1.280   .     A
C342   O355    1.280   .     A
C343   O356    1.280   .     A
C343   O357    1.280   .     A
C343   C345    1.365   .     S
C345   C668    1.165   .     S
C346   C420    1.380   1_455 S
C347   C370    1.380   .     S
C348   C382    1.380   .     S
N349   Zn359   2.021   .     S
N350   Zn360   2.021   .     S
O351   Zn359   2.002   .     S
O352   Zn360   2.002   .     S
O353   Zn359   2.002   .     S
O354   Zn360   2.002   .     S
O355   Zn359   1.948   .     S
O356   Zn360   1.948   .     S
O357   Zn359   1.948   .     S
O358   Zn360   1.948   .     S
Br361  C382    1.941   .     S
Br362  C383    1.941   .     S
Br363  C384    1.941   .     S
Br364  C370    1.941   .     S
Br365  C373    1.923   .     S
Br366  C374    1.923   .     S
Br367  C375    1.923   .     S
Br368  C376    1.923   .     S
C369   O387    1.294   .     A
C369   O390    1.294   .     A
C369   C372    1.444   .     S
C370   C372    1.409   .     A
C371   C383    1.410   .     A
C371   C384    1.409   .     A
C371   C377    1.444   .     S
C372   C382    1.410   .     A
C373   N386    1.373   .     A
C373   C592    1.421   1_545 S
C374   N385    1.372   .     A
C374   C483    1.421   .     S
C375   N386    1.373   .     A
C375   C590    1.421   1_545 S
C376   N385    1.372   .     A
C376   C481    1.421   .     S
C377   O389    1.294   .     A
C377   O388    1.294   .     A
C378   C380    1.365   .     S
C378   O394    1.280   .     A
C378   O391    1.280   .     A
C379   O392    1.280   .     A
C379   O393    1.280   .     A
C379   C381    1.365   .     S
C381   C704    1.165   .     S
C383   C406    1.380   .     S
C384   C418    1.380   .     S
N385   Zn395   2.021   .     S
N386   Zn396   2.021   .     S
O387   Zn395   2.002   .     S
O388   Zn396   2.002   .     S
O389   Zn395   2.002   .     S
O390   Zn396   2.002   .     S
O391   Zn395   1.948   .     S
O392   Zn396   1.948   .     S
O393   Zn395   1.948   .     S
O394   Zn396   1.948   .     S
Br397  C418    1.941   .     S
Br398  C419    1.941   .     S
Br399  C420    1.941   .     S
Br400  C406    1.941   .     S
Br401  C409    1.923   .     S
Br402  C410    1.923   .     S
Br403  C411    1.923   .     S
Br404  C412    1.923   .     S
C405   O423    1.294   .     A
C405   O426    1.294   .     A
C405   C408    1.444   .     S
C406   C408    1.409   .     A
C407   C419    1.410   .     A
C407   C420    1.409   .     A
C407   C413    1.444   .     S
C408   C418    1.410   .     A
C409   N422    1.373   .     A
C409   C628    1.421   1_545 S
C410   N421    1.372   .     A
C410   C519    1.421   .     S
C411   N422    1.373   .     A
C411   C626    1.421   1_545 S
C412   N421    1.372   .     A
C412   C517    1.421   .     S
C413   O425    1.294   .     A
C413   O424    1.294   .     A
C414   C416    1.365   .     S
C414   O430    1.280   .     A
C414   O427    1.280   .     A
C415   O428    1.280   .     A
C415   O429    1.280   .     A
C415   C417    1.365   .     S
C417   C740    1.165   .     S
C419   C334    1.380   1_655 S
C420   C346    1.380   1_655 S
N421   Zn431   2.021   .     S
N422   Zn432   2.021   .     S
O423   Zn431   2.002   .     S
O424   Zn432   2.002   .     S
O425   Zn431   2.002   .     S
O426   Zn432   2.002   .     S
O427   Zn431   1.948   .     S
O428   Zn432   1.948   .     S
O429   Zn431   1.948   .     S
O430   Zn432   1.948   .     S
Br433  C454    1.941   .     S
Br434  C455    1.941   .     S
Br435  C456    1.941   .     S
Br436  C442    1.941   .     S
Br437  C445    1.923   .     S
Br438  C446    1.923   .     S
Br439  C447    1.923   .     S
Br440  C448    1.923   .     S
C441   O459    1.294   .     A
C441   O462    1.294   .     A
C441   C444    1.444   .     S
C442   C444    1.409   .     A
C442   C527    1.380   1_455 S
C443   C455    1.410   .     A
C443   C456    1.409   .     A
C443   C449    1.444   .     S
C444   C454    1.410   .     A
C445   N458    1.373   .     A
C446   N457    1.372   .     A
C446   C555    1.421   .     S
C447   N458    1.373   .     A
C448   N457    1.372   .     A
C448   C553    1.421   .     S
C449   O461    1.294   .     A
C449   O460    1.294   .     A
C450   C452    1.365   .     S
C450   O466    1.280   .     A
C450   O463    1.280   .     A
C451   O464    1.280   .     A
C451   O465    1.280   .     A
C451   C453    1.365   .     S
C453   C776    1.165   .     S
C454   C528    1.380   1_455 S
C455   C478    1.380   .     S
C456   C490    1.380   .     S
N457   Zn467   2.021   .     S
N458   Zn468   2.021   .     S
O459   Zn467   2.002   .     S
O460   Zn468   2.002   .     S
O461   Zn467   2.002   .     S
O462   Zn468   2.002   .     S
O463   Zn467   1.948   .     S
O464   Zn468   1.948   .     S
O465   Zn467   1.948   .     S
O466   Zn468   1.948   .     S
Br469  C490    1.941   .     S
Br470  C491    1.941   .     S
Br471  C492    1.941   .     S
Br472  C478    1.941   .     S
Br473  C481    1.923   .     S
Br474  C482    1.923   .     S
Br475  C483    1.923   .     S
Br476  C484    1.923   .     S
C477   O495    1.294   .     A
C477   O498    1.294   .     A
C477   C480    1.444   .     S
C478   C480    1.409   .     A
C479   C491    1.410   .     A
C479   C492    1.409   .     A
C479   C485    1.444   .     S
C480   C490    1.410   .     A
C481   N494    1.373   .     A
C482   N493    1.372   .     A
C482   C591    1.421   .     S
C483   N494    1.373   .     A
C484   N493    1.372   .     A
C484   C589    1.421   .     S
C485   O497    1.294   .     A
C485   O496    1.294   .     A
C486   C488    1.365   .     S
C486   O502    1.280   .     A
C486   O499    1.280   .     A
C487   O500    1.280   .     A
C487   O501    1.280   .     A
C487   C489    1.365   .     S
C489   C812    1.165   .     S
C491   C514    1.380   .     S
C492   C526    1.380   .     S
N493   Zn503   2.021   .     S
N494   Zn504   2.021   .     S
O495   Zn503   2.002   .     S
O496   Zn504   2.002   .     S
O497   Zn503   2.002   .     S
O498   Zn504   2.002   .     S
O499   Zn503   1.948   .     S
O500   Zn504   1.948   .     S
O501   Zn503   1.948   .     S
O502   Zn504   1.948   .     S
Br505  C526    1.941   .     S
Br506  C527    1.941   .     S
Br507  C528    1.941   .     S
Br508  C514    1.941   .     S
Br509  C517    1.923   .     S
Br510  C518    1.923   .     S
Br511  C519    1.923   .     S
Br512  C520    1.923   .     S
C513   O531    1.294   .     A
C513   O534    1.294   .     A
C513   C516    1.444   .     S
C514   C516    1.409   .     A
C515   C527    1.410   .     A
C515   C528    1.409   .     A
C515   C521    1.444   .     S
C516   C526    1.410   .     A
C517   N530    1.373   .     A
C518   N529    1.372   .     A
C518   C627    1.421   .     S
C519   N530    1.373   .     A
C520   N529    1.372   .     A
C520   C625    1.421   .     S
C521   O533    1.294   .     A
C521   O532    1.294   .     A
C522   C524    1.365   .     S
C522   O538    1.280   .     A
C522   O535    1.280   .     A
C523   O536    1.280   .     A
C523   O537    1.280   .     A
C523   C525    1.365   .     S
C525   C848    1.165   .     S
C527   C442    1.380   1_655 S
C528   C454    1.380   1_655 S
N529   Zn539   2.021   .     S
N530   Zn540   2.021   .     S
O531   Zn539   2.002   .     S
O532   Zn540   2.002   .     S
O533   Zn539   2.002   .     S
O534   Zn540   2.002   .     S
O535   Zn539   1.948   .     S
O536   Zn540   1.948   .     S
O537   Zn539   1.948   .     S
O538   Zn540   1.948   .     S
Br541  C562    1.941   .     S
Br542  C563    1.941   .     S
Br543  C564    1.941   .     S
Br544  C550    1.941   .     S
Br545  C553    1.923   .     S
Br546  C554    1.923   .     S
Br547  C555    1.923   .     S
Br548  C556    1.923   .     S
C549   O567    1.294   .     A
C549   O570    1.294   .     A
C549   C552    1.444   .     S
C550   C552    1.409   .     A
C550   C635    1.380   1_455 S
C551   C563    1.410   .     A
C551   C564    1.409   .     A
C551   C557    1.444   .     S
C552   C562    1.410   .     A
C553   N566    1.373   .     A
C554   N565    1.372   .     A
C554   C339    1.421   1_565 S
C555   N566    1.373   .     A
C556   N565    1.372   .     A
C556   C337    1.421   1_565 S
C557   O569    1.294   .     A
C557   O568    1.294   .     A
C558   C560    1.365   .     S
C558   O574    1.280   .     A
C558   O571    1.280   .     A
C559   O572    1.280   .     A
C559   O573    1.280   .     A
C559   C561    1.365   .     S
C561   C884    1.165   .     S
C562   C636    1.380   1_455 S
C563   C586    1.380   .     S
C564   C598    1.380   .     S
N565   Zn575   2.021   .     S
N566   Zn576   2.021   .     S
O567   Zn575   2.002   .     S
O568   Zn576   2.002   .     S
O569   Zn575   2.002   .     S
O570   Zn576   2.002   .     S
O571   Zn575   1.948   .     S
O572   Zn576   1.948   .     S
O573   Zn575   1.948   .     S
O574   Zn576   1.948   .     S
Br577  C598    1.941   .     S
Br578  C599    1.941   .     S
Br579  C600    1.941   .     S
Br580  C586    1.941   .     S
Br581  C589    1.923   .     S
Br582  C590    1.923   .     S
Br583  C591    1.923   .     S
Br584  C592    1.923   .     S
C585   O603    1.294   .     A
C585   O606    1.294   .     A
C585   C588    1.444   .     S
C586   C588    1.409   .     A
C587   C599    1.410   .     A
C587   C600    1.409   .     A
C587   C593    1.444   .     S
C588   C598    1.410   .     A
C589   N602    1.373   .     A
C590   N601    1.372   .     A
C590   C375    1.421   1_565 S
C591   N602    1.373   .     A
C592   N601    1.372   .     A
C592   C373    1.421   1_565 S
C593   O605    1.294   .     A
C593   O604    1.294   .     A
C594   C596    1.365   .     S
C594   O610    1.280   .     A
C594   O607    1.280   .     A
C595   O608    1.280   .     A
C595   O609    1.280   .     A
C595   C597    1.365   .     S
C597   C920    1.165   .     S
C599   C622    1.380   .     S
C600   C634    1.380   .     S
N601   Zn611   2.021   .     S
N602   Zn612   2.021   .     S
O603   Zn611   2.002   .     S
O604   Zn612   2.002   .     S
O605   Zn611   2.002   .     S
O606   Zn612   2.002   .     S
O607   Zn611   1.948   .     S
O608   Zn612   1.948   .     S
O609   Zn611   1.948   .     S
O610   Zn612   1.948   .     S
Br613  C634    1.941   .     S
Br614  C635    1.941   .     S
Br615  C636    1.941   .     S
Br616  C622    1.941   .     S
Br617  C625    1.923   .     S
Br618  C626    1.923   .     S
Br619  C627    1.923   .     S
Br620  C628    1.923   .     S
C621   O639    1.294   .     A
C621   O642    1.294   .     A
C621   C624    1.444   .     S
C622   C624    1.409   .     A
C623   C635    1.410   .     A
C623   C636    1.409   .     A
C623   C629    1.444   .     S
C624   C634    1.410   .     A
C625   N638    1.373   .     A
C626   N637    1.372   .     A
C626   C411    1.421   1_565 S
C627   N638    1.373   .     A
C628   N637    1.372   .     A
C628   C409    1.421   1_565 S
C629   O641    1.294   .     A
C629   O640    1.294   .     A
C630   C632    1.365   .     S
C630   O646    1.280   .     A
C630   O643    1.280   .     A
C631   O644    1.280   .     A
C631   O645    1.280   .     A
C631   C633    1.365   .     S
C633   C956    1.165   .     S
C635   C550    1.380   1_655 S
C636   C562    1.380   1_655 S
N637   Zn647   2.021   .     S
N638   Zn648   2.021   .     S
O639   Zn647   2.002   .     S
O640   Zn648   2.002   .     S
O641   Zn647   2.002   .     S
O642   Zn648   2.002   .     S
O643   Zn647   1.948   .     S
O644   Zn648   1.948   .     S
O645   Zn647   1.948   .     S
O646   Zn648   1.948   .     S
Br649  C670    1.941   .     S
Br650  C671    1.941   .     S
Br651  C672    1.941   .     S
Br652  C658    1.941   .     S
Br653  C661    1.923   .     S
Br654  C662    1.923   .     S
Br655  C663    1.923   .     S
Br656  C664    1.923   .     S
C657   O675    1.294   .     A
C657   O678    1.294   .     A
C657   C660    1.444   .     S
C658   C660    1.409   .     A
C658   C743    1.380   1_455 S
C659   C671    1.410   .     A
C659   C672    1.409   .     A
C659   C665    1.444   .     S
C660   C670    1.410   .     A
C661   N674    1.373   .     A
C661   C880    1.421   1_545 S
C662   N673    1.372   .     A
C662   C771    1.421   .     S
C663   N674    1.373   .     A
C663   C878    1.421   1_545 S
C664   N673    1.372   .     A
C664   C769    1.421   .     S
C665   O677    1.294   .     A
C665   O676    1.294   .     A
C666   C668    1.365   .     S
C666   O682    1.280   .     A
C666   O679    1.280   .     A
C667   O680    1.280   .     A
C667   O681    1.280   .     A
C667   C669    1.365   .     S
C669   C20     1.165   1_556 S
C670   C744    1.380   1_455 S
C671   C694    1.380   .     S
C672   C706    1.380   .     S
N673   Zn683   2.021   .     S
N674   Zn684   2.021   .     S
O675   Zn683   2.002   .     S
O676   Zn684   2.002   .     S
O677   Zn683   2.002   .     S
O678   Zn684   2.002   .     S
O679   Zn683   1.948   .     S
O680   Zn684   1.948   .     S
O681   Zn683   1.948   .     S
O682   Zn684   1.948   .     S
Br685  C706    1.941   .     S
Br686  C707    1.941   .     S
Br687  C708    1.941   .     S
Br688  C694    1.941   .     S
Br689  C697    1.923   .     S
Br690  C698    1.923   .     S
Br691  C699    1.923   .     S
Br692  C700    1.923   .     S
C693   O711    1.294   .     A
C693   O714    1.294   .     A
C693   C696    1.444   .     S
C694   C696    1.409   .     A
C695   C707    1.410   .     A
C695   C708    1.409   .     A
C695   C701    1.444   .     S
C696   C706    1.410   .     A
C697   N710    1.373   .     A
C697   C916    1.421   1_545 S
C698   N709    1.372   .     A
C698   C807    1.421   .     S
C699   N710    1.373   .     A
C699   C914    1.421   1_545 S
C700   N709    1.372   .     A
C700   C805    1.421   .     S
C701   O713    1.294   .     A
C701   O712    1.294   .     A
C702   C704    1.365   .     S
C702   O718    1.280   .     A
C702   O715    1.280   .     A
C703   O716    1.280   .     A
C703   O717    1.280   .     A
C703   C705    1.365   .     S
C705   C56     1.165   1_556 S
C707   C730    1.380   .     S
C708   C742    1.380   .     S
N709   Zn719   2.021   .     S
N710   Zn720   2.021   .     S
O711   Zn719   2.002   .     S
O712   Zn720   2.002   .     S
O713   Zn719   2.002   .     S
O714   Zn720   2.002   .     S
O715   Zn719   1.948   .     S
O716   Zn720   1.948   .     S
O717   Zn719   1.948   .     S
O718   Zn720   1.948   .     S
Br721  C742    1.941   .     S
Br722  C743    1.941   .     S
Br723  C744    1.941   .     S
Br724  C730    1.941   .     S
Br725  C733    1.923   .     S
Br726  C734    1.923   .     S
Br727  C735    1.923   .     S
Br728  C736    1.923   .     S
C729   O747    1.294   .     A
C729   O750    1.294   .     A
C729   C732    1.444   .     S
C730   C732    1.409   .     A
C731   C743    1.410   .     A
C731   C744    1.409   .     A
C731   C737    1.444   .     S
C732   C742    1.410   .     A
C733   N746    1.373   .     A
C733   C952    1.421   1_545 S
C734   N745    1.372   .     A
C734   C843    1.421   .     S
C735   N746    1.373   .     A
C735   C950    1.421   1_545 S
C736   N745    1.372   .     A
C736   C841    1.421   .     S
C737   O749    1.294   .     A
C737   O748    1.294   .     A
C738   C740    1.365   .     S
C738   O754    1.280   .     A
C738   O751    1.280   .     A
C739   O752    1.280   .     A
C739   O753    1.280   .     A
C739   C741    1.365   .     S
C741   C92     1.165   1_556 S
C743   C658    1.380   1_655 S
C744   C670    1.380   1_655 S
N745   Zn755   2.021   .     S
N746   Zn756   2.021   .     S
O747   Zn755   2.002   .     S
O748   Zn756   2.002   .     S
O749   Zn755   2.002   .     S
O750   Zn756   2.002   .     S
O751   Zn755   1.948   .     S
O752   Zn756   1.948   .     S
O753   Zn755   1.948   .     S
O754   Zn756   1.948   .     S
Br757  C778    1.941   .     S
Br758  C779    1.941   .     S
Br759  C780    1.941   .     S
Br760  C766    1.941   .     S
Br761  C769    1.923   .     S
Br762  C770    1.923   .     S
Br763  C771    1.923   .     S
Br764  C772    1.923   .     S
C765   O783    1.294   .     A
C765   O786    1.294   .     A
C765   C768    1.444   .     S
C766   C768    1.409   .     A
C766   C851    1.380   1_455 S
C767   C779    1.410   .     A
C767   C780    1.409   .     A
C767   C773    1.444   .     S
C768   C778    1.410   .     A
C769   N782    1.373   .     A
C770   N781    1.372   .     A
C770   C879    1.421   .     S
C771   N782    1.373   .     A
C772   N781    1.372   .     A
C772   C877    1.421   .     S
C773   O785    1.294   .     A
C773   O784    1.294   .     A
C774   C776    1.365   .     S
C774   O790    1.280   .     A
C774   O787    1.280   .     A
C775   O788    1.280   .     A
C775   O789    1.280   .     A
C775   C777    1.365   .     S
C777   C128    1.165   1_556 S
C778   C852    1.380   1_455 S
C779   C802    1.380   .     S
C780   C814    1.380   .     S
N781   Zn791   2.021   .     S
N782   Zn792   2.021   .     S
O783   Zn791   2.002   .     S
O784   Zn792   2.002   .     S
O785   Zn791   2.002   .     S
O786   Zn792   2.002   .     S
O787   Zn791   1.948   .     S
O788   Zn792   1.948   .     S
O789   Zn791   1.948   .     S
O790   Zn792   1.948   .     S
Br793  C814    1.941   .     S
Br794  C815    1.941   .     S
Br795  C816    1.941   .     S
Br796  C802    1.941   .     S
Br797  C805    1.923   .     S
Br798  C806    1.923   .     S
Br799  C807    1.923   .     S
Br800  C808    1.923   .     S
C801   O819    1.294   .     A
C801   O822    1.294   .     A
C801   C804    1.444   .     S
C802   C804    1.409   .     A
C803   C815    1.410   .     A
C803   C816    1.409   .     A
C803   C809    1.444   .     S
C804   C814    1.410   .     A
C805   N818    1.373   .     A
C806   N817    1.372   .     A
C806   C915    1.421   .     S
C807   N818    1.373   .     A
C808   N817    1.372   .     A
C808   C913    1.421   .     S
C809   O821    1.294   .     A
C809   O820    1.294   .     A
C810   C812    1.365   .     S
C810   O826    1.280   .     A
C810   O823    1.280   .     A
C811   O824    1.280   .     A
C811   O825    1.280   .     A
C811   C813    1.365   .     S
C813   C164    1.165   1_556 S
C815   C838    1.380   .     S
C816   C850    1.380   .     S
N817   Zn827   2.021   .     S
N818   Zn828   2.021   .     S
O819   Zn827   2.002   .     S
O820   Zn828   2.002   .     S
O821   Zn827   2.002   .     S
O822   Zn828   2.002   .     S
O823   Zn827   1.948   .     S
O824   Zn828   1.948   .     S
O825   Zn827   1.948   .     S
O826   Zn828   1.948   .     S
Br829  C850    1.941   .     S
Br830  C851    1.941   .     S
Br831  C852    1.941   .     S
Br832  C838    1.941   .     S
Br833  C841    1.923   .     S
Br834  C842    1.923   .     S
Br835  C843    1.923   .     S
Br836  C844    1.923   .     S
C837   O855    1.294   .     A
C837   O858    1.294   .     A
C837   C840    1.444   .     S
C838   C840    1.409   .     A
C839   C851    1.410   .     A
C839   C852    1.409   .     A
C839   C845    1.444   .     S
C840   C850    1.410   .     A
C841   N854    1.373   .     A
C842   N853    1.372   .     A
C842   C951    1.421   .     S
C843   N854    1.373   .     A
C844   N853    1.372   .     A
C844   C949    1.421   .     S
C845   O857    1.294   .     A
C845   O856    1.294   .     A
C846   C848    1.365   .     S
C846   O862    1.280   .     A
C846   O859    1.280   .     A
C847   O860    1.280   .     A
C847   O861    1.280   .     A
C847   C849    1.365   .     S
C849   C200    1.165   1_556 S
C851   C766    1.380   1_655 S
C852   C778    1.380   1_655 S
N853   Zn863   2.021   .     S
N854   Zn864   2.021   .     S
O855   Zn863   2.002   .     S
O856   Zn864   2.002   .     S
O857   Zn863   2.002   .     S
O858   Zn864   2.002   .     S
O859   Zn863   1.948   .     S
O860   Zn864   1.948   .     S
O861   Zn863   1.948   .     S
O862   Zn864   1.948   .     S
Br865  C886    1.941   .     S
Br866  C887    1.941   .     S
Br867  C888    1.941   .     S
Br868  C874    1.941   .     S
Br869  C877    1.923   .     S
Br870  C878    1.923   .     S
Br871  C879    1.923   .     S
Br872  C880    1.923   .     S
C873   O891    1.294   .     A
C873   O894    1.294   .     A
C873   C876    1.444   .     S
C874   C876    1.409   .     A
C874   C959    1.380   1_455 S
C875   C887    1.410   .     A
C875   C888    1.409   .     A
C875   C881    1.444   .     S
C876   C886    1.410   .     A
C877   N890    1.373   .     A
C878   N889    1.372   .     A
C878   C663    1.421   1_565 S
C879   N890    1.373   .     A
C880   N889    1.372   .     A
C880   C661    1.421   1_565 S
C881   O893    1.294   .     A
C881   O892    1.294   .     A
C882   C884    1.365   .     S
C882   O898    1.280   .     A
C882   O895    1.280   .     A
C883   O896    1.280   .     A
C883   O897    1.280   .     A
C883   C885    1.365   .     S
C885   C236    1.165   1_556 S
C886   C960    1.380   1_455 S
C887   C910    1.380   .     S
C888   C922    1.380   .     S
N889   Zn899   2.021   .     S
N890   Zn900   2.021   .     S
O891   Zn899   2.002   .     S
O892   Zn900   2.002   .     S
O893   Zn899   2.002   .     S
O894   Zn900   2.002   .     S
O895   Zn899   1.948   .     S
O896   Zn900   1.948   .     S
O897   Zn899   1.948   .     S
O898   Zn900   1.948   .     S
Br901  C922    1.941   .     S
Br902  C923    1.941   .     S
Br903  C924    1.941   .     S
Br904  C910    1.941   .     S
Br905  C913    1.923   .     S
Br906  C914    1.923   .     S
Br907  C915    1.923   .     S
Br908  C916    1.923   .     S
C909   O927    1.294   .     A
C909   O930    1.294   .     A
C909   C912    1.444   .     S
C910   C912    1.409   .     A
C911   C923    1.410   .     A
C911   C924    1.409   .     A
C911   C917    1.444   .     S
C912   C922    1.410   .     A
C913   N926    1.373   .     A
C914   N925    1.372   .     A
C914   C699    1.421   1_565 S
C915   N926    1.373   .     A
C916   N925    1.372   .     A
C916   C697    1.421   1_565 S
C917   O929    1.294   .     A
C917   O928    1.294   .     A
C918   C920    1.365   .     S
C918   O934    1.280   .     A
C918   O931    1.280   .     A
C919   O932    1.280   .     A
C919   O933    1.280   .     A
C919   C921    1.365   .     S
C921   C272    1.165   1_556 S
C923   C946    1.380   .     S
C924   C958    1.380   .     S
N925   Zn935   2.021   .     S
N926   Zn936   2.021   .     S
O927   Zn935   2.002   .     S
O928   Zn936   2.002   .     S
O929   Zn935   2.002   .     S
O930   Zn936   2.002   .     S
O931   Zn935   1.948   .     S
O932   Zn936   1.948   .     S
O933   Zn935   1.948   .     S
O934   Zn936   1.948   .     S
Br937  C958    1.941   .     S
Br938  C959    1.941   .     S
Br939  C960    1.941   .     S
Br940  C946    1.941   .     S
Br941  C949    1.923   .     S
Br942  C950    1.923   .     S
Br943  C951    1.923   .     S
Br944  C952    1.923   .     S
C945   O963    1.294   .     A
C945   O966    1.294   .     A
C945   C948    1.444   .     S
C946   C948    1.409   .     A
C947   C959    1.410   .     A
C947   C960    1.409   .     A
C947   C953    1.444   .     S
C948   C958    1.410   .     A
C949   N962    1.373   .     A
C950   N961    1.372   .     A
C950   C735    1.421   1_565 S
C951   N962    1.373   .     A
C952   N961    1.372   .     A
C952   C733    1.421   1_565 S
C953   O965    1.294   .     A
C953   O964    1.294   .     A
C954   C956    1.365   .     S
C954   O970    1.280   .     A
C954   O967    1.280   .     A
C955   O968    1.280   .     A
C955   O969    1.280   .     A
C955   C957    1.365   .     S
C957   C308    1.165   1_556 S
C959   C874    1.380   1_655 S
C960   C886    1.380   1_655 S
N961   Zn971   2.021   .     S
N962   Zn972   2.021   .     S
O963   Zn971   2.002   .     S
O964   Zn972   2.002   .     S
O965   Zn971   2.002   .     S
O966   Zn972   2.002   .     S
O967   Zn971   1.948   .     S
O968   Zn972   1.948   .     S
O969   Zn971   1.948   .     S
O970   Zn972   1.948   .     S
