data_str_m3_o1_o16_pcu_sym.236
_audit_creation_date              2020-01-03
_audit_creation_method            'Materials Studio'
_symmetry_space_group_name_H-M    'P1'
_symmetry_Int_Tables_number       1
_symmetry_cell_setting            triclinic
loop_
_symmetry_equiv_pos_as_xyz
  x,y,z
_cell_length_a                    29.5223
_cell_length_b                    32.1409
_cell_length_c                    26.0931
_cell_angle_alpha                 90.0263
_cell_angle_beta                  71.5558
_cell_angle_gamma                 89.9987
loop_
_atom_site_label
_atom_site_type_symbol
_atom_site_fract_x
_atom_site_fract_y
_atom_site_fract_z
_atom_site_U_iso_or_equiv
_atom_site_adp_type
_atom_site_occupancy
O1     O     0.12846   0.22775   0.25000   0.00000  Uiso   1.00
O2     O     0.20490   0.22774   0.25000   0.00000  Uiso   1.00
C3     C     0.16665   0.24671   0.25010   0.00000  Uiso   1.00
O4     O     0.10947   0.16666   0.32681   0.00000  Uiso   1.00
O5     O     0.18591   0.16665   0.32681   0.00000  Uiso   1.00
C6     C     0.14150   0.15898   0.35043   0.00000  Uiso   1.00
Zn7    Zn    0.11562   0.16667   0.25000   0.00000  Uiso   1.00
Zn8    Zn    0.21771   0.16666   0.25000   0.00000  Uiso   1.00
O9     O     0.12843   0.10559   0.24999   0.00000  Uiso   1.00
O10    O     0.20488   0.10558   0.24999   0.00000  Uiso   1.00
O11    O     0.14742   0.16668   0.17319   0.00000  Uiso   1.00
O12    O     0.22387   0.16667   0.17319   0.00000  Uiso   1.00
C13    C     0.16666   0.08662   0.24997   0.00000  Uiso   1.00
C14    C     0.19269   0.16626   0.14787   0.00000  Uiso   1.00
C15    C     0.26911   0.15653   0.00288   0.00000  Uiso   1.00
H16    H     0.28275   0.17399   0.07584   0.00000  Uiso   1.00
H17    H     0.28583   0.13315   0.40047   0.00000  Uiso   1.00
H18    H     0.30605   0.16061   0.47846   0.00000  Uiso   1.00
C19    C     0.20797   0.16050   0.08966   0.00000  Uiso   1.00
C20    C     0.08131   0.13095   0.43386   0.00000  Uiso   1.00
C21    C     0.06913   0.11774   0.48774   0.00000  Uiso   1.00
C22    C     0.10312   0.12116   0.01482   0.00000  Uiso   1.00
C23    C     0.15104   0.13136   0.48617   0.00000  Uiso   1.00
C24    C     0.16469   0.13320   0.42963   0.00000  Uiso   1.00
C25    C     0.18611   0.14007   0.01118   0.00000  Uiso   1.00
C26    C     0.23484   0.14363   0.47944   0.00000  Uiso   1.00
C27    C     0.24847   0.13423   0.42468   0.00000  Uiso   1.00
C28    C     0.21367   0.12787   0.40020   0.00000  Uiso   1.00
C29    C     0.17353   0.14885   0.06607   0.00000  Uiso   1.00
C30    C     0.25582   0.16459   0.05803   0.00000  Uiso   1.00
C31    C     0.12885   0.14089   0.40513   0.00000  Uiso   1.00
H32    H     0.13660   0.14788   0.09088   0.00000  Uiso   1.00
H33    H     0.05407   0.13257   0.41420   0.00000  Uiso   1.00
H34    H     0.09244   0.11295   0.05708   0.00000  Uiso   1.00
H35    H     0.22581   0.11869   0.35821   0.00000  Uiso   1.00
C36    C     0.20290   0.31204   0.26308   0.00000  Uiso   1.00
H37    H     0.23094   0.29578   0.27347   0.00000  Uiso   1.00
C38    C     0.20289   0.02134   0.26307   0.00000  Uiso   1.00
H39    H     0.23092   0.03763   0.27347   0.00000  Uiso   1.00
C40    C     0.16661   0.04249   0.25015   0.00000  Uiso   1.00
C41    C     0.13027   0.02131   0.23739   0.00000  Uiso   1.00
H42    H     0.10223   0.03757   0.22697   0.00000  Uiso   1.00
C43    C     0.13026   0.31202   0.23744   0.00000  Uiso   1.00
H44    H     0.10220   0.29575   0.22708   0.00000  Uiso   1.00
C45    C     0.16660   0.29086   0.25022   0.00000  Uiso   1.00
C46    C     0.31944   0.14291   0.21390   0.00000  Uiso   1.00
H47    H     0.30932   0.12392   0.18505   0.00000  Uiso   1.00
C48    C     0.03407   0.14291   0.21391   0.00000  Uiso   1.00
H49    H     0.06029   0.12390   0.18505   0.00000  Uiso   1.00
N50    N     0.04760   0.16668   0.25002   0.00000  Uiso   1.00
C51    C     0.01385   0.19033   0.28621   0.00000  Uiso   1.00
H52    H     0.02393   0.20924   0.31515   0.00000  Uiso   1.00
C53    C     0.29923   0.19034   0.28618   0.00000  Uiso   1.00
H54    H     0.27298   0.20927   0.31512   0.00000  Uiso   1.00
N55    N     0.28573   0.16665   0.25000   0.00000  Uiso   1.00
N56    N     0.02284   0.10038   0.01455   0.00000  Uiso   1.00
O57    O     0.00661   0.09834   0.06703   0.00000  Uiso   1.00
O58    O     0.33274   0.08168   0.48652   0.00000  Uiso   1.00
O59    O     0.46179   0.22775   0.25000   0.00000  Uiso   1.00
O60    O     0.53823   0.22774   0.25000   0.00000  Uiso   1.00
C61    C     0.49999   0.24671   0.25010   0.00000  Uiso   1.00
O62    O     0.44280   0.16666   0.32681   0.00000  Uiso   1.00
O63    O     0.51924   0.16665   0.32681   0.00000  Uiso   1.00
C64    C     0.47483   0.15898   0.35043   0.00000  Uiso   1.00
Zn65   Zn    0.44896   0.16667   0.25000   0.00000  Uiso   1.00
Zn66   Zn    0.55104   0.16666   0.25000   0.00000  Uiso   1.00
O67    O     0.46177   0.10559   0.24999   0.00000  Uiso   1.00
O68    O     0.53821   0.10558   0.24999   0.00000  Uiso   1.00
O69    O     0.48076   0.16668   0.17319   0.00000  Uiso   1.00
O70    O     0.55720   0.16667   0.17319   0.00000  Uiso   1.00
C71    C     0.49999   0.08662   0.24997   0.00000  Uiso   1.00
C72    C     0.52602   0.16626   0.14787   0.00000  Uiso   1.00
C73    C     0.60245   0.15653   0.00288   0.00000  Uiso   1.00
H74    H     0.61608   0.17399   0.07584   0.00000  Uiso   1.00
H75    H     0.61916   0.13315   0.40047   0.00000  Uiso   1.00
H76    H     0.63938   0.16061   0.47846   0.00000  Uiso   1.00
C77    C     0.54130   0.16050   0.08966   0.00000  Uiso   1.00
C78    C     0.41464   0.13095   0.43386   0.00000  Uiso   1.00
C79    C     0.40246   0.11774   0.48774   0.00000  Uiso   1.00
C80    C     0.43645   0.12116   0.01482   0.00000  Uiso   1.00
C81    C     0.48437   0.13136   0.48617   0.00000  Uiso   1.00
C82    C     0.49802   0.13320   0.42963   0.00000  Uiso   1.00
C83    C     0.51944   0.14007   0.01118   0.00000  Uiso   1.00
C84    C     0.56818   0.14363   0.47944   0.00000  Uiso   1.00
C85    C     0.58180   0.13423   0.42468   0.00000  Uiso   1.00
C86    C     0.54701   0.12787   0.40020   0.00000  Uiso   1.00
C87    C     0.50687   0.14885   0.06607   0.00000  Uiso   1.00
C88    C     0.58915   0.16459   0.05803   0.00000  Uiso   1.00
C89    C     0.46218   0.14089   0.40513   0.00000  Uiso   1.00
H90    H     0.46993   0.14788   0.09088   0.00000  Uiso   1.00
H91    H     0.38740   0.13257   0.41420   0.00000  Uiso   1.00
H92    H     0.42577   0.11295   0.05708   0.00000  Uiso   1.00
H93    H     0.55915   0.11869   0.35821   0.00000  Uiso   1.00
C94    C     0.53623   0.31204   0.26308   0.00000  Uiso   1.00
H95    H     0.56428   0.29578   0.27347   0.00000  Uiso   1.00
C96    C     0.53622   0.02134   0.26307   0.00000  Uiso   1.00
H97    H     0.56425   0.03763   0.27347   0.00000  Uiso   1.00
C98    C     0.49994   0.04249   0.25015   0.00000  Uiso   1.00
C99    C     0.46360   0.02131   0.23739   0.00000  Uiso   1.00
H100   H     0.43556   0.03757   0.22697   0.00000  Uiso   1.00
C101   C     0.46359   0.31202   0.23744   0.00000  Uiso   1.00
H102   H     0.43553   0.29575   0.22708   0.00000  Uiso   1.00
C103   C     0.49994   0.29086   0.25022   0.00000  Uiso   1.00
C104   C     0.65277   0.14291   0.21390   0.00000  Uiso   1.00
H105   H     0.64266   0.12392   0.18505   0.00000  Uiso   1.00
C106   C     0.36740   0.14291   0.21391   0.00000  Uiso   1.00
H107   H     0.39362   0.12390   0.18505   0.00000  Uiso   1.00
N108   N     0.38093   0.16668   0.25002   0.00000  Uiso   1.00
C109   C     0.34719   0.19033   0.28621   0.00000  Uiso   1.00
H110   H     0.35726   0.20924   0.31515   0.00000  Uiso   1.00
C111   C     0.63257   0.19034   0.28618   0.00000  Uiso   1.00
H112   H     0.60632   0.20927   0.31512   0.00000  Uiso   1.00
N113   N     0.61906   0.16665   0.25000   0.00000  Uiso   1.00
N114   N     0.35618   0.10038   0.01455   0.00000  Uiso   1.00
O115   O     0.33994   0.09834   0.06703   0.00000  Uiso   1.00
O116   O     0.66608   0.08168   0.48652   0.00000  Uiso   1.00
O117   O     0.79512   0.22775   0.25000   0.00000  Uiso   1.00
O118   O     0.87157   0.22774   0.25000   0.00000  Uiso   1.00
C119   C     0.83332   0.24671   0.25010   0.00000  Uiso   1.00
O120   O     0.77613   0.16666   0.32681   0.00000  Uiso   1.00
O121   O     0.85258   0.16665   0.32681   0.00000  Uiso   1.00
C122   C     0.80816   0.15898   0.35043   0.00000  Uiso   1.00
Zn123  Zn    0.78229   0.16667   0.25000   0.00000  Uiso   1.00
Zn124  Zn    0.88438   0.16666   0.25000   0.00000  Uiso   1.00
O125   O     0.79510   0.10559   0.24999   0.00000  Uiso   1.00
O126   O     0.87154   0.10558   0.24999   0.00000  Uiso   1.00
O127   O     0.81409   0.16668   0.17319   0.00000  Uiso   1.00
O128   O     0.89053   0.16667   0.17319   0.00000  Uiso   1.00
C129   C     0.83333   0.08662   0.24997   0.00000  Uiso   1.00
C130   C     0.85935   0.16626   0.14787   0.00000  Uiso   1.00
C131   C     0.93578   0.15653   0.00288   0.00000  Uiso   1.00
H132   H     0.94942   0.17399   0.07584   0.00000  Uiso   1.00
H133   H     0.95249   0.13315   0.40047   0.00000  Uiso   1.00
H134   H     0.97272   0.16061   0.47846   0.00000  Uiso   1.00
C135   C     0.87463   0.16050   0.08966   0.00000  Uiso   1.00
C136   C     0.74797   0.13095   0.43386   0.00000  Uiso   1.00
C137   C     0.73579   0.11774   0.48774   0.00000  Uiso   1.00
C138   C     0.76979   0.12116   0.01482   0.00000  Uiso   1.00
C139   C     0.81770   0.13136   0.48617   0.00000  Uiso   1.00
C140   C     0.83136   0.13320   0.42963   0.00000  Uiso   1.00
C141   C     0.85278   0.14007   0.01118   0.00000  Uiso   1.00
C142   C     0.90151   0.14363   0.47944   0.00000  Uiso   1.00
C143   C     0.91514   0.13423   0.42468   0.00000  Uiso   1.00
C144   C     0.88034   0.12787   0.40020   0.00000  Uiso   1.00
C145   C     0.84020   0.14885   0.06607   0.00000  Uiso   1.00
C146   C     0.92249   0.16459   0.05803   0.00000  Uiso   1.00
C147   C     0.79551   0.14089   0.40513   0.00000  Uiso   1.00
H148   H     0.80327   0.14788   0.09088   0.00000  Uiso   1.00
H149   H     0.72074   0.13257   0.41420   0.00000  Uiso   1.00
H150   H     0.75910   0.11295   0.05708   0.00000  Uiso   1.00
H151   H     0.89248   0.11869   0.35821   0.00000  Uiso   1.00
C152   C     0.86956   0.31204   0.26308   0.00000  Uiso   1.00
H153   H     0.89761   0.29578   0.27347   0.00000  Uiso   1.00
C154   C     0.86956   0.02134   0.26307   0.00000  Uiso   1.00
H155   H     0.89759   0.03763   0.27347   0.00000  Uiso   1.00
C156   C     0.83327   0.04249   0.25015   0.00000  Uiso   1.00
C157   C     0.79693   0.02131   0.23739   0.00000  Uiso   1.00
H158   H     0.76889   0.03757   0.22697   0.00000  Uiso   1.00
C159   C     0.79692   0.31202   0.23744   0.00000  Uiso   1.00
H160   H     0.76886   0.29575   0.22708   0.00000  Uiso   1.00
C161   C     0.83327   0.29086   0.25022   0.00000  Uiso   1.00
C162   C     0.98610   0.14291   0.21390   0.00000  Uiso   1.00
H163   H     0.97599   0.12392   0.18505   0.00000  Uiso   1.00
C164   C     0.70073   0.14291   0.21391   0.00000  Uiso   1.00
H165   H     0.72696   0.12390   0.18505   0.00000  Uiso   1.00
N166   N     0.71426   0.16668   0.25002   0.00000  Uiso   1.00
C167   C     0.68052   0.19033   0.28621   0.00000  Uiso   1.00
H168   H     0.69060   0.20924   0.31515   0.00000  Uiso   1.00
C169   C     0.96590   0.19034   0.28618   0.00000  Uiso   1.00
H170   H     0.93965   0.20927   0.31512   0.00000  Uiso   1.00
N171   N     0.95239   0.16665   0.25000   0.00000  Uiso   1.00
N172   N     0.68951   0.10038   0.01455   0.00000  Uiso   1.00
O173   O     0.67328   0.09834   0.06703   0.00000  Uiso   1.00
O174   O     0.99941   0.08168   0.48652   0.00000  Uiso   1.00
O175   O     0.12846   0.56108   0.25000   0.00000  Uiso   1.00
O176   O     0.20490   0.56107   0.25000   0.00000  Uiso   1.00
C177   C     0.16665   0.58004   0.25010   0.00000  Uiso   1.00
O178   O     0.10947   0.50000   0.32681   0.00000  Uiso   1.00
O179   O     0.18591   0.49999   0.32681   0.00000  Uiso   1.00
C180   C     0.14150   0.49231   0.35043   0.00000  Uiso   1.00
Zn181  Zn    0.11562   0.50001   0.25000   0.00000  Uiso   1.00
Zn182  Zn    0.21771   0.49999   0.25000   0.00000  Uiso   1.00
O183   O     0.12843   0.43893   0.24999   0.00000  Uiso   1.00
O184   O     0.20488   0.43892   0.24999   0.00000  Uiso   1.00
O185   O     0.14742   0.50001   0.17319   0.00000  Uiso   1.00
O186   O     0.22387   0.50000   0.17319   0.00000  Uiso   1.00
C187   C     0.16666   0.41996   0.24997   0.00000  Uiso   1.00
C188   C     0.19269   0.49959   0.14787   0.00000  Uiso   1.00
C189   C     0.26911   0.48987   0.00288   0.00000  Uiso   1.00
H190   H     0.28275   0.50732   0.07584   0.00000  Uiso   1.00
H191   H     0.28583   0.46648   0.40047   0.00000  Uiso   1.00
H192   H     0.30605   0.49394   0.47846   0.00000  Uiso   1.00
C193   C     0.20797   0.49384   0.08966   0.00000  Uiso   1.00
C194   C     0.08131   0.46428   0.43386   0.00000  Uiso   1.00
C195   C     0.06913   0.45107   0.48774   0.00000  Uiso   1.00
C196   C     0.10312   0.45450   0.01482   0.00000  Uiso   1.00
C197   C     0.15104   0.46470   0.48617   0.00000  Uiso   1.00
C198   C     0.16469   0.46653   0.42963   0.00000  Uiso   1.00
C199   C     0.18611   0.47340   0.01118   0.00000  Uiso   1.00
C200   C     0.23484   0.47696   0.47944   0.00000  Uiso   1.00
C201   C     0.24847   0.46757   0.42468   0.00000  Uiso   1.00
C202   C     0.21367   0.46121   0.40020   0.00000  Uiso   1.00
C203   C     0.17353   0.48218   0.06607   0.00000  Uiso   1.00
C204   C     0.25582   0.49792   0.05803   0.00000  Uiso   1.00
C205   C     0.12885   0.47423   0.40513   0.00000  Uiso   1.00
H206   H     0.13660   0.48121   0.09088   0.00000  Uiso   1.00
H207   H     0.05407   0.46590   0.41420   0.00000  Uiso   1.00
H208   H     0.09244   0.44628   0.05708   0.00000  Uiso   1.00
H209   H     0.22581   0.45203   0.35821   0.00000  Uiso   1.00
C210   C     0.20290   0.64537   0.26308   0.00000  Uiso   1.00
H211   H     0.23094   0.62911   0.27347   0.00000  Uiso   1.00
C212   C     0.20289   0.35468   0.26307   0.00000  Uiso   1.00
H213   H     0.23092   0.37097   0.27347   0.00000  Uiso   1.00
C214   C     0.16661   0.37582   0.25015   0.00000  Uiso   1.00
C215   C     0.13027   0.35465   0.23739   0.00000  Uiso   1.00
H216   H     0.10223   0.37090   0.22697   0.00000  Uiso   1.00
C217   C     0.13026   0.64535   0.23744   0.00000  Uiso   1.00
H218   H     0.10220   0.62908   0.22708   0.00000  Uiso   1.00
C219   C     0.16660   0.62419   0.25022   0.00000  Uiso   1.00
C220   C     0.31944   0.47624   0.21390   0.00000  Uiso   1.00
H221   H     0.30932   0.45725   0.18505   0.00000  Uiso   1.00
C222   C     0.03407   0.47624   0.21391   0.00000  Uiso   1.00
H223   H     0.06029   0.45723   0.18505   0.00000  Uiso   1.00
N224   N     0.04760   0.50001   0.25002   0.00000  Uiso   1.00
C225   C     0.01385   0.52366   0.28621   0.00000  Uiso   1.00
H226   H     0.02393   0.54258   0.31515   0.00000  Uiso   1.00
C227   C     0.29923   0.52367   0.28618   0.00000  Uiso   1.00
H228   H     0.27298   0.54260   0.31512   0.00000  Uiso   1.00
N229   N     0.28573   0.49998   0.25000   0.00000  Uiso   1.00
N230   N     0.02284   0.43371   0.01455   0.00000  Uiso   1.00
O231   O     0.00661   0.43167   0.06703   0.00000  Uiso   1.00
O232   O     0.33274   0.41501   0.48652   0.00000  Uiso   1.00
O233   O     0.46179   0.56108   0.25000   0.00000  Uiso   1.00
O234   O     0.53823   0.56107   0.25000   0.00000  Uiso   1.00
C235   C     0.49999   0.58004   0.25010   0.00000  Uiso   1.00
O236   O     0.44280   0.50000   0.32681   0.00000  Uiso   1.00
O237   O     0.51924   0.49999   0.32681   0.00000  Uiso   1.00
C238   C     0.47483   0.49231   0.35043   0.00000  Uiso   1.00
Zn239  Zn    0.44896   0.50001   0.25000   0.00000  Uiso   1.00
Zn240  Zn    0.55104   0.49999   0.25000   0.00000  Uiso   1.00
O241   O     0.46177   0.43893   0.24999   0.00000  Uiso   1.00
O242   O     0.53821   0.43892   0.24999   0.00000  Uiso   1.00
O243   O     0.48076   0.50001   0.17319   0.00000  Uiso   1.00
O244   O     0.55720   0.50000   0.17319   0.00000  Uiso   1.00
C245   C     0.49999   0.41996   0.24997   0.00000  Uiso   1.00
C246   C     0.52602   0.49959   0.14787   0.00000  Uiso   1.00
C247   C     0.60245   0.48987   0.00288   0.00000  Uiso   1.00
H248   H     0.61608   0.50732   0.07584   0.00000  Uiso   1.00
H249   H     0.61916   0.46648   0.40047   0.00000  Uiso   1.00
H250   H     0.63938   0.49394   0.47846   0.00000  Uiso   1.00
C251   C     0.54130   0.49384   0.08966   0.00000  Uiso   1.00
C252   C     0.41464   0.46428   0.43386   0.00000  Uiso   1.00
C253   C     0.40246   0.45107   0.48774   0.00000  Uiso   1.00
C254   C     0.43645   0.45450   0.01482   0.00000  Uiso   1.00
C255   C     0.48437   0.46470   0.48617   0.00000  Uiso   1.00
C256   C     0.49802   0.46653   0.42963   0.00000  Uiso   1.00
C257   C     0.51944   0.47340   0.01118   0.00000  Uiso   1.00
C258   C     0.56818   0.47696   0.47944   0.00000  Uiso   1.00
C259   C     0.58180   0.46757   0.42468   0.00000  Uiso   1.00
C260   C     0.54701   0.46121   0.40020   0.00000  Uiso   1.00
C261   C     0.50687   0.48218   0.06607   0.00000  Uiso   1.00
C262   C     0.58915   0.49792   0.05803   0.00000  Uiso   1.00
C263   C     0.46218   0.47423   0.40513   0.00000  Uiso   1.00
H264   H     0.46993   0.48121   0.09088   0.00000  Uiso   1.00
H265   H     0.38740   0.46590   0.41420   0.00000  Uiso   1.00
H266   H     0.42577   0.44628   0.05708   0.00000  Uiso   1.00
H267   H     0.55915   0.45203   0.35821   0.00000  Uiso   1.00
C268   C     0.53623   0.64537   0.26308   0.00000  Uiso   1.00
H269   H     0.56428   0.62911   0.27347   0.00000  Uiso   1.00
C270   C     0.53622   0.35468   0.26307   0.00000  Uiso   1.00
H271   H     0.56425   0.37097   0.27347   0.00000  Uiso   1.00
C272   C     0.49994   0.37582   0.25015   0.00000  Uiso   1.00
C273   C     0.46360   0.35465   0.23739   0.00000  Uiso   1.00
H274   H     0.43556   0.37090   0.22697   0.00000  Uiso   1.00
C275   C     0.46359   0.64535   0.23744   0.00000  Uiso   1.00
H276   H     0.43553   0.62908   0.22708   0.00000  Uiso   1.00
C277   C     0.49994   0.62419   0.25022   0.00000  Uiso   1.00
C278   C     0.65277   0.47624   0.21390   0.00000  Uiso   1.00
H279   H     0.64266   0.45725   0.18505   0.00000  Uiso   1.00
C280   C     0.36740   0.47624   0.21391   0.00000  Uiso   1.00
H281   H     0.39362   0.45723   0.18505   0.00000  Uiso   1.00
N282   N     0.38093   0.50001   0.25002   0.00000  Uiso   1.00
C283   C     0.34719   0.52366   0.28621   0.00000  Uiso   1.00
H284   H     0.35726   0.54258   0.31515   0.00000  Uiso   1.00
C285   C     0.63257   0.52367   0.28618   0.00000  Uiso   1.00
H286   H     0.60632   0.54260   0.31512   0.00000  Uiso   1.00
N287   N     0.61906   0.49998   0.25000   0.00000  Uiso   1.00
N288   N     0.35618   0.43371   0.01455   0.00000  Uiso   1.00
O289   O     0.33994   0.43167   0.06703   0.00000  Uiso   1.00
O290   O     0.66608   0.41501   0.48652   0.00000  Uiso   1.00
O291   O     0.79512   0.56108   0.25000   0.00000  Uiso   1.00
O292   O     0.87157   0.56107   0.25000   0.00000  Uiso   1.00
C293   C     0.83332   0.58004   0.25010   0.00000  Uiso   1.00
O294   O     0.77613   0.50000   0.32681   0.00000  Uiso   1.00
O295   O     0.85258   0.49999   0.32681   0.00000  Uiso   1.00
C296   C     0.80816   0.49231   0.35043   0.00000  Uiso   1.00
Zn297  Zn    0.78229   0.50001   0.25000   0.00000  Uiso   1.00
Zn298  Zn    0.88438   0.49999   0.25000   0.00000  Uiso   1.00
O299   O     0.79510   0.43893   0.24999   0.00000  Uiso   1.00
O300   O     0.87154   0.43892   0.24999   0.00000  Uiso   1.00
O301   O     0.81409   0.50001   0.17319   0.00000  Uiso   1.00
O302   O     0.89053   0.50000   0.17319   0.00000  Uiso   1.00
C303   C     0.83333   0.41996   0.24997   0.00000  Uiso   1.00
C304   C     0.85935   0.49959   0.14787   0.00000  Uiso   1.00
C305   C     0.93578   0.48987   0.00288   0.00000  Uiso   1.00
H306   H     0.94942   0.50732   0.07584   0.00000  Uiso   1.00
H307   H     0.95249   0.46648   0.40047   0.00000  Uiso   1.00
H308   H     0.97272   0.49394   0.47846   0.00000  Uiso   1.00
C309   C     0.87463   0.49384   0.08966   0.00000  Uiso   1.00
C310   C     0.74797   0.46428   0.43386   0.00000  Uiso   1.00
C311   C     0.73579   0.45107   0.48774   0.00000  Uiso   1.00
C312   C     0.76979   0.45450   0.01482   0.00000  Uiso   1.00
C313   C     0.81770   0.46470   0.48617   0.00000  Uiso   1.00
C314   C     0.83136   0.46653   0.42963   0.00000  Uiso   1.00
C315   C     0.85278   0.47340   0.01118   0.00000  Uiso   1.00
C316   C     0.90151   0.47696   0.47944   0.00000  Uiso   1.00
C317   C     0.91514   0.46757   0.42468   0.00000  Uiso   1.00
C318   C     0.88034   0.46121   0.40020   0.00000  Uiso   1.00
C319   C     0.84020   0.48218   0.06607   0.00000  Uiso   1.00
C320   C     0.92249   0.49792   0.05803   0.00000  Uiso   1.00
C321   C     0.79551   0.47423   0.40513   0.00000  Uiso   1.00
H322   H     0.80327   0.48121   0.09088   0.00000  Uiso   1.00
H323   H     0.72074   0.46590   0.41420   0.00000  Uiso   1.00
H324   H     0.75910   0.44628   0.05708   0.00000  Uiso   1.00
H325   H     0.89248   0.45203   0.35821   0.00000  Uiso   1.00
C326   C     0.86956   0.64537   0.26308   0.00000  Uiso   1.00
H327   H     0.89761   0.62911   0.27347   0.00000  Uiso   1.00
C328   C     0.86956   0.35468   0.26307   0.00000  Uiso   1.00
H329   H     0.89759   0.37097   0.27347   0.00000  Uiso   1.00
C330   C     0.83327   0.37582   0.25015   0.00000  Uiso   1.00
C331   C     0.79693   0.35465   0.23739   0.00000  Uiso   1.00
H332   H     0.76889   0.37090   0.22697   0.00000  Uiso   1.00
C333   C     0.79692   0.64535   0.23744   0.00000  Uiso   1.00
H334   H     0.76886   0.62908   0.22708   0.00000  Uiso   1.00
C335   C     0.83327   0.62419   0.25022   0.00000  Uiso   1.00
C336   C     0.98610   0.47624   0.21390   0.00000  Uiso   1.00
H337   H     0.97599   0.45725   0.18505   0.00000  Uiso   1.00
C338   C     0.70073   0.47624   0.21391   0.00000  Uiso   1.00
H339   H     0.72696   0.45723   0.18505   0.00000  Uiso   1.00
N340   N     0.71426   0.50001   0.25002   0.00000  Uiso   1.00
C341   C     0.68052   0.52366   0.28621   0.00000  Uiso   1.00
H342   H     0.69060   0.54258   0.31515   0.00000  Uiso   1.00
C343   C     0.96590   0.52367   0.28618   0.00000  Uiso   1.00
H344   H     0.93965   0.54260   0.31512   0.00000  Uiso   1.00
N345   N     0.95239   0.49998   0.25000   0.00000  Uiso   1.00
N346   N     0.68951   0.43371   0.01455   0.00000  Uiso   1.00
O347   O     0.67328   0.43167   0.06703   0.00000  Uiso   1.00
O348   O     0.99941   0.41501   0.48652   0.00000  Uiso   1.00
O349   O     0.12846   0.89442   0.25000   0.00000  Uiso   1.00
O350   O     0.20490   0.89441   0.25000   0.00000  Uiso   1.00
C351   C     0.16665   0.91338   0.25010   0.00000  Uiso   1.00
O352   O     0.10947   0.83333   0.32681   0.00000  Uiso   1.00
O353   O     0.18591   0.83332   0.32681   0.00000  Uiso   1.00
C354   C     0.14150   0.82565   0.35043   0.00000  Uiso   1.00
Zn355  Zn    0.11562   0.83334   0.25000   0.00000  Uiso   1.00
Zn356  Zn    0.21771   0.83333   0.25000   0.00000  Uiso   1.00
O357   O     0.12843   0.77226   0.24999   0.00000  Uiso   1.00
O358   O     0.20488   0.77225   0.24999   0.00000  Uiso   1.00
O359   O     0.14742   0.83335   0.17319   0.00000  Uiso   1.00
O360   O     0.22387   0.83334   0.17319   0.00000  Uiso   1.00
C361   C     0.16666   0.75329   0.24997   0.00000  Uiso   1.00
C362   C     0.19269   0.83292   0.14787   0.00000  Uiso   1.00
C363   C     0.26911   0.82320   0.00288   0.00000  Uiso   1.00
H364   H     0.28275   0.84066   0.07584   0.00000  Uiso   1.00
H365   H     0.28583   0.79982   0.40047   0.00000  Uiso   1.00
H366   H     0.30605   0.82728   0.47846   0.00000  Uiso   1.00
C367   C     0.20797   0.82717   0.08966   0.00000  Uiso   1.00
C368   C     0.08131   0.79761   0.43386   0.00000  Uiso   1.00
C369   C     0.06913   0.78440   0.48774   0.00000  Uiso   1.00
C370   C     0.10312   0.78783   0.01482   0.00000  Uiso   1.00
C371   C     0.15104   0.79803   0.48617   0.00000  Uiso   1.00
C372   C     0.16469   0.79987   0.42963   0.00000  Uiso   1.00
C373   C     0.18611   0.80673   0.01118   0.00000  Uiso   1.00
C374   C     0.23484   0.81029   0.47944   0.00000  Uiso   1.00
C375   C     0.24847   0.80090   0.42468   0.00000  Uiso   1.00
C376   C     0.21367   0.79454   0.40020   0.00000  Uiso   1.00
C377   C     0.17353   0.81552   0.06607   0.00000  Uiso   1.00
C378   C     0.25582   0.83125   0.05803   0.00000  Uiso   1.00
C379   C     0.12885   0.80756   0.40513   0.00000  Uiso   1.00
H380   H     0.13660   0.81454   0.09088   0.00000  Uiso   1.00
H381   H     0.05407   0.79923   0.41420   0.00000  Uiso   1.00
H382   H     0.09244   0.77962   0.05708   0.00000  Uiso   1.00
H383   H     0.22581   0.78536   0.35821   0.00000  Uiso   1.00
C384   C     0.20290   0.97871   0.26308   0.00000  Uiso   1.00
H385   H     0.23094   0.96245   0.27347   0.00000  Uiso   1.00
C386   C     0.20289   0.68801   0.26307   0.00000  Uiso   1.00
H387   H     0.23092   0.70430   0.27347   0.00000  Uiso   1.00
C388   C     0.16661   0.70916   0.25015   0.00000  Uiso   1.00
C389   C     0.13027   0.68798   0.23739   0.00000  Uiso   1.00
H390   H     0.10223   0.70423   0.22697   0.00000  Uiso   1.00
C391   C     0.13026   0.97868   0.23744   0.00000  Uiso   1.00
H392   H     0.10220   0.96241   0.22708   0.00000  Uiso   1.00
C393   C     0.16660   0.95753   0.25022   0.00000  Uiso   1.00
C394   C     0.31944   0.80957   0.21390   0.00000  Uiso   1.00
H395   H     0.30932   0.79059   0.18505   0.00000  Uiso   1.00
C396   C     0.03407   0.80958   0.21391   0.00000  Uiso   1.00
H397   H     0.06029   0.79056   0.18505   0.00000  Uiso   1.00
N398   N     0.04760   0.83334   0.25002   0.00000  Uiso   1.00
C399   C     0.01385   0.85700   0.28621   0.00000  Uiso   1.00
H400   H     0.02393   0.87591   0.31515   0.00000  Uiso   1.00
C401   C     0.29923   0.85700   0.28618   0.00000  Uiso   1.00
H402   H     0.27298   0.87593   0.31512   0.00000  Uiso   1.00
N403   N     0.28573   0.83331   0.25000   0.00000  Uiso   1.00
N404   N     0.02284   0.76704   0.01455   0.00000  Uiso   1.00
O405   O     0.00661   0.76500   0.06703   0.00000  Uiso   1.00
O406   O     0.33274   0.74835   0.48652   0.00000  Uiso   1.00
O407   O     0.46179   0.89442   0.25000   0.00000  Uiso   1.00
O408   O     0.53823   0.89441   0.25000   0.00000  Uiso   1.00
C409   C     0.49999   0.91338   0.25010   0.00000  Uiso   1.00
O410   O     0.44280   0.83333   0.32681   0.00000  Uiso   1.00
O411   O     0.51924   0.83332   0.32681   0.00000  Uiso   1.00
C412   C     0.47483   0.82565   0.35043   0.00000  Uiso   1.00
Zn413  Zn    0.44896   0.83334   0.25000   0.00000  Uiso   1.00
Zn414  Zn    0.55104   0.83333   0.25000   0.00000  Uiso   1.00
O415   O     0.46177   0.77226   0.24999   0.00000  Uiso   1.00
O416   O     0.53821   0.77225   0.24999   0.00000  Uiso   1.00
O417   O     0.48076   0.83335   0.17319   0.00000  Uiso   1.00
O418   O     0.55720   0.83334   0.17319   0.00000  Uiso   1.00
C419   C     0.49999   0.75329   0.24997   0.00000  Uiso   1.00
C420   C     0.52602   0.83292   0.14787   0.00000  Uiso   1.00
C421   C     0.60245   0.82320   0.00288   0.00000  Uiso   1.00
H422   H     0.61608   0.84066   0.07584   0.00000  Uiso   1.00
H423   H     0.61916   0.79982   0.40047   0.00000  Uiso   1.00
H424   H     0.63938   0.82728   0.47846   0.00000  Uiso   1.00
C425   C     0.54130   0.82717   0.08966   0.00000  Uiso   1.00
C426   C     0.41464   0.79761   0.43386   0.00000  Uiso   1.00
C427   C     0.40246   0.78440   0.48774   0.00000  Uiso   1.00
C428   C     0.43645   0.78783   0.01482   0.00000  Uiso   1.00
C429   C     0.48437   0.79803   0.48617   0.00000  Uiso   1.00
C430   C     0.49802   0.79987   0.42963   0.00000  Uiso   1.00
C431   C     0.51944   0.80673   0.01118   0.00000  Uiso   1.00
C432   C     0.56818   0.81029   0.47944   0.00000  Uiso   1.00
C433   C     0.58180   0.80090   0.42468   0.00000  Uiso   1.00
C434   C     0.54701   0.79454   0.40020   0.00000  Uiso   1.00
C435   C     0.50687   0.81552   0.06607   0.00000  Uiso   1.00
C436   C     0.58915   0.83125   0.05803   0.00000  Uiso   1.00
C437   C     0.46218   0.80756   0.40513   0.00000  Uiso   1.00
H438   H     0.46993   0.81454   0.09088   0.00000  Uiso   1.00
H439   H     0.38740   0.79923   0.41420   0.00000  Uiso   1.00
H440   H     0.42577   0.77962   0.05708   0.00000  Uiso   1.00
H441   H     0.55915   0.78536   0.35821   0.00000  Uiso   1.00
C442   C     0.53623   0.97871   0.26308   0.00000  Uiso   1.00
H443   H     0.56428   0.96245   0.27347   0.00000  Uiso   1.00
C444   C     0.53622   0.68801   0.26307   0.00000  Uiso   1.00
H445   H     0.56425   0.70430   0.27347   0.00000  Uiso   1.00
C446   C     0.49994   0.70916   0.25015   0.00000  Uiso   1.00
C447   C     0.46360   0.68798   0.23739   0.00000  Uiso   1.00
H448   H     0.43556   0.70423   0.22697   0.00000  Uiso   1.00
C449   C     0.46359   0.97868   0.23744   0.00000  Uiso   1.00
H450   H     0.43553   0.96241   0.22708   0.00000  Uiso   1.00
C451   C     0.49994   0.95753   0.25022   0.00000  Uiso   1.00
C452   C     0.65277   0.80957   0.21390   0.00000  Uiso   1.00
H453   H     0.64266   0.79059   0.18505   0.00000  Uiso   1.00
C454   C     0.36740   0.80958   0.21391   0.00000  Uiso   1.00
H455   H     0.39362   0.79056   0.18505   0.00000  Uiso   1.00
N456   N     0.38093   0.83334   0.25002   0.00000  Uiso   1.00
C457   C     0.34719   0.85700   0.28621   0.00000  Uiso   1.00
H458   H     0.35726   0.87591   0.31515   0.00000  Uiso   1.00
C459   C     0.63257   0.85700   0.28618   0.00000  Uiso   1.00
H460   H     0.60632   0.87593   0.31512   0.00000  Uiso   1.00
N461   N     0.61906   0.83331   0.25000   0.00000  Uiso   1.00
N462   N     0.35618   0.76704   0.01455   0.00000  Uiso   1.00
O463   O     0.33994   0.76500   0.06703   0.00000  Uiso   1.00
O464   O     0.66608   0.74835   0.48652   0.00000  Uiso   1.00
O465   O     0.79512   0.89442   0.25000   0.00000  Uiso   1.00
O466   O     0.87157   0.89441   0.25000   0.00000  Uiso   1.00
C467   C     0.83332   0.91338   0.25010   0.00000  Uiso   1.00
O468   O     0.77613   0.83333   0.32681   0.00000  Uiso   1.00
O469   O     0.85258   0.83332   0.32681   0.00000  Uiso   1.00
C470   C     0.80816   0.82565   0.35043   0.00000  Uiso   1.00
Zn471  Zn    0.78229   0.83334   0.25000   0.00000  Uiso   1.00
Zn472  Zn    0.88438   0.83333   0.25000   0.00000  Uiso   1.00
O473   O     0.79510   0.77226   0.24999   0.00000  Uiso   1.00
O474   O     0.87154   0.77225   0.24999   0.00000  Uiso   1.00
O475   O     0.81409   0.83335   0.17319   0.00000  Uiso   1.00
O476   O     0.89053   0.83334   0.17319   0.00000  Uiso   1.00
C477   C     0.83333   0.75329   0.24997   0.00000  Uiso   1.00
C478   C     0.85935   0.83292   0.14787   0.00000  Uiso   1.00
C479   C     0.93578   0.82320   0.00288   0.00000  Uiso   1.00
H480   H     0.94942   0.84066   0.07584   0.00000  Uiso   1.00
H481   H     0.95249   0.79982   0.40047   0.00000  Uiso   1.00
H482   H     0.97272   0.82728   0.47846   0.00000  Uiso   1.00
C483   C     0.87463   0.82717   0.08966   0.00000  Uiso   1.00
C484   C     0.74797   0.79761   0.43386   0.00000  Uiso   1.00
C485   C     0.73579   0.78440   0.48774   0.00000  Uiso   1.00
C486   C     0.76979   0.78783   0.01482   0.00000  Uiso   1.00
C487   C     0.81770   0.79803   0.48617   0.00000  Uiso   1.00
C488   C     0.83136   0.79987   0.42963   0.00000  Uiso   1.00
C489   C     0.85278   0.80673   0.01118   0.00000  Uiso   1.00
C490   C     0.90151   0.81029   0.47944   0.00000  Uiso   1.00
C491   C     0.91514   0.80090   0.42468   0.00000  Uiso   1.00
C492   C     0.88034   0.79454   0.40020   0.00000  Uiso   1.00
C493   C     0.84020   0.81552   0.06607   0.00000  Uiso   1.00
C494   C     0.92249   0.83125   0.05803   0.00000  Uiso   1.00
C495   C     0.79551   0.80756   0.40513   0.00000  Uiso   1.00
H496   H     0.80327   0.81454   0.09088   0.00000  Uiso   1.00
H497   H     0.72074   0.79923   0.41420   0.00000  Uiso   1.00
H498   H     0.75910   0.77962   0.05708   0.00000  Uiso   1.00
H499   H     0.89248   0.78536   0.35821   0.00000  Uiso   1.00
C500   C     0.86956   0.97871   0.26308   0.00000  Uiso   1.00
H501   H     0.89761   0.96245   0.27347   0.00000  Uiso   1.00
C502   C     0.86956   0.68801   0.26307   0.00000  Uiso   1.00
H503   H     0.89759   0.70430   0.27347   0.00000  Uiso   1.00
C504   C     0.83327   0.70916   0.25015   0.00000  Uiso   1.00
C505   C     0.79693   0.68798   0.23739   0.00000  Uiso   1.00
H506   H     0.76889   0.70423   0.22697   0.00000  Uiso   1.00
C507   C     0.79692   0.97868   0.23744   0.00000  Uiso   1.00
H508   H     0.76886   0.96241   0.22708   0.00000  Uiso   1.00
C509   C     0.83327   0.95753   0.25022   0.00000  Uiso   1.00
C510   C     0.98610   0.80957   0.21390   0.00000  Uiso   1.00
H511   H     0.97599   0.79059   0.18505   0.00000  Uiso   1.00
C512   C     0.70073   0.80958   0.21391   0.00000  Uiso   1.00
H513   H     0.72696   0.79056   0.18505   0.00000  Uiso   1.00
N514   N     0.71426   0.83334   0.25002   0.00000  Uiso   1.00
C515   C     0.68052   0.85700   0.28621   0.00000  Uiso   1.00
H516   H     0.69060   0.87591   0.31515   0.00000  Uiso   1.00
C517   C     0.96590   0.85700   0.28618   0.00000  Uiso   1.00
H518   H     0.93965   0.87593   0.31512   0.00000  Uiso   1.00
N519   N     0.95239   0.83331   0.25000   0.00000  Uiso   1.00
N520   N     0.68951   0.76704   0.01455   0.00000  Uiso   1.00
O521   O     0.67328   0.76500   0.06703   0.00000  Uiso   1.00
O522   O     0.99941   0.74835   0.48652   0.00000  Uiso   1.00
O523   O     0.12846   0.22775   0.75000   0.00000  Uiso   1.00
O524   O     0.20490   0.22774   0.75000   0.00000  Uiso   1.00
C525   C     0.16665   0.24671   0.75010   0.00000  Uiso   1.00
O526   O     0.10947   0.16666   0.82681   0.00000  Uiso   1.00
O527   O     0.18591   0.16665   0.82681   0.00000  Uiso   1.00
C528   C     0.14150   0.15898   0.85043   0.00000  Uiso   1.00
Zn529  Zn    0.11562   0.16667   0.75000   0.00000  Uiso   1.00
Zn530  Zn    0.21771   0.16666   0.75000   0.00000  Uiso   1.00
O531   O     0.12843   0.10559   0.74999   0.00000  Uiso   1.00
O532   O     0.20488   0.10558   0.74999   0.00000  Uiso   1.00
O533   O     0.14742   0.16668   0.67319   0.00000  Uiso   1.00
O534   O     0.22387   0.16667   0.67319   0.00000  Uiso   1.00
C535   C     0.16666   0.08662   0.74997   0.00000  Uiso   1.00
C536   C     0.19269   0.16626   0.64787   0.00000  Uiso   1.00
C537   C     0.26911   0.15653   0.50288   0.00000  Uiso   1.00
H538   H     0.28275   0.17399   0.57584   0.00000  Uiso   1.00
H539   H     0.28583   0.13315   0.90047   0.00000  Uiso   1.00
H540   H     0.30605   0.16061   0.97846   0.00000  Uiso   1.00
C541   C     0.20797   0.16050   0.58966   0.00000  Uiso   1.00
C542   C     0.08131   0.13095   0.93386   0.00000  Uiso   1.00
C543   C     0.06913   0.11774   0.98774   0.00000  Uiso   1.00
C544   C     0.10312   0.12116   0.51482   0.00000  Uiso   1.00
C545   C     0.15104   0.13136   0.98617   0.00000  Uiso   1.00
C546   C     0.16469   0.13320   0.92963   0.00000  Uiso   1.00
C547   C     0.18611   0.14007   0.51118   0.00000  Uiso   1.00
C548   C     0.23484   0.14363   0.97944   0.00000  Uiso   1.00
C549   C     0.24847   0.13423   0.92468   0.00000  Uiso   1.00
C550   C     0.21367   0.12787   0.90020   0.00000  Uiso   1.00
C551   C     0.17353   0.14885   0.56607   0.00000  Uiso   1.00
C552   C     0.25582   0.16459   0.55803   0.00000  Uiso   1.00
C553   C     0.12885   0.14089   0.90513   0.00000  Uiso   1.00
H554   H     0.13660   0.14788   0.59088   0.00000  Uiso   1.00
H555   H     0.05407   0.13257   0.91420   0.00000  Uiso   1.00
H556   H     0.09244   0.11295   0.55708   0.00000  Uiso   1.00
H557   H     0.22581   0.11869   0.85821   0.00000  Uiso   1.00
C558   C     0.20290   0.31204   0.76308   0.00000  Uiso   1.00
H559   H     0.23094   0.29578   0.77347   0.00000  Uiso   1.00
C560   C     0.20289   0.02134   0.76307   0.00000  Uiso   1.00
H561   H     0.23092   0.03763   0.77347   0.00000  Uiso   1.00
C562   C     0.16661   0.04249   0.75015   0.00000  Uiso   1.00
C563   C     0.13027   0.02131   0.73739   0.00000  Uiso   1.00
H564   H     0.10223   0.03757   0.72697   0.00000  Uiso   1.00
C565   C     0.13026   0.31202   0.73744   0.00000  Uiso   1.00
H566   H     0.10220   0.29575   0.72708   0.00000  Uiso   1.00
C567   C     0.16660   0.29086   0.75022   0.00000  Uiso   1.00
C568   C     0.31944   0.14291   0.71390   0.00000  Uiso   1.00
H569   H     0.30932   0.12392   0.68505   0.00000  Uiso   1.00
C570   C     0.03407   0.14291   0.71391   0.00000  Uiso   1.00
H571   H     0.06029   0.12390   0.68505   0.00000  Uiso   1.00
N572   N     0.04760   0.16668   0.75002   0.00000  Uiso   1.00
C573   C     0.01385   0.19033   0.78621   0.00000  Uiso   1.00
H574   H     0.02393   0.20924   0.81515   0.00000  Uiso   1.00
C575   C     0.29923   0.19034   0.78618   0.00000  Uiso   1.00
H576   H     0.27298   0.20927   0.81512   0.00000  Uiso   1.00
N577   N     0.28573   0.16665   0.75000   0.00000  Uiso   1.00
N578   N     0.02284   0.10038   0.51455   0.00000  Uiso   1.00
O579   O     0.00661   0.09834   0.56703   0.00000  Uiso   1.00
O580   O     0.33274   0.08168   0.98652   0.00000  Uiso   1.00
O581   O     0.46179   0.22775   0.75000   0.00000  Uiso   1.00
O582   O     0.53823   0.22774   0.75000   0.00000  Uiso   1.00
C583   C     0.49999   0.24671   0.75010   0.00000  Uiso   1.00
O584   O     0.44280   0.16666   0.82681   0.00000  Uiso   1.00
O585   O     0.51924   0.16665   0.82681   0.00000  Uiso   1.00
C586   C     0.47483   0.15898   0.85043   0.00000  Uiso   1.00
Zn587  Zn    0.44896   0.16667   0.75000   0.00000  Uiso   1.00
Zn588  Zn    0.55104   0.16666   0.75000   0.00000  Uiso   1.00
O589   O     0.46177   0.10559   0.74999   0.00000  Uiso   1.00
O590   O     0.53821   0.10558   0.74999   0.00000  Uiso   1.00
O591   O     0.48076   0.16668   0.67319   0.00000  Uiso   1.00
O592   O     0.55720   0.16667   0.67319   0.00000  Uiso   1.00
C593   C     0.49999   0.08662   0.74997   0.00000  Uiso   1.00
C594   C     0.52602   0.16626   0.64787   0.00000  Uiso   1.00
C595   C     0.60245   0.15653   0.50288   0.00000  Uiso   1.00
H596   H     0.61608   0.17399   0.57584   0.00000  Uiso   1.00
H597   H     0.61916   0.13315   0.90047   0.00000  Uiso   1.00
H598   H     0.63938   0.16061   0.97846   0.00000  Uiso   1.00
C599   C     0.54130   0.16050   0.58966   0.00000  Uiso   1.00
C600   C     0.41464   0.13095   0.93386   0.00000  Uiso   1.00
C601   C     0.40246   0.11774   0.98774   0.00000  Uiso   1.00
C602   C     0.43645   0.12116   0.51482   0.00000  Uiso   1.00
C603   C     0.48437   0.13136   0.98617   0.00000  Uiso   1.00
C604   C     0.49802   0.13320   0.92963   0.00000  Uiso   1.00
C605   C     0.51944   0.14007   0.51118   0.00000  Uiso   1.00
C606   C     0.56818   0.14363   0.97944   0.00000  Uiso   1.00
C607   C     0.58180   0.13423   0.92468   0.00000  Uiso   1.00
C608   C     0.54701   0.12787   0.90020   0.00000  Uiso   1.00
C609   C     0.50687   0.14885   0.56607   0.00000  Uiso   1.00
C610   C     0.58915   0.16459   0.55803   0.00000  Uiso   1.00
C611   C     0.46218   0.14089   0.90513   0.00000  Uiso   1.00
H612   H     0.46993   0.14788   0.59088   0.00000  Uiso   1.00
H613   H     0.38740   0.13257   0.91420   0.00000  Uiso   1.00
H614   H     0.42577   0.11295   0.55708   0.00000  Uiso   1.00
H615   H     0.55915   0.11869   0.85821   0.00000  Uiso   1.00
C616   C     0.53623   0.31204   0.76308   0.00000  Uiso   1.00
H617   H     0.56428   0.29578   0.77347   0.00000  Uiso   1.00
C618   C     0.53622   0.02134   0.76307   0.00000  Uiso   1.00
H619   H     0.56425   0.03763   0.77347   0.00000  Uiso   1.00
C620   C     0.49994   0.04249   0.75015   0.00000  Uiso   1.00
C621   C     0.46360   0.02131   0.73739   0.00000  Uiso   1.00
H622   H     0.43556   0.03757   0.72697   0.00000  Uiso   1.00
C623   C     0.46359   0.31202   0.73744   0.00000  Uiso   1.00
H624   H     0.43553   0.29575   0.72708   0.00000  Uiso   1.00
C625   C     0.49994   0.29086   0.75022   0.00000  Uiso   1.00
C626   C     0.65277   0.14291   0.71390   0.00000  Uiso   1.00
H627   H     0.64266   0.12392   0.68505   0.00000  Uiso   1.00
C628   C     0.36740   0.14291   0.71391   0.00000  Uiso   1.00
H629   H     0.39362   0.12390   0.68505   0.00000  Uiso   1.00
N630   N     0.38093   0.16668   0.75002   0.00000  Uiso   1.00
C631   C     0.34719   0.19033   0.78621   0.00000  Uiso   1.00
H632   H     0.35726   0.20924   0.81515   0.00000  Uiso   1.00
C633   C     0.63257   0.19034   0.78618   0.00000  Uiso   1.00
H634   H     0.60632   0.20927   0.81512   0.00000  Uiso   1.00
N635   N     0.61906   0.16665   0.75000   0.00000  Uiso   1.00
N636   N     0.35618   0.10038   0.51455   0.00000  Uiso   1.00
O637   O     0.33994   0.09834   0.56703   0.00000  Uiso   1.00
O638   O     0.66608   0.08168   0.98652   0.00000  Uiso   1.00
O639   O     0.79512   0.22775   0.75000   0.00000  Uiso   1.00
O640   O     0.87157   0.22774   0.75000   0.00000  Uiso   1.00
C641   C     0.83332   0.24671   0.75010   0.00000  Uiso   1.00
O642   O     0.77613   0.16666   0.82681   0.00000  Uiso   1.00
O643   O     0.85258   0.16665   0.82681   0.00000  Uiso   1.00
C644   C     0.80816   0.15898   0.85043   0.00000  Uiso   1.00
Zn645  Zn    0.78229   0.16667   0.75000   0.00000  Uiso   1.00
Zn646  Zn    0.88438   0.16666   0.75000   0.00000  Uiso   1.00
O647   O     0.79510   0.10559   0.74999   0.00000  Uiso   1.00
O648   O     0.87154   0.10558   0.74999   0.00000  Uiso   1.00
O649   O     0.81409   0.16668   0.67319   0.00000  Uiso   1.00
O650   O     0.89053   0.16667   0.67319   0.00000  Uiso   1.00
C651   C     0.83333   0.08662   0.74997   0.00000  Uiso   1.00
C652   C     0.85935   0.16626   0.64787   0.00000  Uiso   1.00
C653   C     0.93578   0.15653   0.50288   0.00000  Uiso   1.00
H654   H     0.94942   0.17399   0.57584   0.00000  Uiso   1.00
H655   H     0.95249   0.13315   0.90047   0.00000  Uiso   1.00
H656   H     0.97272   0.16061   0.97846   0.00000  Uiso   1.00
C657   C     0.87463   0.16050   0.58966   0.00000  Uiso   1.00
C658   C     0.74797   0.13095   0.93386   0.00000  Uiso   1.00
C659   C     0.73579   0.11774   0.98774   0.00000  Uiso   1.00
C660   C     0.76979   0.12116   0.51482   0.00000  Uiso   1.00
C661   C     0.81770   0.13136   0.98617   0.00000  Uiso   1.00
C662   C     0.83136   0.13320   0.92963   0.00000  Uiso   1.00
C663   C     0.85278   0.14007   0.51118   0.00000  Uiso   1.00
C664   C     0.90151   0.14363   0.97944   0.00000  Uiso   1.00
C665   C     0.91514   0.13423   0.92468   0.00000  Uiso   1.00
C666   C     0.88034   0.12787   0.90020   0.00000  Uiso   1.00
C667   C     0.84020   0.14885   0.56607   0.00000  Uiso   1.00
C668   C     0.92249   0.16459   0.55803   0.00000  Uiso   1.00
C669   C     0.79551   0.14089   0.90513   0.00000  Uiso   1.00
H670   H     0.80327   0.14788   0.59088   0.00000  Uiso   1.00
H671   H     0.72074   0.13257   0.91420   0.00000  Uiso   1.00
H672   H     0.75910   0.11295   0.55708   0.00000  Uiso   1.00
H673   H     0.89248   0.11869   0.85821   0.00000  Uiso   1.00
C674   C     0.86956   0.31204   0.76308   0.00000  Uiso   1.00
H675   H     0.89761   0.29578   0.77347   0.00000  Uiso   1.00
C676   C     0.86956   0.02134   0.76307   0.00000  Uiso   1.00
H677   H     0.89759   0.03763   0.77347   0.00000  Uiso   1.00
C678   C     0.83327   0.04249   0.75015   0.00000  Uiso   1.00
C679   C     0.79693   0.02131   0.73739   0.00000  Uiso   1.00
H680   H     0.76889   0.03757   0.72697   0.00000  Uiso   1.00
C681   C     0.79692   0.31202   0.73744   0.00000  Uiso   1.00
H682   H     0.76886   0.29575   0.72708   0.00000  Uiso   1.00
C683   C     0.83327   0.29086   0.75022   0.00000  Uiso   1.00
C684   C     0.98610   0.14291   0.71390   0.00000  Uiso   1.00
H685   H     0.97599   0.12392   0.68505   0.00000  Uiso   1.00
C686   C     0.70073   0.14291   0.71391   0.00000  Uiso   1.00
H687   H     0.72696   0.12390   0.68505   0.00000  Uiso   1.00
N688   N     0.71426   0.16668   0.75002   0.00000  Uiso   1.00
C689   C     0.68052   0.19033   0.78621   0.00000  Uiso   1.00
H690   H     0.69060   0.20924   0.81515   0.00000  Uiso   1.00
C691   C     0.96590   0.19034   0.78618   0.00000  Uiso   1.00
H692   H     0.93965   0.20927   0.81512   0.00000  Uiso   1.00
N693   N     0.95239   0.16665   0.75000   0.00000  Uiso   1.00
N694   N     0.68951   0.10038   0.51455   0.00000  Uiso   1.00
O695   O     0.67328   0.09834   0.56703   0.00000  Uiso   1.00
O696   O     0.99941   0.08168   0.98652   0.00000  Uiso   1.00
O697   O     0.12846   0.56108   0.75000   0.00000  Uiso   1.00
O698   O     0.20490   0.56107   0.75000   0.00000  Uiso   1.00
C699   C     0.16665   0.58004   0.75010   0.00000  Uiso   1.00
O700   O     0.10947   0.50000   0.82681   0.00000  Uiso   1.00
O701   O     0.18591   0.49999   0.82681   0.00000  Uiso   1.00
C702   C     0.14150   0.49231   0.85043   0.00000  Uiso   1.00
Zn703  Zn    0.11562   0.50001   0.75000   0.00000  Uiso   1.00
Zn704  Zn    0.21771   0.49999   0.75000   0.00000  Uiso   1.00
O705   O     0.12843   0.43893   0.74999   0.00000  Uiso   1.00
O706   O     0.20488   0.43892   0.74999   0.00000  Uiso   1.00
O707   O     0.14742   0.50001   0.67319   0.00000  Uiso   1.00
O708   O     0.22387   0.50000   0.67319   0.00000  Uiso   1.00
C709   C     0.16666   0.41996   0.74997   0.00000  Uiso   1.00
C710   C     0.19269   0.49959   0.64787   0.00000  Uiso   1.00
C711   C     0.26911   0.48987   0.50288   0.00000  Uiso   1.00
H712   H     0.28275   0.50732   0.57584   0.00000  Uiso   1.00
H713   H     0.28583   0.46648   0.90047   0.00000  Uiso   1.00
H714   H     0.30605   0.49394   0.97846   0.00000  Uiso   1.00
C715   C     0.20797   0.49384   0.58966   0.00000  Uiso   1.00
C716   C     0.08131   0.46428   0.93386   0.00000  Uiso   1.00
C717   C     0.06913   0.45107   0.98774   0.00000  Uiso   1.00
C718   C     0.10312   0.45450   0.51482   0.00000  Uiso   1.00
C719   C     0.15104   0.46470   0.98617   0.00000  Uiso   1.00
C720   C     0.16469   0.46653   0.92963   0.00000  Uiso   1.00
C721   C     0.18611   0.47340   0.51118   0.00000  Uiso   1.00
C722   C     0.23484   0.47696   0.97944   0.00000  Uiso   1.00
C723   C     0.24847   0.46757   0.92468   0.00000  Uiso   1.00
C724   C     0.21367   0.46121   0.90020   0.00000  Uiso   1.00
C725   C     0.17353   0.48218   0.56607   0.00000  Uiso   1.00
C726   C     0.25582   0.49792   0.55803   0.00000  Uiso   1.00
C727   C     0.12885   0.47423   0.90513   0.00000  Uiso   1.00
H728   H     0.13660   0.48121   0.59088   0.00000  Uiso   1.00
H729   H     0.05407   0.46590   0.91420   0.00000  Uiso   1.00
H730   H     0.09244   0.44628   0.55708   0.00000  Uiso   1.00
H731   H     0.22581   0.45203   0.85821   0.00000  Uiso   1.00
C732   C     0.20290   0.64537   0.76308   0.00000  Uiso   1.00
H733   H     0.23094   0.62911   0.77347   0.00000  Uiso   1.00
C734   C     0.20289   0.35468   0.76307   0.00000  Uiso   1.00
H735   H     0.23092   0.37097   0.77347   0.00000  Uiso   1.00
C736   C     0.16661   0.37582   0.75015   0.00000  Uiso   1.00
C737   C     0.13027   0.35465   0.73739   0.00000  Uiso   1.00
H738   H     0.10223   0.37090   0.72697   0.00000  Uiso   1.00
C739   C     0.13026   0.64535   0.73744   0.00000  Uiso   1.00
H740   H     0.10220   0.62908   0.72708   0.00000  Uiso   1.00
C741   C     0.16660   0.62419   0.75022   0.00000  Uiso   1.00
C742   C     0.31944   0.47624   0.71390   0.00000  Uiso   1.00
H743   H     0.30932   0.45725   0.68505   0.00000  Uiso   1.00
C744   C     0.03407   0.47624   0.71391   0.00000  Uiso   1.00
H745   H     0.06029   0.45723   0.68505   0.00000  Uiso   1.00
N746   N     0.04760   0.50001   0.75002   0.00000  Uiso   1.00
C747   C     0.01385   0.52366   0.78621   0.00000  Uiso   1.00
H748   H     0.02393   0.54258   0.81515   0.00000  Uiso   1.00
C749   C     0.29923   0.52367   0.78618   0.00000  Uiso   1.00
H750   H     0.27298   0.54260   0.81512   0.00000  Uiso   1.00
N751   N     0.28573   0.49998   0.75000   0.00000  Uiso   1.00
N752   N     0.02284   0.43371   0.51455   0.00000  Uiso   1.00
O753   O     0.00661   0.43167   0.56703   0.00000  Uiso   1.00
O754   O     0.33274   0.41501   0.98652   0.00000  Uiso   1.00
O755   O     0.46179   0.56108   0.75000   0.00000  Uiso   1.00
O756   O     0.53823   0.56107   0.75000   0.00000  Uiso   1.00
C757   C     0.49999   0.58004   0.75010   0.00000  Uiso   1.00
O758   O     0.44280   0.50000   0.82681   0.00000  Uiso   1.00
O759   O     0.51924   0.49999   0.82681   0.00000  Uiso   1.00
C760   C     0.47483   0.49231   0.85043   0.00000  Uiso   1.00
Zn761  Zn    0.44896   0.50001   0.75000   0.00000  Uiso   1.00
Zn762  Zn    0.55104   0.49999   0.75000   0.00000  Uiso   1.00
O763   O     0.46177   0.43893   0.74999   0.00000  Uiso   1.00
O764   O     0.53821   0.43892   0.74999   0.00000  Uiso   1.00
O765   O     0.48076   0.50001   0.67319   0.00000  Uiso   1.00
O766   O     0.55720   0.50000   0.67319   0.00000  Uiso   1.00
C767   C     0.49999   0.41996   0.74997   0.00000  Uiso   1.00
C768   C     0.52602   0.49959   0.64787   0.00000  Uiso   1.00
C769   C     0.60245   0.48987   0.50288   0.00000  Uiso   1.00
H770   H     0.61608   0.50732   0.57584   0.00000  Uiso   1.00
H771   H     0.61916   0.46648   0.90047   0.00000  Uiso   1.00
H772   H     0.63938   0.49394   0.97846   0.00000  Uiso   1.00
C773   C     0.54130   0.49384   0.58966   0.00000  Uiso   1.00
C774   C     0.41464   0.46428   0.93386   0.00000  Uiso   1.00
C775   C     0.40246   0.45107   0.98774   0.00000  Uiso   1.00
C776   C     0.43645   0.45450   0.51482   0.00000  Uiso   1.00
C777   C     0.48437   0.46470   0.98617   0.00000  Uiso   1.00
C778   C     0.49802   0.46653   0.92963   0.00000  Uiso   1.00
C779   C     0.51944   0.47340   0.51118   0.00000  Uiso   1.00
C780   C     0.56818   0.47696   0.97944   0.00000  Uiso   1.00
C781   C     0.58180   0.46757   0.92468   0.00000  Uiso   1.00
C782   C     0.54701   0.46121   0.90020   0.00000  Uiso   1.00
C783   C     0.50687   0.48218   0.56607   0.00000  Uiso   1.00
C784   C     0.58915   0.49792   0.55803   0.00000  Uiso   1.00
C785   C     0.46218   0.47423   0.90513   0.00000  Uiso   1.00
H786   H     0.46993   0.48121   0.59088   0.00000  Uiso   1.00
H787   H     0.38740   0.46590   0.91420   0.00000  Uiso   1.00
H788   H     0.42577   0.44628   0.55708   0.00000  Uiso   1.00
H789   H     0.55915   0.45203   0.85821   0.00000  Uiso   1.00
C790   C     0.53623   0.64537   0.76308   0.00000  Uiso   1.00
H791   H     0.56428   0.62911   0.77347   0.00000  Uiso   1.00
C792   C     0.53622   0.35468   0.76307   0.00000  Uiso   1.00
H793   H     0.56425   0.37097   0.77347   0.00000  Uiso   1.00
C794   C     0.49994   0.37582   0.75015   0.00000  Uiso   1.00
C795   C     0.46360   0.35465   0.73739   0.00000  Uiso   1.00
H796   H     0.43556   0.37090   0.72697   0.00000  Uiso   1.00
C797   C     0.46359   0.64535   0.73744   0.00000  Uiso   1.00
H798   H     0.43553   0.62908   0.72708   0.00000  Uiso   1.00
C799   C     0.49994   0.62419   0.75022   0.00000  Uiso   1.00
C800   C     0.65277   0.47624   0.71390   0.00000  Uiso   1.00
H801   H     0.64266   0.45725   0.68505   0.00000  Uiso   1.00
C802   C     0.36740   0.47624   0.71391   0.00000  Uiso   1.00
H803   H     0.39362   0.45723   0.68505   0.00000  Uiso   1.00
N804   N     0.38093   0.50001   0.75002   0.00000  Uiso   1.00
C805   C     0.34719   0.52366   0.78621   0.00000  Uiso   1.00
H806   H     0.35726   0.54258   0.81515   0.00000  Uiso   1.00
C807   C     0.63257   0.52367   0.78618   0.00000  Uiso   1.00
H808   H     0.60632   0.54260   0.81512   0.00000  Uiso   1.00
N809   N     0.61906   0.49998   0.75000   0.00000  Uiso   1.00
N810   N     0.35618   0.43371   0.51455   0.00000  Uiso   1.00
O811   O     0.33994   0.43167   0.56703   0.00000  Uiso   1.00
O812   O     0.66608   0.41501   0.98652   0.00000  Uiso   1.00
O813   O     0.79512   0.56108   0.75000   0.00000  Uiso   1.00
O814   O     0.87157   0.56107   0.75000   0.00000  Uiso   1.00
C815   C     0.83332   0.58004   0.75010   0.00000  Uiso   1.00
O816   O     0.77613   0.50000   0.82681   0.00000  Uiso   1.00
O817   O     0.85258   0.49999   0.82681   0.00000  Uiso   1.00
C818   C     0.80816   0.49231   0.85043   0.00000  Uiso   1.00
Zn819  Zn    0.78229   0.50001   0.75000   0.00000  Uiso   1.00
Zn820  Zn    0.88438   0.49999   0.75000   0.00000  Uiso   1.00
O821   O     0.79510   0.43893   0.74999   0.00000  Uiso   1.00
O822   O     0.87154   0.43892   0.74999   0.00000  Uiso   1.00
O823   O     0.81409   0.50001   0.67319   0.00000  Uiso   1.00
O824   O     0.89053   0.50000   0.67319   0.00000  Uiso   1.00
C825   C     0.83333   0.41996   0.74997   0.00000  Uiso   1.00
C826   C     0.85935   0.49959   0.64787   0.00000  Uiso   1.00
C827   C     0.93578   0.48987   0.50288   0.00000  Uiso   1.00
H828   H     0.94942   0.50732   0.57584   0.00000  Uiso   1.00
H829   H     0.95249   0.46648   0.90047   0.00000  Uiso   1.00
H830   H     0.97272   0.49394   0.97846   0.00000  Uiso   1.00
C831   C     0.87463   0.49384   0.58966   0.00000  Uiso   1.00
C832   C     0.74797   0.46428   0.93386   0.00000  Uiso   1.00
C833   C     0.73579   0.45107   0.98774   0.00000  Uiso   1.00
C834   C     0.76979   0.45450   0.51482   0.00000  Uiso   1.00
C835   C     0.81770   0.46470   0.98617   0.00000  Uiso   1.00
C836   C     0.83136   0.46653   0.92963   0.00000  Uiso   1.00
C837   C     0.85278   0.47340   0.51118   0.00000  Uiso   1.00
C838   C     0.90151   0.47696   0.97944   0.00000  Uiso   1.00
C839   C     0.91514   0.46757   0.92468   0.00000  Uiso   1.00
C840   C     0.88034   0.46121   0.90020   0.00000  Uiso   1.00
C841   C     0.84020   0.48218   0.56607   0.00000  Uiso   1.00
C842   C     0.92249   0.49792   0.55803   0.00000  Uiso   1.00
C843   C     0.79551   0.47423   0.90513   0.00000  Uiso   1.00
H844   H     0.80327   0.48121   0.59088   0.00000  Uiso   1.00
H845   H     0.72074   0.46590   0.91420   0.00000  Uiso   1.00
H846   H     0.75910   0.44628   0.55708   0.00000  Uiso   1.00
H847   H     0.89248   0.45203   0.85821   0.00000  Uiso   1.00
C848   C     0.86956   0.64537   0.76308   0.00000  Uiso   1.00
H849   H     0.89761   0.62911   0.77347   0.00000  Uiso   1.00
C850   C     0.86956   0.35468   0.76307   0.00000  Uiso   1.00
H851   H     0.89759   0.37097   0.77347   0.00000  Uiso   1.00
C852   C     0.83327   0.37582   0.75015   0.00000  Uiso   1.00
C853   C     0.79693   0.35465   0.73739   0.00000  Uiso   1.00
H854   H     0.76889   0.37090   0.72697   0.00000  Uiso   1.00
C855   C     0.79692   0.64535   0.73744   0.00000  Uiso   1.00
H856   H     0.76886   0.62908   0.72708   0.00000  Uiso   1.00
C857   C     0.83327   0.62419   0.75022   0.00000  Uiso   1.00
C858   C     0.98610   0.47624   0.71390   0.00000  Uiso   1.00
H859   H     0.97599   0.45725   0.68505   0.00000  Uiso   1.00
C860   C     0.70073   0.47624   0.71391   0.00000  Uiso   1.00
H861   H     0.72696   0.45723   0.68505   0.00000  Uiso   1.00
N862   N     0.71426   0.50001   0.75002   0.00000  Uiso   1.00
C863   C     0.68052   0.52366   0.78621   0.00000  Uiso   1.00
H864   H     0.69060   0.54258   0.81515   0.00000  Uiso   1.00
C865   C     0.96590   0.52367   0.78618   0.00000  Uiso   1.00
H866   H     0.93965   0.54260   0.81512   0.00000  Uiso   1.00
N867   N     0.95239   0.49998   0.75000   0.00000  Uiso   1.00
N868   N     0.68951   0.43371   0.51455   0.00000  Uiso   1.00
O869   O     0.67328   0.43167   0.56703   0.00000  Uiso   1.00
O870   O     0.99941   0.41501   0.98652   0.00000  Uiso   1.00
O871   O     0.12846   0.89442   0.75000   0.00000  Uiso   1.00
O872   O     0.20490   0.89441   0.75000   0.00000  Uiso   1.00
C873   C     0.16665   0.91338   0.75010   0.00000  Uiso   1.00
O874   O     0.10947   0.83333   0.82681   0.00000  Uiso   1.00
O875   O     0.18591   0.83332   0.82681   0.00000  Uiso   1.00
C876   C     0.14150   0.82565   0.85043   0.00000  Uiso   1.00
Zn877  Zn    0.11562   0.83334   0.75000   0.00000  Uiso   1.00
Zn878  Zn    0.21771   0.83333   0.75000   0.00000  Uiso   1.00
O879   O     0.12843   0.77226   0.74999   0.00000  Uiso   1.00
O880   O     0.20488   0.77225   0.74999   0.00000  Uiso   1.00
O881   O     0.14742   0.83335   0.67319   0.00000  Uiso   1.00
O882   O     0.22387   0.83334   0.67319   0.00000  Uiso   1.00
C883   C     0.16666   0.75329   0.74997   0.00000  Uiso   1.00
C884   C     0.19269   0.83292   0.64787   0.00000  Uiso   1.00
C885   C     0.26911   0.82320   0.50288   0.00000  Uiso   1.00
H886   H     0.28275   0.84066   0.57584   0.00000  Uiso   1.00
H887   H     0.28583   0.79982   0.90047   0.00000  Uiso   1.00
H888   H     0.30605   0.82728   0.97846   0.00000  Uiso   1.00
C889   C     0.20797   0.82717   0.58966   0.00000  Uiso   1.00
C890   C     0.08131   0.79761   0.93386   0.00000  Uiso   1.00
C891   C     0.06913   0.78440   0.98774   0.00000  Uiso   1.00
C892   C     0.10312   0.78783   0.51482   0.00000  Uiso   1.00
C893   C     0.15104   0.79803   0.98617   0.00000  Uiso   1.00
C894   C     0.16469   0.79987   0.92963   0.00000  Uiso   1.00
C895   C     0.18611   0.80673   0.51118   0.00000  Uiso   1.00
C896   C     0.23484   0.81029   0.97944   0.00000  Uiso   1.00
C897   C     0.24847   0.80090   0.92468   0.00000  Uiso   1.00
C898   C     0.21367   0.79454   0.90020   0.00000  Uiso   1.00
C899   C     0.17353   0.81552   0.56607   0.00000  Uiso   1.00
C900   C     0.25582   0.83125   0.55803   0.00000  Uiso   1.00
C901   C     0.12885   0.80756   0.90513   0.00000  Uiso   1.00
H902   H     0.13660   0.81454   0.59088   0.00000  Uiso   1.00
H903   H     0.05407   0.79923   0.91420   0.00000  Uiso   1.00
H904   H     0.09244   0.77962   0.55708   0.00000  Uiso   1.00
H905   H     0.22581   0.78536   0.85821   0.00000  Uiso   1.00
C906   C     0.20290   0.97871   0.76308   0.00000  Uiso   1.00
H907   H     0.23094   0.96245   0.77347   0.00000  Uiso   1.00
C908   C     0.20289   0.68801   0.76307   0.00000  Uiso   1.00
H909   H     0.23092   0.70430   0.77347   0.00000  Uiso   1.00
C910   C     0.16661   0.70916   0.75015   0.00000  Uiso   1.00
C911   C     0.13027   0.68798   0.73739   0.00000  Uiso   1.00
H912   H     0.10223   0.70423   0.72697   0.00000  Uiso   1.00
C913   C     0.13026   0.97868   0.73744   0.00000  Uiso   1.00
H914   H     0.10220   0.96241   0.72708   0.00000  Uiso   1.00
C915   C     0.16660   0.95753   0.75022   0.00000  Uiso   1.00
C916   C     0.31944   0.80957   0.71390   0.00000  Uiso   1.00
H917   H     0.30932   0.79059   0.68505   0.00000  Uiso   1.00
C918   C     0.03407   0.80958   0.71391   0.00000  Uiso   1.00
H919   H     0.06029   0.79056   0.68505   0.00000  Uiso   1.00
N920   N     0.04760   0.83334   0.75002   0.00000  Uiso   1.00
C921   C     0.01385   0.85700   0.78621   0.00000  Uiso   1.00
H922   H     0.02393   0.87591   0.81515   0.00000  Uiso   1.00
C923   C     0.29923   0.85700   0.78618   0.00000  Uiso   1.00
H924   H     0.27298   0.87593   0.81512   0.00000  Uiso   1.00
N925   N     0.28573   0.83331   0.75000   0.00000  Uiso   1.00
N926   N     0.02284   0.76704   0.51455   0.00000  Uiso   1.00
O927   O     0.00661   0.76500   0.56703   0.00000  Uiso   1.00
O928   O     0.33274   0.74835   0.98652   0.00000  Uiso   1.00
O929   O     0.46179   0.89442   0.75000   0.00000  Uiso   1.00
O930   O     0.53823   0.89441   0.75000   0.00000  Uiso   1.00
C931   C     0.49999   0.91338   0.75010   0.00000  Uiso   1.00
O932   O     0.44280   0.83333   0.82681   0.00000  Uiso   1.00
O933   O     0.51924   0.83332   0.82681   0.00000  Uiso   1.00
C934   C     0.47483   0.82565   0.85043   0.00000  Uiso   1.00
Zn935  Zn    0.44896   0.83334   0.75000   0.00000  Uiso   1.00
Zn936  Zn    0.55104   0.83333   0.75000   0.00000  Uiso   1.00
O937   O     0.46177   0.77226   0.74999   0.00000  Uiso   1.00
O938   O     0.53821   0.77225   0.74999   0.00000  Uiso   1.00
O939   O     0.48076   0.83335   0.67319   0.00000  Uiso   1.00
O940   O     0.55720   0.83334   0.67319   0.00000  Uiso   1.00
C941   C     0.49999   0.75329   0.74997   0.00000  Uiso   1.00
C942   C     0.52602   0.83292   0.64787   0.00000  Uiso   1.00
C943   C     0.60245   0.82320   0.50288   0.00000  Uiso   1.00
H944   H     0.61608   0.84066   0.57584   0.00000  Uiso   1.00
H945   H     0.61916   0.79982   0.90047   0.00000  Uiso   1.00
H946   H     0.63938   0.82728   0.97846   0.00000  Uiso   1.00
C947   C     0.54130   0.82717   0.58966   0.00000  Uiso   1.00
C948   C     0.41464   0.79761   0.93386   0.00000  Uiso   1.00
C949   C     0.40246   0.78440   0.98774   0.00000  Uiso   1.00
C950   C     0.43645   0.78783   0.51482   0.00000  Uiso   1.00
C951   C     0.48437   0.79803   0.98617   0.00000  Uiso   1.00
C952   C     0.49802   0.79987   0.92963   0.00000  Uiso   1.00
C953   C     0.51944   0.80673   0.51118   0.00000  Uiso   1.00
C954   C     0.56818   0.81029   0.97944   0.00000  Uiso   1.00
C955   C     0.58180   0.80090   0.92468   0.00000  Uiso   1.00
C956   C     0.54701   0.79454   0.90020   0.00000  Uiso   1.00
C957   C     0.50687   0.81552   0.56607   0.00000  Uiso   1.00
C958   C     0.58915   0.83125   0.55803   0.00000  Uiso   1.00
C959   C     0.46218   0.80756   0.90513   0.00000  Uiso   1.00
H960   H     0.46993   0.81454   0.59088   0.00000  Uiso   1.00
H961   H     0.38740   0.79923   0.91420   0.00000  Uiso   1.00
H962   H     0.42577   0.77962   0.55708   0.00000  Uiso   1.00
H963   H     0.55915   0.78536   0.85821   0.00000  Uiso   1.00
C964   C     0.53623   0.97871   0.76308   0.00000  Uiso   1.00
H965   H     0.56428   0.96245   0.77347   0.00000  Uiso   1.00
C966   C     0.53622   0.68801   0.76307   0.00000  Uiso   1.00
H967   H     0.56425   0.70430   0.77347   0.00000  Uiso   1.00
C968   C     0.49994   0.70916   0.75015   0.00000  Uiso   1.00
C969   C     0.46360   0.68798   0.73739   0.00000  Uiso   1.00
H970   H     0.43556   0.70423   0.72697   0.00000  Uiso   1.00
C971   C     0.46359   0.97868   0.73744   0.00000  Uiso   1.00
H972   H     0.43553   0.96241   0.72708   0.00000  Uiso   1.00
C973   C     0.49994   0.95753   0.75022   0.00000  Uiso   1.00
C974   C     0.65277   0.80957   0.71390   0.00000  Uiso   1.00
H975   H     0.64266   0.79059   0.68505   0.00000  Uiso   1.00
C976   C     0.36740   0.80958   0.71391   0.00000  Uiso   1.00
H977   H     0.39362   0.79056   0.68505   0.00000  Uiso   1.00
N978   N     0.38093   0.83334   0.75002   0.00000  Uiso   1.00
C979   C     0.34719   0.85700   0.78621   0.00000  Uiso   1.00
H980   H     0.35726   0.87591   0.81515   0.00000  Uiso   1.00
C981   C     0.63257   0.85700   0.78618   0.00000  Uiso   1.00
H982   H     0.60632   0.87593   0.81512   0.00000  Uiso   1.00
N983   N     0.61906   0.83331   0.75000   0.00000  Uiso   1.00
N984   N     0.35618   0.76704   0.51455   0.00000  Uiso   1.00
O985   O     0.33994   0.76500   0.56703   0.00000  Uiso   1.00
O986   O     0.66608   0.74835   0.98652   0.00000  Uiso   1.00
O987   O     0.79512   0.89442   0.75000   0.00000  Uiso   1.00
O988   O     0.87157   0.89441   0.75000   0.00000  Uiso   1.00
C989   C     0.83332   0.91338   0.75010   0.00000  Uiso   1.00
O990   O     0.77613   0.83333   0.82681   0.00000  Uiso   1.00
O991   O     0.85258   0.83332   0.82681   0.00000  Uiso   1.00
C992   C     0.80816   0.82565   0.85043   0.00000  Uiso   1.00
Zn993  Zn    0.78229   0.83334   0.75000   0.00000  Uiso   1.00
Zn994  Zn    0.88438   0.83333   0.75000   0.00000  Uiso   1.00
O995   O     0.79510   0.77226   0.74999   0.00000  Uiso   1.00
O996   O     0.87154   0.77225   0.74999   0.00000  Uiso   1.00
O997   O     0.81409   0.83335   0.67319   0.00000  Uiso   1.00
O998   O     0.89053   0.83334   0.67319   0.00000  Uiso   1.00
C999   C     0.83333   0.75329   0.74997   0.00000  Uiso   1.00
C1000  C     0.85935   0.83292   0.64787   0.00000  Uiso   1.00
C1001  C     0.93578   0.82320   0.50288   0.00000  Uiso   1.00
H1002  H     0.94942   0.84066   0.57584   0.00000  Uiso   1.00
H1003  H     0.95249   0.79982   0.90047   0.00000  Uiso   1.00
H1004  H     0.97272   0.82728   0.97846   0.00000  Uiso   1.00
C1005  C     0.87463   0.82717   0.58966   0.00000  Uiso   1.00
C1006  C     0.74797   0.79761   0.93386   0.00000  Uiso   1.00
C1007  C     0.73579   0.78440   0.98774   0.00000  Uiso   1.00
C1008  C     0.76979   0.78783   0.51482   0.00000  Uiso   1.00
C1009  C     0.81770   0.79803   0.98617   0.00000  Uiso   1.00
C1010  C     0.83136   0.79987   0.92963   0.00000  Uiso   1.00
C1011  C     0.85278   0.80673   0.51118   0.00000  Uiso   1.00
C1012  C     0.90151   0.81029   0.97944   0.00000  Uiso   1.00
C1013  C     0.91514   0.80090   0.92468   0.00000  Uiso   1.00
C1014  C     0.88034   0.79454   0.90020   0.00000  Uiso   1.00
C1015  C     0.84020   0.81552   0.56607   0.00000  Uiso   1.00
C1016  C     0.92249   0.83125   0.55803   0.00000  Uiso   1.00
C1017  C     0.79551   0.80756   0.90513   0.00000  Uiso   1.00
H1018  H     0.80327   0.81454   0.59088   0.00000  Uiso   1.00
H1019  H     0.72074   0.79923   0.91420   0.00000  Uiso   1.00
H1020  H     0.75910   0.77962   0.55708   0.00000  Uiso   1.00
H1021  H     0.89248   0.78536   0.85821   0.00000  Uiso   1.00
C1022  C     0.86956   0.97871   0.76308   0.00000  Uiso   1.00
H1023  H     0.89761   0.96245   0.77347   0.00000  Uiso   1.00
C1024  C     0.86956   0.68801   0.76307   0.00000  Uiso   1.00
H1025  H     0.89759   0.70430   0.77347   0.00000  Uiso   1.00
C1026  C     0.83327   0.70916   0.75015   0.00000  Uiso   1.00
C1027  C     0.79693   0.68798   0.73739   0.00000  Uiso   1.00
H1028  H     0.76889   0.70423   0.72697   0.00000  Uiso   1.00
C1029  C     0.79692   0.97868   0.73744   0.00000  Uiso   1.00
H1030  H     0.76886   0.96241   0.72708   0.00000  Uiso   1.00
C1031  C     0.83327   0.95753   0.75022   0.00000  Uiso   1.00
C1032  C     0.98610   0.80957   0.71390   0.00000  Uiso   1.00
H1033  H     0.97599   0.79059   0.68505   0.00000  Uiso   1.00
C1034  C     0.70073   0.80958   0.71391   0.00000  Uiso   1.00
H1035  H     0.72696   0.79056   0.68505   0.00000  Uiso   1.00
N1036  N     0.71426   0.83334   0.75002   0.00000  Uiso   1.00
C1037  C     0.68052   0.85700   0.78621   0.00000  Uiso   1.00
H1038  H     0.69060   0.87591   0.81515   0.00000  Uiso   1.00
C1039  C     0.96590   0.85700   0.78618   0.00000  Uiso   1.00
H1040  H     0.93965   0.87593   0.81512   0.00000  Uiso   1.00
N1041  N     0.95239   0.83331   0.75000   0.00000  Uiso   1.00
N1042  N     0.68951   0.76704   0.51455   0.00000  Uiso   1.00
O1043  O     0.67328   0.76500   0.56703   0.00000  Uiso   1.00
O1044  O     0.99941   0.74835   0.98652   0.00000  Uiso   1.00
loop_
_geom_bond_atom_site_label_1
_geom_bond_atom_site_label_2
_geom_bond_distance
_geom_bond_site_symmetry_2
_ccdc_geom_bond_type
O1     C3      1.282   .     A
O1     Zn7     1.999   .     S
O2     C3      1.283   .     A
O2     Zn8     1.999   .     S
C3     C45     1.419   .     S
O4     Zn7     1.954   .     S
O4     C6      1.305   .     A
O5     Zn8     1.926   .     S
O5     C6      1.284   .     A
C6     C31     1.476   .     S
Zn7    O11     1.926   .     S
Zn7    N50     2.008   .     S
Zn7    O9      1.999   .     S
Zn8    O12     1.954   .     S
Zn8    N55     2.008   .     S
Zn8    O10     1.999   .     S
O9     C13     1.283   .     A
O10    C13     1.282   .     A
O11    C14     1.290   .     A
O12    C14     1.292   .     A
C13    C40     1.419   .     S
C14    C19     1.453   .     S
C15    C30     1.391   .     A
C15    H540    1.083   1_554 S
C15    C548    1.400   1_554 S
H16    C30     1.083   .     S
H17    C27     1.084   .     S
H18    C537    1.083   .     S
C19    C30     1.399   .     A
C19    C29     1.396   .     A
C20    C21     1.403   .     A
C20    H33     1.083   .     S
C20    C31     1.403   .     A
C21    C544    1.402   .     S
C21    N578    1.436   .     S
C22    H34     1.080   .     S
C22    C543    1.402   1_554 S
C22    C545    1.414   1_554 S
C23    C24     1.402   .     A
C23    C544    1.414   .     S
C23    C547    1.416   .     S
C24    C31     1.420   .     A
C24    C28     1.417   .     A
C25    C29     1.390   .     A
C25    C545    1.416   1_554 S
C25    C548    1.420   1_554 S
C26    C27     1.390   .     A
C26    C537    1.400   .     S
C26    C547    1.420   .     S
C27    C28     1.386   .     A
C28    H35     1.080   .     S
C29    H32     1.078   .     S
C36    C45     1.397   .     A
C36    H37     1.084   .     S
C36    C212    1.370   .     S
C38    C40     1.397   .     A
C38    H39     1.084   .     S
C38    C384    1.370   1_545 S
C40    C41     1.397   .     A
C41    H42     1.084   .     S
C41    C391    1.370   1_545 S
C43    C45     1.397   .     A
C43    H44     1.084   .     S
C43    C215    1.370   .     S
C46    N55     1.366   .     A
C46    H47     1.082   .     S
C46    C106    1.416   .     S
C48    H49     1.082   .     S
C48    N50     1.367   .     A
C48    C162    1.416   1_455 S
N50    C51     1.366   .     A
C51    H52     1.082   .     S
C51    C169    1.416   1_455 S
C53    H54     1.082   .     S
C53    N55     1.367   .     A
C53    C109    1.416   .     S
N56    O57     1.302   .     A
N56    C543    1.436   1_554 S
N56    O696    1.302   1_454 S
O58    N636    1.302   .     S
O59    C61     1.282   .     A
O59    Zn65    1.999   .     S
O60    C61     1.283   .     A
O60    Zn66    1.999   .     S
C61    C103    1.419   .     S
O62    Zn65    1.954   .     S
O62    C64     1.305   .     A
O63    Zn66    1.926   .     S
O63    C64     1.284   .     A
C64    C89     1.476   .     S
Zn65   O69     1.926   .     S
Zn65   N108    2.008   .     S
Zn65   O67     1.999   .     S
Zn66   O70     1.954   .     S
Zn66   N113    2.008   .     S
Zn66   O68     1.999   .     S
O67    C71     1.283   .     A
O68    C71     1.282   .     A
O69    C72     1.290   .     A
O70    C72     1.292   .     A
C71    C98     1.419   .     S
C72    C77     1.453   .     S
C73    C88     1.391   .     A
C73    H598    1.083   1_554 S
C73    C606    1.400   1_554 S
H74    C88     1.083   .     S
H75    C85     1.084   .     S
H76    C595    1.083   .     S
C77    C88     1.399   .     A
C77    C87     1.396   .     A
C78    C79     1.403   .     A
C78    H91     1.083   .     S
C78    C89     1.403   .     A
C79    C602    1.402   .     S
C79    N636    1.436   .     S
C80    H92     1.080   .     S
C80    C601    1.402   1_554 S
C80    C603    1.414   1_554 S
C81    C82     1.402   .     A
C81    C602    1.414   .     S
C81    C605    1.416   .     S
C82    C89     1.420   .     A
C82    C86     1.417   .     A
C83    C87     1.390   .     A
C83    C603    1.416   1_554 S
C83    C606    1.420   1_554 S
C84    C85     1.390   .     A
C84    C595    1.400   .     S
C84    C605    1.420   .     S
C85    C86     1.386   .     A
C86    H93     1.080   .     S
C87    H90     1.078   .     S
C94    C103    1.397   .     A
C94    H95     1.084   .     S
C94    C270    1.370   .     S
C96    C98     1.397   .     A
C96    H97     1.084   .     S
C96    C442    1.370   1_545 S
C98    C99     1.397   .     A
C99    H100    1.084   .     S
C99    C449    1.370   1_545 S
C101   C103    1.397   .     A
C101   H102    1.084   .     S
C101   C273    1.370   .     S
C104   N113    1.366   .     A
C104   H105    1.082   .     S
C104   C164    1.416   .     S
C106   H107    1.082   .     S
C106   N108    1.367   .     A
N108   C109    1.366   .     A
C109   H110    1.082   .     S
C111   H112    1.082   .     S
C111   N113    1.367   .     A
C111   C167    1.416   .     S
N114   O115    1.302   .     A
N114   C601    1.436   1_554 S
N114   O580    1.302   1_554 S
O116   N694    1.302   .     S
O117   C119    1.282   .     A
O117   Zn123   1.999   .     S
O118   C119    1.283   .     A
O118   Zn124   1.999   .     S
C119   C161    1.419   .     S
O120   Zn123   1.954   .     S
O120   C122    1.305   .     A
O121   Zn124   1.926   .     S
O121   C122    1.284   .     A
C122   C147    1.476   .     S
Zn123  O127    1.926   .     S
Zn123  N166    2.008   .     S
Zn123  O125    1.999   .     S
Zn124  O128    1.954   .     S
Zn124  N171    2.008   .     S
Zn124  O126    1.999   .     S
O125   C129    1.283   .     A
O126   C129    1.282   .     A
O127   C130    1.290   .     A
O128   C130    1.292   .     A
C129   C156    1.419   .     S
C130   C135    1.453   .     S
C131   C146    1.391   .     A
C131   H656    1.083   1_554 S
C131   C664    1.400   1_554 S
H132   C146    1.083   .     S
H133   C143    1.084   .     S
H134   C653    1.083   .     S
C135   C146    1.399   .     A
C135   C145    1.396   .     A
C136   C137    1.403   .     A
C136   H149    1.083   .     S
C136   C147    1.403   .     A
C137   C660    1.402   .     S
C137   N694    1.436   .     S
C138   H150    1.080   .     S
C138   C659    1.402   1_554 S
C138   C661    1.414   1_554 S
C139   C140    1.402   .     A
C139   C660    1.414   .     S
C139   C663    1.416   .     S
C140   C147    1.420   .     A
C140   C144    1.417   .     A
C141   C145    1.390   .     A
C141   C661    1.416   1_554 S
C141   C664    1.420   1_554 S
C142   C143    1.390   .     A
C142   C653    1.400   .     S
C142   C663    1.420   .     S
C143   C144    1.386   .     A
C144   H151    1.080   .     S
C145   H148    1.078   .     S
C152   C161    1.397   .     A
C152   H153    1.084   .     S
C152   C328    1.370   .     S
C154   C156    1.397   .     A
C154   H155    1.084   .     S
C154   C500    1.370   1_545 S
C156   C157    1.397   .     A
C157   H158    1.084   .     S
C157   C507    1.370   1_545 S
C159   C161    1.397   .     A
C159   H160    1.084   .     S
C159   C331    1.370   .     S
C162   N171    1.366   .     A
C162   H163    1.082   .     S
C162   C48     1.416   1_655 S
C164   H165    1.082   .     S
C164   N166    1.367   .     A
N166   C167    1.366   .     A
C167   H168    1.082   .     S
C169   H170    1.082   .     S
C169   N171    1.367   .     A
C169   C51     1.416   1_655 S
N172   O173    1.302   .     A
N172   C659    1.436   1_554 S
N172   O638    1.302   1_554 S
O174   N578    1.302   1_655 S
O175   C177    1.282   .     A
O175   Zn181   1.999   .     S
O176   C177    1.283   .     A
O176   Zn182   1.999   .     S
C177   C219    1.419   .     S
O178   Zn181   1.954   .     S
O178   C180    1.305   .     A
O179   Zn182   1.926   .     S
O179   C180    1.284   .     A
C180   C205    1.476   .     S
Zn181  O185    1.926   .     S
Zn181  N224    2.008   .     S
Zn181  O183    1.999   .     S
Zn182  O186    1.954   .     S
Zn182  N229    2.008   .     S
Zn182  O184    1.999   .     S
O183   C187    1.283   .     A
O184   C187    1.282   .     A
O185   C188    1.290   .     A
O186   C188    1.292   .     A
C187   C214    1.419   .     S
C188   C193    1.453   .     S
C189   C204    1.391   .     A
C189   H714    1.083   1_554 S
C189   C722    1.400   1_554 S
H190   C204    1.083   .     S
H191   C201    1.084   .     S
H192   C711    1.083   .     S
C193   C204    1.399   .     A
C193   C203    1.396   .     A
C194   C195    1.403   .     A
C194   H207    1.083   .     S
C194   C205    1.403   .     A
C195   C718    1.402   .     S
C195   N752    1.436   .     S
C196   H208    1.080   .     S
C196   C717    1.402   1_554 S
C196   C719    1.414   1_554 S
C197   C198    1.402   .     A
C197   C718    1.414   .     S
C197   C721    1.416   .     S
C198   C205    1.420   .     A
C198   C202    1.417   .     A
C199   C203    1.390   .     A
C199   C719    1.416   1_554 S
C199   C722    1.420   1_554 S
C200   C201    1.390   .     A
C200   C711    1.400   .     S
C200   C721    1.420   .     S
C201   C202    1.386   .     A
C202   H209    1.080   .     S
C203   H206    1.078   .     S
C210   C219    1.397   .     A
C210   H211    1.084   .     S
C210   C386    1.370   .     S
C212   C214    1.397   .     A
C212   H213    1.084   .     S
C214   C215    1.397   .     A
C215   H216    1.084   .     S
C217   C219    1.397   .     A
C217   H218    1.084   .     S
C217   C389    1.370   .     S
C220   N229    1.366   .     A
C220   H221    1.082   .     S
C220   C280    1.416   .     S
C222   H223    1.082   .     S
C222   N224    1.367   .     A
C222   C336    1.416   1_455 S
N224   C225    1.366   .     A
C225   H226    1.082   .     S
C225   C343    1.416   1_455 S
C227   H228    1.082   .     S
C227   N229    1.367   .     A
C227   C283    1.416   .     S
N230   O231    1.302   .     A
N230   C717    1.436   1_554 S
N230   O870    1.302   1_454 S
O232   N810    1.302   .     S
O233   C235    1.282   .     A
O233   Zn239   1.999   .     S
O234   C235    1.283   .     A
O234   Zn240   1.999   .     S
C235   C277    1.419   .     S
O236   Zn239   1.954   .     S
O236   C238    1.305   .     A
O237   Zn240   1.926   .     S
O237   C238    1.284   .     A
C238   C263    1.476   .     S
Zn239  O243    1.926   .     S
Zn239  N282    2.008   .     S
Zn239  O241    1.999   .     S
Zn240  O244    1.954   .     S
Zn240  N287    2.008   .     S
Zn240  O242    1.999   .     S
O241   C245    1.283   .     A
O242   C245    1.282   .     A
O243   C246    1.290   .     A
O244   C246    1.292   .     A
C245   C272    1.419   .     S
C246   C251    1.453   .     S
C247   C262    1.391   .     A
C247   H772    1.083   1_554 S
C247   C780    1.400   1_554 S
H248   C262    1.083   .     S
H249   C259    1.084   .     S
H250   C769    1.083   .     S
C251   C262    1.399   .     A
C251   C261    1.396   .     A
C252   C253    1.403   .     A
C252   H265    1.083   .     S
C252   C263    1.403   .     A
C253   C776    1.402   .     S
C253   N810    1.436   .     S
C254   H266    1.080   .     S
C254   C775    1.402   1_554 S
C254   C777    1.414   1_554 S
C255   C256    1.402   .     A
C255   C776    1.414   .     S
C255   C779    1.416   .     S
C256   C263    1.420   .     A
C256   C260    1.417   .     A
C257   C261    1.390   .     A
C257   C777    1.416   1_554 S
C257   C780    1.420   1_554 S
C258   C259    1.390   .     A
C258   C769    1.400   .     S
C258   C779    1.420   .     S
C259   C260    1.386   .     A
C260   H267    1.080   .     S
C261   H264    1.078   .     S
C268   C277    1.397   .     A
C268   H269    1.084   .     S
C268   C444    1.370   .     S
C270   C272    1.397   .     A
C270   H271    1.084   .     S
C272   C273    1.397   .     A
C273   H274    1.084   .     S
C275   C277    1.397   .     A
C275   H276    1.084   .     S
C275   C447    1.370   .     S
C278   N287    1.366   .     A
C278   H279    1.082   .     S
C278   C338    1.416   .     S
C280   H281    1.082   .     S
C280   N282    1.367   .     A
N282   C283    1.366   .     A
C283   H284    1.082   .     S
C285   H286    1.082   .     S
C285   N287    1.367   .     A
C285   C341    1.416   .     S
N288   O289    1.302   .     A
N288   C775    1.436   1_554 S
N288   O754    1.302   1_554 S
O290   N868    1.302   .     S
O291   C293    1.282   .     A
O291   Zn297   1.999   .     S
O292   C293    1.283   .     A
O292   Zn298   1.999   .     S
C293   C335    1.419   .     S
O294   Zn297   1.954   .     S
O294   C296    1.305   .     A
O295   Zn298   1.926   .     S
O295   C296    1.284   .     A
C296   C321    1.476   .     S
Zn297  O301    1.926   .     S
Zn297  N340    2.008   .     S
Zn297  O299    1.999   .     S
Zn298  O302    1.954   .     S
Zn298  N345    2.008   .     S
Zn298  O300    1.999   .     S
O299   C303    1.283   .     A
O300   C303    1.282   .     A
O301   C304    1.290   .     A
O302   C304    1.292   .     A
C303   C330    1.419   .     S
C304   C309    1.453   .     S
C305   C320    1.391   .     A
C305   H830    1.083   1_554 S
C305   C838    1.400   1_554 S
H306   C320    1.083   .     S
H307   C317    1.084   .     S
H308   C827    1.083   .     S
C309   C320    1.399   .     A
C309   C319    1.396   .     A
C310   C311    1.403   .     A
C310   H323    1.083   .     S
C310   C321    1.403   .     A
C311   C834    1.402   .     S
C311   N868    1.436   .     S
C312   H324    1.080   .     S
C312   C833    1.402   1_554 S
C312   C835    1.414   1_554 S
C313   C314    1.402   .     A
C313   C834    1.414   .     S
C313   C837    1.416   .     S
C314   C321    1.420   .     A
C314   C318    1.417   .     A
C315   C319    1.390   .     A
C315   C835    1.416   1_554 S
C315   C838    1.420   1_554 S
C316   C317    1.390   .     A
C316   C827    1.400   .     S
C316   C837    1.420   .     S
C317   C318    1.386   .     A
C318   H325    1.080   .     S
C319   H322    1.078   .     S
C326   C335    1.397   .     A
C326   H327    1.084   .     S
C326   C502    1.370   .     S
C328   C330    1.397   .     A
C328   H329    1.084   .     S
C330   C331    1.397   .     A
C331   H332    1.084   .     S
C333   C335    1.397   .     A
C333   H334    1.084   .     S
C333   C505    1.370   .     S
C336   N345    1.366   .     A
C336   H337    1.082   .     S
C336   C222    1.416   1_655 S
C338   H339    1.082   .     S
C338   N340    1.367   .     A
N340   C341    1.366   .     A
C341   H342    1.082   .     S
C343   H344    1.082   .     S
C343   N345    1.367   .     A
C343   C225    1.416   1_655 S
N346   O347    1.302   .     A
N346   C833    1.436   1_554 S
N346   O812    1.302   1_554 S
O348   N752    1.302   1_655 S
O349   C351    1.282   .     A
O349   Zn355   1.999   .     S
O350   C351    1.283   .     A
O350   Zn356   1.999   .     S
C351   C393    1.419   .     S
O352   Zn355   1.954   .     S
O352   C354    1.305   .     A
O353   Zn356   1.926   .     S
O353   C354    1.284   .     A
C354   C379    1.476   .     S
Zn355  O359    1.926   .     S
Zn355  N398    2.008   .     S
Zn355  O357    1.999   .     S
Zn356  O360    1.954   .     S
Zn356  N403    2.008   .     S
Zn356  O358    1.999   .     S
O357   C361    1.283   .     A
O358   C361    1.282   .     A
O359   C362    1.290   .     A
O360   C362    1.292   .     A
C361   C388    1.419   .     S
C362   C367    1.453   .     S
C363   C378    1.391   .     A
C363   H888    1.083   1_554 S
C363   C896    1.400   1_554 S
H364   C378    1.083   .     S
H365   C375    1.084   .     S
H366   C885    1.083   .     S
C367   C378    1.399   .     A
C367   C377    1.396   .     A
C368   C369    1.403   .     A
C368   H381    1.083   .     S
C368   C379    1.403   .     A
C369   C892    1.402   .     S
C369   N926    1.436   .     S
C370   H382    1.080   .     S
C370   C891    1.402   1_554 S
C370   C893    1.414   1_554 S
C371   C372    1.402   .     A
C371   C892    1.414   .     S
C371   C895    1.416   .     S
C372   C379    1.420   .     A
C372   C376    1.417   .     A
C373   C377    1.390   .     A
C373   C893    1.416   1_554 S
C373   C896    1.420   1_554 S
C374   C375    1.390   .     A
C374   C885    1.400   .     S
C374   C895    1.420   .     S
C375   C376    1.386   .     A
C376   H383    1.080   .     S
C377   H380    1.078   .     S
C384   C393    1.397   .     A
C384   H385    1.084   .     S
C384   C38     1.370   1_565 S
C386   C388    1.397   .     A
C386   H387    1.084   .     S
C388   C389    1.397   .     A
C389   H390    1.084   .     S
C391   C393    1.397   .     A
C391   H392    1.084   .     S
C391   C41     1.370   1_565 S
C394   N403    1.366   .     A
C394   H395    1.082   .     S
C394   C454    1.416   .     S
C396   H397    1.082   .     S
C396   N398    1.367   .     A
C396   C510    1.416   1_455 S
N398   C399    1.366   .     A
C399   H400    1.082   .     S
C399   C517    1.416   1_455 S
C401   H402    1.082   .     S
C401   N403    1.367   .     A
C401   C457    1.416   .     S
N404   O405    1.302   .     A
N404   C891    1.436   1_554 S
N404   O1044   1.302   1_454 S
O406   N984    1.302   .     S
O407   C409    1.282   .     A
O407   Zn413   1.999   .     S
O408   C409    1.283   .     A
O408   Zn414   1.999   .     S
C409   C451    1.419   .     S
O410   Zn413   1.954   .     S
O410   C412    1.305   .     A
O411   Zn414   1.926   .     S
O411   C412    1.284   .     A
C412   C437    1.476   .     S
Zn413  O417    1.926   .     S
Zn413  N456    2.008   .     S
Zn413  O415    1.999   .     S
Zn414  O418    1.954   .     S
Zn414  N461    2.008   .     S
Zn414  O416    1.999   .     S
O415   C419    1.283   .     A
O416   C419    1.282   .     A
O417   C420    1.290   .     A
O418   C420    1.292   .     A
C419   C446    1.419   .     S
C420   C425    1.453   .     S
C421   C436    1.391   .     A
C421   H946    1.083   1_554 S
C421   C954    1.400   1_554 S
H422   C436    1.083   .     S
H423   C433    1.084   .     S
H424   C943    1.083   .     S
C425   C436    1.399   .     A
C425   C435    1.396   .     A
C426   C427    1.403   .     A
C426   H439    1.083   .     S
C426   C437    1.403   .     A
C427   C950    1.402   .     S
C427   N984    1.436   .     S
C428   H440    1.080   .     S
C428   C949    1.402   1_554 S
C428   C951    1.414   1_554 S
C429   C430    1.402   .     A
C429   C950    1.414   .     S
C429   C953    1.416   .     S
C430   C437    1.420   .     A
C430   C434    1.417   .     A
C431   C435    1.390   .     A
C431   C951    1.416   1_554 S
C431   C954    1.420   1_554 S
C432   C433    1.390   .     A
C432   C943    1.400   .     S
C432   C953    1.420   .     S
C433   C434    1.386   .     A
C434   H441    1.080   .     S
C435   H438    1.078   .     S
C442   C451    1.397   .     A
C442   H443    1.084   .     S
C442   C96     1.370   1_565 S
C444   C446    1.397   .     A
C444   H445    1.084   .     S
C446   C447    1.397   .     A
C447   H448    1.084   .     S
C449   C451    1.397   .     A
C449   H450    1.084   .     S
C449   C99     1.370   1_565 S
C452   N461    1.366   .     A
C452   H453    1.082   .     S
C452   C512    1.416   .     S
C454   H455    1.082   .     S
C454   N456    1.367   .     A
N456   C457    1.366   .     A
C457   H458    1.082   .     S
C459   H460    1.082   .     S
C459   N461    1.367   .     A
C459   C515    1.416   .     S
N462   O463    1.302   .     A
N462   C949    1.436   1_554 S
N462   O928    1.302   1_554 S
O464   N1042   1.302   .     S
O465   C467    1.282   .     A
O465   Zn471   1.999   .     S
O466   C467    1.283   .     A
O466   Zn472   1.999   .     S
C467   C509    1.419   .     S
O468   Zn471   1.954   .     S
O468   C470    1.305   .     A
O469   Zn472   1.926   .     S
O469   C470    1.284   .     A
C470   C495    1.476   .     S
Zn471  O475    1.926   .     S
Zn471  N514    2.008   .     S
Zn471  O473    1.999   .     S
Zn472  O476    1.954   .     S
Zn472  N519    2.008   .     S
Zn472  O474    1.999   .     S
O473   C477    1.283   .     A
O474   C477    1.282   .     A
O475   C478    1.290   .     A
O476   C478    1.292   .     A
C477   C504    1.419   .     S
C478   C483    1.453   .     S
C479   C494    1.391   .     A
C479   H1004   1.083   1_554 S
C479   C1012   1.400   1_554 S
H480   C494    1.083   .     S
H481   C491    1.084   .     S
H482   C1001   1.083   .     S
C483   C494    1.399   .     A
C483   C493    1.396   .     A
C484   C485    1.403   .     A
C484   H497    1.083   .     S
C484   C495    1.403   .     A
C485   C1008   1.402   .     S
C485   N1042   1.436   .     S
C486   H498    1.080   .     S
C486   C1007   1.402   1_554 S
C486   C1009   1.414   1_554 S
C487   C488    1.402   .     A
C487   C1008   1.414   .     S
C487   C1011   1.416   .     S
C488   C495    1.420   .     A
C488   C492    1.417   .     A
C489   C493    1.390   .     A
C489   C1009   1.416   1_554 S
C489   C1012   1.420   1_554 S
C490   C491    1.390   .     A
C490   C1001   1.400   .     S
C490   C1011   1.420   .     S
C491   C492    1.386   .     A
C492   H499    1.080   .     S
C493   H496    1.078   .     S
C500   C509    1.397   .     A
C500   H501    1.084   .     S
C500   C154    1.370   1_565 S
C502   C504    1.397   .     A
C502   H503    1.084   .     S
C504   C505    1.397   .     A
C505   H506    1.084   .     S
C507   C509    1.397   .     A
C507   H508    1.084   .     S
C507   C157    1.370   1_565 S
C510   N519    1.366   .     A
C510   H511    1.082   .     S
C510   C396    1.416   1_655 S
C512   H513    1.082   .     S
C512   N514    1.367   .     A
N514   C515    1.366   .     A
C515   H516    1.082   .     S
C517   H518    1.082   .     S
C517   N519    1.367   .     A
C517   C399    1.416   1_655 S
N520   O521    1.302   .     A
N520   C1007   1.436   1_554 S
N520   O986    1.302   1_554 S
O522   N926    1.302   1_655 S
O523   C525    1.282   .     A
O523   Zn529   1.999   .     S
O524   C525    1.283   .     A
O524   Zn530   1.999   .     S
C525   C567    1.419   .     S
O526   Zn529   1.954   .     S
O526   C528    1.305   .     A
O527   Zn530   1.926   .     S
O527   C528    1.284   .     A
C528   C553    1.476   .     S
Zn529  O533    1.926   .     S
Zn529  N572    2.008   .     S
Zn529  O531    1.999   .     S
Zn530  O534    1.954   .     S
Zn530  N577    2.008   .     S
Zn530  O532    1.999   .     S
O531   C535    1.283   .     A
O532   C535    1.282   .     A
O533   C536    1.290   .     A
O534   C536    1.292   .     A
C535   C562    1.419   .     S
C536   C541    1.453   .     S
C537   C552    1.391   .     A
H538   C552    1.083   .     S
H539   C549    1.084   .     S
H540   C15     1.083   1_556 S
C541   C552    1.399   .     A
C541   C551    1.396   .     A
C542   C543    1.403   .     A
C542   H555    1.083   .     S
C542   C553    1.403   .     A
C543   C22     1.402   1_556 S
C543   N56     1.436   1_556 S
C544   H556    1.080   .     S
C545   C546    1.402   .     A
C545   C22     1.414   1_556 S
C545   C25     1.416   1_556 S
C546   C553    1.420   .     A
C546   C550    1.417   .     A
C547   C551    1.390   .     A
C548   C549    1.390   .     A
C548   C15     1.400   1_556 S
C548   C25     1.420   1_556 S
C549   C550    1.386   .     A
C550   H557    1.080   .     S
C551   H554    1.078   .     S
C558   C567    1.397   .     A
C558   H559    1.084   .     S
C558   C734    1.370   .     S
C560   C562    1.397   .     A
C560   H561    1.084   .     S
C560   C906    1.370   1_545 S
C562   C563    1.397   .     A
C563   H564    1.084   .     S
C563   C913    1.370   1_545 S
C565   C567    1.397   .     A
C565   H566    1.084   .     S
C565   C737    1.370   .     S
C568   N577    1.366   .     A
C568   H569    1.082   .     S
C568   C628    1.416   .     S
C570   H571    1.082   .     S
C570   N572    1.367   .     A
C570   C684    1.416   1_455 S
N572   C573    1.366   .     A
C573   H574    1.082   .     S
C573   C691    1.416   1_455 S
C575   H576    1.082   .     S
C575   N577    1.367   .     A
C575   C631    1.416   .     S
N578   O579    1.302   .     A
N578   O174    1.302   1_455 S
O580   N114    1.302   1_556 S
O581   C583    1.282   .     A
O581   Zn587   1.999   .     S
O582   C583    1.283   .     A
O582   Zn588   1.999   .     S
C583   C625    1.419   .     S
O584   Zn587   1.954   .     S
O584   C586    1.305   .     A
O585   Zn588   1.926   .     S
O585   C586    1.284   .     A
C586   C611    1.476   .     S
Zn587  O591    1.926   .     S
Zn587  N630    2.008   .     S
Zn587  O589    1.999   .     S
Zn588  O592    1.954   .     S
Zn588  N635    2.008   .     S
Zn588  O590    1.999   .     S
O589   C593    1.283   .     A
O590   C593    1.282   .     A
O591   C594    1.290   .     A
O592   C594    1.292   .     A
C593   C620    1.419   .     S
C594   C599    1.453   .     S
C595   C610    1.391   .     A
H596   C610    1.083   .     S
H597   C607    1.084   .     S
H598   C73     1.083   1_556 S
C599   C610    1.399   .     A
C599   C609    1.396   .     A
C600   C601    1.403   .     A
C600   H613    1.083   .     S
C600   C611    1.403   .     A
C601   C80     1.402   1_556 S
C601   N114    1.436   1_556 S
C602   H614    1.080   .     S
C603   C604    1.402   .     A
C603   C80     1.414   1_556 S
C603   C83     1.416   1_556 S
C604   C611    1.420   .     A
C604   C608    1.417   .     A
C605   C609    1.390   .     A
C606   C607    1.390   .     A
C606   C73     1.400   1_556 S
C606   C83     1.420   1_556 S
C607   C608    1.386   .     A
C608   H615    1.080   .     S
C609   H612    1.078   .     S
C616   C625    1.397   .     A
C616   H617    1.084   .     S
C616   C792    1.370   .     S
C618   C620    1.397   .     A
C618   H619    1.084   .     S
C618   C964    1.370   1_545 S
C620   C621    1.397   .     A
C621   H622    1.084   .     S
C621   C971    1.370   1_545 S
C623   C625    1.397   .     A
C623   H624    1.084   .     S
C623   C795    1.370   .     S
C626   N635    1.366   .     A
C626   H627    1.082   .     S
C626   C686    1.416   .     S
C628   H629    1.082   .     S
C628   N630    1.367   .     A
N630   C631    1.366   .     A
C631   H632    1.082   .     S
C633   H634    1.082   .     S
C633   N635    1.367   .     A
C633   C689    1.416   .     S
N636   O637    1.302   .     A
O638   N172    1.302   1_556 S
O639   C641    1.282   .     A
O639   Zn645   1.999   .     S
O640   C641    1.283   .     A
O640   Zn646   1.999   .     S
C641   C683    1.419   .     S
O642   Zn645   1.954   .     S
O642   C644    1.305   .     A
O643   Zn646   1.926   .     S
O643   C644    1.284   .     A
C644   C669    1.476   .     S
Zn645  O649    1.926   .     S
Zn645  N688    2.008   .     S
Zn645  O647    1.999   .     S
Zn646  O650    1.954   .     S
Zn646  N693    2.008   .     S
Zn646  O648    1.999   .     S
O647   C651    1.283   .     A
O648   C651    1.282   .     A
O649   C652    1.290   .     A
O650   C652    1.292   .     A
C651   C678    1.419   .     S
C652   C657    1.453   .     S
C653   C668    1.391   .     A
H654   C668    1.083   .     S
H655   C665    1.084   .     S
H656   C131    1.083   1_556 S
C657   C668    1.399   .     A
C657   C667    1.396   .     A
C658   C659    1.403   .     A
C658   H671    1.083   .     S
C658   C669    1.403   .     A
C659   C138    1.402   1_556 S
C659   N172    1.436   1_556 S
C660   H672    1.080   .     S
C661   C662    1.402   .     A
C661   C138    1.414   1_556 S
C661   C141    1.416   1_556 S
C662   C669    1.420   .     A
C662   C666    1.417   .     A
C663   C667    1.390   .     A
C664   C665    1.390   .     A
C664   C131    1.400   1_556 S
C664   C141    1.420   1_556 S
C665   C666    1.386   .     A
C666   H673    1.080   .     S
C667   H670    1.078   .     S
C674   C683    1.397   .     A
C674   H675    1.084   .     S
C674   C850    1.370   .     S
C676   C678    1.397   .     A
C676   H677    1.084   .     S
C676   C1022   1.370   1_545 S
C678   C679    1.397   .     A
C679   H680    1.084   .     S
C679   C1029   1.370   1_545 S
C681   C683    1.397   .     A
C681   H682    1.084   .     S
C681   C853    1.370   .     S
C684   N693    1.366   .     A
C684   H685    1.082   .     S
C684   C570    1.416   1_655 S
C686   H687    1.082   .     S
C686   N688    1.367   .     A
N688   C689    1.366   .     A
C689   H690    1.082   .     S
C691   H692    1.082   .     S
C691   N693    1.367   .     A
C691   C573    1.416   1_655 S
N694   O695    1.302   .     A
O696   N56     1.302   1_656 S
O697   C699    1.282   .     A
O697   Zn703   1.999   .     S
O698   C699    1.283   .     A
O698   Zn704   1.999   .     S
C699   C741    1.419   .     S
O700   Zn703   1.954   .     S
O700   C702    1.305   .     A
O701   Zn704   1.926   .     S
O701   C702    1.284   .     A
C702   C727    1.476   .     S
Zn703  O707    1.926   .     S
Zn703  N746    2.008   .     S
Zn703  O705    1.999   .     S
Zn704  O708    1.954   .     S
Zn704  N751    2.008   .     S
Zn704  O706    1.999   .     S
O705   C709    1.283   .     A
O706   C709    1.282   .     A
O707   C710    1.290   .     A
O708   C710    1.292   .     A
C709   C736    1.419   .     S
C710   C715    1.453   .     S
C711   C726    1.391   .     A
H712   C726    1.083   .     S
H713   C723    1.084   .     S
H714   C189    1.083   1_556 S
C715   C726    1.399   .     A
C715   C725    1.396   .     A
C716   C717    1.403   .     A
C716   H729    1.083   .     S
C716   C727    1.403   .     A
C717   C196    1.402   1_556 S
C717   N230    1.436   1_556 S
C718   H730    1.080   .     S
C719   C720    1.402   .     A
C719   C196    1.414   1_556 S
C719   C199    1.416   1_556 S
C720   C727    1.420   .     A
C720   C724    1.417   .     A
C721   C725    1.390   .     A
C722   C723    1.390   .     A
C722   C189    1.400   1_556 S
C722   C199    1.420   1_556 S
C723   C724    1.386   .     A
C724   H731    1.080   .     S
C725   H728    1.078   .     S
C732   C741    1.397   .     A
C732   H733    1.084   .     S
C732   C908    1.370   .     S
C734   C736    1.397   .     A
C734   H735    1.084   .     S
C736   C737    1.397   .     A
C737   H738    1.084   .     S
C739   C741    1.397   .     A
C739   H740    1.084   .     S
C739   C911    1.370   .     S
C742   N751    1.366   .     A
C742   H743    1.082   .     S
C742   C802    1.416   .     S
C744   H745    1.082   .     S
C744   N746    1.367   .     A
C744   C858    1.416   1_455 S
N746   C747    1.366   .     A
C747   H748    1.082   .     S
C747   C865    1.416   1_455 S
C749   H750    1.082   .     S
C749   N751    1.367   .     A
C749   C805    1.416   .     S
N752   O753    1.302   .     A
N752   O348    1.302   1_455 S
O754   N288    1.302   1_556 S
O755   C757    1.282   .     A
O755   Zn761   1.999   .     S
O756   C757    1.283   .     A
O756   Zn762   1.999   .     S
C757   C799    1.419   .     S
O758   Zn761   1.954   .     S
O758   C760    1.305   .     A
O759   Zn762   1.926   .     S
O759   C760    1.284   .     A
C760   C785    1.476   .     S
Zn761  O765    1.926   .     S
Zn761  N804    2.008   .     S
Zn761  O763    1.999   .     S
Zn762  O766    1.954   .     S
Zn762  N809    2.008   .     S
Zn762  O764    1.999   .     S
O763   C767    1.283   .     A
O764   C767    1.282   .     A
O765   C768    1.290   .     A
O766   C768    1.292   .     A
C767   C794    1.419   .     S
C768   C773    1.453   .     S
C769   C784    1.391   .     A
H770   C784    1.083   .     S
H771   C781    1.084   .     S
H772   C247    1.083   1_556 S
C773   C784    1.399   .     A
C773   C783    1.396   .     A
C774   C775    1.403   .     A
C774   H787    1.083   .     S
C774   C785    1.403   .     A
C775   C254    1.402   1_556 S
C775   N288    1.436   1_556 S
C776   H788    1.080   .     S
C777   C778    1.402   .     A
C777   C254    1.414   1_556 S
C777   C257    1.416   1_556 S
C778   C785    1.420   .     A
C778   C782    1.417   .     A
C779   C783    1.390   .     A
C780   C781    1.390   .     A
C780   C247    1.400   1_556 S
C780   C257    1.420   1_556 S
C781   C782    1.386   .     A
C782   H789    1.080   .     S
C783   H786    1.078   .     S
C790   C799    1.397   .     A
C790   H791    1.084   .     S
C790   C966    1.370   .     S
C792   C794    1.397   .     A
C792   H793    1.084   .     S
C794   C795    1.397   .     A
C795   H796    1.084   .     S
C797   C799    1.397   .     A
C797   H798    1.084   .     S
C797   C969    1.370   .     S
C800   N809    1.366   .     A
C800   H801    1.082   .     S
C800   C860    1.416   .     S
C802   H803    1.082   .     S
C802   N804    1.367   .     A
N804   C805    1.366   .     A
C805   H806    1.082   .     S
C807   H808    1.082   .     S
C807   N809    1.367   .     A
C807   C863    1.416   .     S
N810   O811    1.302   .     A
O812   N346    1.302   1_556 S
O813   C815    1.282   .     A
O813   Zn819   1.999   .     S
O814   C815    1.283   .     A
O814   Zn820   1.999   .     S
C815   C857    1.419   .     S
O816   Zn819   1.954   .     S
O816   C818    1.305   .     A
O817   Zn820   1.926   .     S
O817   C818    1.284   .     A
C818   C843    1.476   .     S
Zn819  O823    1.926   .     S
Zn819  N862    2.008   .     S
Zn819  O821    1.999   .     S
Zn820  O824    1.954   .     S
Zn820  N867    2.008   .     S
Zn820  O822    1.999   .     S
O821   C825    1.283   .     A
O822   C825    1.282   .     A
O823   C826    1.290   .     A
O824   C826    1.292   .     A
C825   C852    1.419   .     S
C826   C831    1.453   .     S
C827   C842    1.391   .     A
H828   C842    1.083   .     S
H829   C839    1.084   .     S
H830   C305    1.083   1_556 S
C831   C842    1.399   .     A
C831   C841    1.396   .     A
C832   C833    1.403   .     A
C832   H845    1.083   .     S
C832   C843    1.403   .     A
C833   C312    1.402   1_556 S
C833   N346    1.436   1_556 S
C834   H846    1.080   .     S
C835   C836    1.402   .     A
C835   C312    1.414   1_556 S
C835   C315    1.416   1_556 S
C836   C843    1.420   .     A
C836   C840    1.417   .     A
C837   C841    1.390   .     A
C838   C839    1.390   .     A
C838   C305    1.400   1_556 S
C838   C315    1.420   1_556 S
C839   C840    1.386   .     A
C840   H847    1.080   .     S
C841   H844    1.078   .     S
C848   C857    1.397   .     A
C848   H849    1.084   .     S
C848   C1024   1.370   .     S
C850   C852    1.397   .     A
C850   H851    1.084   .     S
C852   C853    1.397   .     A
C853   H854    1.084   .     S
C855   C857    1.397   .     A
C855   H856    1.084   .     S
C855   C1027   1.370   .     S
C858   N867    1.366   .     A
C858   H859    1.082   .     S
C858   C744    1.416   1_655 S
C860   H861    1.082   .     S
C860   N862    1.367   .     A
N862   C863    1.366   .     A
C863   H864    1.082   .     S
C865   H866    1.082   .     S
C865   N867    1.367   .     A
C865   C747    1.416   1_655 S
N868   O869    1.302   .     A
O870   N230    1.302   1_656 S
O871   C873    1.282   .     A
O871   Zn877   1.999   .     S
O872   C873    1.283   .     A
O872   Zn878   1.999   .     S
C873   C915    1.419   .     S
O874   Zn877   1.954   .     S
O874   C876    1.305   .     A
O875   Zn878   1.926   .     S
O875   C876    1.284   .     A
C876   C901    1.476   .     S
Zn877  O881    1.926   .     S
Zn877  N920    2.008   .     S
Zn877  O879    1.999   .     S
Zn878  O882    1.954   .     S
Zn878  N925    2.008   .     S
Zn878  O880    1.999   .     S
O879   C883    1.283   .     A
O880   C883    1.282   .     A
O881   C884    1.290   .     A
O882   C884    1.292   .     A
C883   C910    1.419   .     S
C884   C889    1.453   .     S
C885   C900    1.391   .     A
H886   C900    1.083   .     S
H887   C897    1.084   .     S
H888   C363    1.083   1_556 S
C889   C900    1.399   .     A
C889   C899    1.396   .     A
C890   C891    1.403   .     A
C890   H903    1.083   .     S
C890   C901    1.403   .     A
C891   C370    1.402   1_556 S
C891   N404    1.436   1_556 S
C892   H904    1.080   .     S
C893   C894    1.402   .     A
C893   C370    1.414   1_556 S
C893   C373    1.416   1_556 S
C894   C901    1.420   .     A
C894   C898    1.417   .     A
C895   C899    1.390   .     A
C896   C897    1.390   .     A
C896   C363    1.400   1_556 S
C896   C373    1.420   1_556 S
C897   C898    1.386   .     A
C898   H905    1.080   .     S
C899   H902    1.078   .     S
C906   C915    1.397   .     A
C906   H907    1.084   .     S
C906   C560    1.370   1_565 S
C908   C910    1.397   .     A
C908   H909    1.084   .     S
C910   C911    1.397   .     A
C911   H912    1.084   .     S
C913   C915    1.397   .     A
C913   H914    1.084   .     S
C913   C563    1.370   1_565 S
C916   N925    1.366   .     A
C916   H917    1.082   .     S
C916   C976    1.416   .     S
C918   H919    1.082   .     S
C918   N920    1.367   .     A
C918   C1032   1.416   1_455 S
N920   C921    1.366   .     A
C921   H922    1.082   .     S
C921   C1039   1.416   1_455 S
C923   H924    1.082   .     S
C923   N925    1.367   .     A
C923   C979    1.416   .     S
N926   O927    1.302   .     A
N926   O522    1.302   1_455 S
O928   N462    1.302   1_556 S
O929   C931    1.282   .     A
O929   Zn935   1.999   .     S
O930   C931    1.283   .     A
O930   Zn936   1.999   .     S
C931   C973    1.419   .     S
O932   Zn935   1.954   .     S
O932   C934    1.305   .     A
O933   Zn936   1.926   .     S
O933   C934    1.284   .     A
C934   C959    1.476   .     S
Zn935  O939    1.926   .     S
Zn935  N978    2.008   .     S
Zn935  O937    1.999   .     S
Zn936  O940    1.954   .     S
Zn936  N983    2.008   .     S
Zn936  O938    1.999   .     S
O937   C941    1.283   .     A
O938   C941    1.282   .     A
O939   C942    1.290   .     A
O940   C942    1.292   .     A
C941   C968    1.419   .     S
C942   C947    1.453   .     S
C943   C958    1.391   .     A
H944   C958    1.083   .     S
H945   C955    1.084   .     S
H946   C421    1.083   1_556 S
C947   C958    1.399   .     A
C947   C957    1.396   .     A
C948   C949    1.403   .     A
C948   H961    1.083   .     S
C948   C959    1.403   .     A
C949   C428    1.402   1_556 S
C949   N462    1.436   1_556 S
C950   H962    1.080   .     S
C951   C952    1.402   .     A
C951   C428    1.414   1_556 S
C951   C431    1.416   1_556 S
C952   C959    1.420   .     A
C952   C956    1.417   .     A
C953   C957    1.390   .     A
C954   C955    1.390   .     A
C954   C421    1.400   1_556 S
C954   C431    1.420   1_556 S
C955   C956    1.386   .     A
C956   H963    1.080   .     S
C957   H960    1.078   .     S
C964   C973    1.397   .     A
C964   H965    1.084   .     S
C964   C618    1.370   1_565 S
C966   C968    1.397   .     A
C966   H967    1.084   .     S
C968   C969    1.397   .     A
C969   H970    1.084   .     S
C971   C973    1.397   .     A
C971   H972    1.084   .     S
C971   C621    1.370   1_565 S
C974   N983    1.366   .     A
C974   H975    1.082   .     S
C974   C1034   1.416   .     S
C976   H977    1.082   .     S
C976   N978    1.367   .     A
N978   C979    1.366   .     A
C979   H980    1.082   .     S
C981   H982    1.082   .     S
C981   N983    1.367   .     A
C981   C1037   1.416   .     S
N984   O985    1.302   .     A
O986   N520    1.302   1_556 S
O987   C989    1.282   .     A
O987   Zn993   1.999   .     S
O988   C989    1.283   .     A
O988   Zn994   1.999   .     S
C989   C1031   1.419   .     S
O990   Zn993   1.954   .     S
O990   C992    1.305   .     A
O991   Zn994   1.926   .     S
O991   C992    1.284   .     A
C992   C1017   1.476   .     S
Zn993  O997    1.926   .     S
Zn993  N1036   2.008   .     S
Zn993  O995    1.999   .     S
Zn994  O998    1.954   .     S
Zn994  N1041   2.008   .     S
Zn994  O996    1.999   .     S
O995   C999    1.283   .     A
O996   C999    1.282   .     A
O997   C1000   1.290   .     A
O998   C1000   1.292   .     A
C999   C1026   1.419   .     S
C1000  C1005   1.453   .     S
C1001  C1016   1.391   .     A
H1002  C1016   1.083   .     S
H1003  C1013   1.084   .     S
H1004  C479    1.083   1_556 S
C1005  C1016   1.399   .     A
C1005  C1015   1.396   .     A
C1006  C1007   1.403   .     A
C1006  H1019   1.083   .     S
C1006  C1017   1.403   .     A
C1007  C486    1.402   1_556 S
C1007  N520    1.436   1_556 S
C1008  H1020   1.080   .     S
C1009  C1010   1.402   .     A
C1009  C486    1.414   1_556 S
C1009  C489    1.416   1_556 S
C1010  C1017   1.420   .     A
C1010  C1014   1.417   .     A
C1011  C1015   1.390   .     A
C1012  C1013   1.390   .     A
C1012  C479    1.400   1_556 S
C1012  C489    1.420   1_556 S
C1013  C1014   1.386   .     A
C1014  H1021   1.080   .     S
C1015  H1018   1.078   .     S
C1022  C1031   1.397   .     A
C1022  H1023   1.084   .     S
C1022  C676    1.370   1_565 S
C1024  C1026   1.397   .     A
C1024  H1025   1.084   .     S
C1026  C1027   1.397   .     A
C1027  H1028   1.084   .     S
C1029  C1031   1.397   .     A
C1029  H1030   1.084   .     S
C1029  C679    1.370   1_565 S
C1032  N1041   1.366   .     A
C1032  H1033   1.082   .     S
C1032  C918    1.416   1_655 S
C1034  H1035   1.082   .     S
C1034  N1036   1.367   .     A
N1036  C1037   1.366   .     A
C1037  H1038   1.082   .     S
C1039  H1040   1.082   .     S
C1039  N1041   1.367   .     A
C1039  C921    1.416   1_655 S
N1042  O1043   1.302   .     A
O1044  N404    1.302   1_656 S
