data_str_m3_o1_o10_pcu_sym.64
_audit_creation_date              2020-01-03
_audit_creation_method            'Materials Studio'
_symmetry_space_group_name_H-M    'P1'
_symmetry_Int_Tables_number       1
_symmetry_cell_setting            triclinic
loop_
_symmetry_equiv_pos_as_xyz
  x,y,z
_cell_length_a                    25.7745
_cell_length_b                    31.9410
_cell_length_c                    29.5809
_cell_angle_alpha                 89.6668
_cell_angle_beta                  98.6740
_cell_angle_gamma                 90.1982
loop_
_atom_site_label
_atom_site_type_symbol
_atom_site_fract_x
_atom_site_fract_y
_atom_site_fract_z
_atom_site_U_iso_or_equiv
_atom_site_adp_type
_atom_site_occupancy
C1     C     0.16810   0.08677   0.16699   0.00000  Uiso   1.00
C2     C     0.13257   0.02229   0.19010   0.00000  Uiso   1.00
C3     C     0.16388   0.29070   0.16564   0.00000  Uiso   1.00
C4     C     0.16945   0.04263   0.16769   0.00000  Uiso   1.00
C5     C     0.19970   0.19239   0.02813   0.00000  Uiso   1.00
C6     C     0.13364   0.14094   0.30520   0.00000  Uiso   1.00
C7     C     0.19968   0.19238   0.31354   0.00000  Uiso   1.00
C8     C     0.13365   0.14095   0.01979   0.00000  Uiso   1.00
C9     C     0.16523   0.24657   0.16634   0.00000  Uiso   1.00
C10    C     0.06704   0.16665   0.15469   0.00000  Uiso   1.00
C11    C     0.26629   0.16669   0.17864   0.00000  Uiso   1.00
C12    C     0.01199   0.16667   0.14826   0.00000  Uiso   1.00
C13    C     0.32135   0.16666   0.18507   0.00000  Uiso   1.00
C14    C     0.20469   0.02059   0.14460   0.00000  Uiso   1.00
C15    C     0.12865   0.31274   0.18873   0.00000  Uiso   1.00
C16    C     0.20076   0.31105   0.14324   0.00000  Uiso   1.00
H17    H     0.32467   0.16670   0.11335   0.00000  Uiso   1.00
H18    H     0.08227   0.26569   0.19646   0.00000  Uiso   1.00
H19    H     0.00866   0.16663   0.21998   0.00000  Uiso   1.00
H20    H     0.22799   0.29341   0.12617   0.00000  Uiso   1.00
H21    H     0.10534   0.03993   0.20716   0.00000  Uiso   1.00
H22    H     0.22613   0.21298   0.04958   0.00000  Uiso   1.00
H23    H     0.10721   0.12036   0.28375   0.00000  Uiso   1.00
H24    H     0.22609   0.21296   0.29876   0.00000  Uiso   1.00
H25    H     0.10724   0.12037   0.03458   0.00000  Uiso   1.00
H26    H     0.25106   0.06764   0.13688   0.00000  Uiso   1.00
N27    N     0.16665   0.16666   0.28573   0.00000  Uiso   1.00
N28    N     0.16668   0.16668   0.04760   0.00000  Uiso   1.00
O29    O     0.16666   0.10558   0.20487   0.00000  Uiso   1.00
O30    O     0.08957   0.29406   0.20915   0.00000  Uiso   1.00
O31    O     0.16667   0.22775   0.12846   0.00000  Uiso   1.00
O32    O     0.16666   0.10559   0.12843   0.00000  Uiso   1.00
O33    O     0.16667   0.22774   0.20490   0.00000  Uiso   1.00
O34    O     0.09058   0.16666   0.19595   0.00000  Uiso   1.00
O35    O     0.24275   0.16667   0.13739   0.00000  Uiso   1.00
O36    O     0.09058   0.16667   0.11950   0.00000  Uiso   1.00
O37    O     0.24275   0.16666   0.21383   0.00000  Uiso   1.00
O38    O     0.24377   0.03927   0.12419   0.00000  Uiso   1.00
Zn39   Zn    0.16667   0.16666   0.21771   0.00000  Uiso   1.00
Zn40   Zn    0.16667   0.16667   0.11563   0.00000  Uiso   1.00
C41    C     0.50144   0.08677   0.16699   0.00000  Uiso   1.00
C42    C     0.46590   0.02229   0.19010   0.00000  Uiso   1.00
C43    C     0.49721   0.29070   0.16564   0.00000  Uiso   1.00
C44    C     0.50279   0.04263   0.16769   0.00000  Uiso   1.00
C45    C     0.53303   0.19239   0.02813   0.00000  Uiso   1.00
C46    C     0.46697   0.14094   0.30520   0.00000  Uiso   1.00
C47    C     0.53301   0.19238   0.31354   0.00000  Uiso   1.00
C48    C     0.46699   0.14095   0.01979   0.00000  Uiso   1.00
C49    C     0.49856   0.24657   0.16634   0.00000  Uiso   1.00
C50    C     0.40038   0.16665   0.15469   0.00000  Uiso   1.00
C51    C     0.59962   0.16669   0.17864   0.00000  Uiso   1.00
C52    C     0.34532   0.16667   0.14826   0.00000  Uiso   1.00
C53    C     0.65468   0.16666   0.18507   0.00000  Uiso   1.00
C54    C     0.53802   0.02059   0.14460   0.00000  Uiso   1.00
C55    C     0.46198   0.31274   0.18873   0.00000  Uiso   1.00
C56    C     0.53410   0.31105   0.14324   0.00000  Uiso   1.00
H57    H     0.65800   0.16670   0.11335   0.00000  Uiso   1.00
H58    H     0.41561   0.26569   0.19646   0.00000  Uiso   1.00
H59    H     0.34200   0.16663   0.21998   0.00000  Uiso   1.00
H60    H     0.56132   0.29341   0.12617   0.00000  Uiso   1.00
H61    H     0.43868   0.03993   0.20716   0.00000  Uiso   1.00
H62    H     0.55946   0.21298   0.04958   0.00000  Uiso   1.00
H63    H     0.44054   0.12036   0.28375   0.00000  Uiso   1.00
H64    H     0.55943   0.21296   0.29876   0.00000  Uiso   1.00
H65    H     0.44057   0.12037   0.03458   0.00000  Uiso   1.00
H66    H     0.58440   0.06764   0.13688   0.00000  Uiso   1.00
N67    N     0.49999   0.16666   0.28573   0.00000  Uiso   1.00
N68    N     0.50001   0.16668   0.04760   0.00000  Uiso   1.00
O69    O     0.50000   0.10558   0.20487   0.00000  Uiso   1.00
O70    O     0.42290   0.29406   0.20915   0.00000  Uiso   1.00
O71    O     0.50000   0.22775   0.12846   0.00000  Uiso   1.00
O72    O     0.50000   0.10559   0.12843   0.00000  Uiso   1.00
O73    O     0.50000   0.22774   0.20490   0.00000  Uiso   1.00
O74    O     0.42392   0.16666   0.19595   0.00000  Uiso   1.00
O75    O     0.57608   0.16667   0.13739   0.00000  Uiso   1.00
O76    O     0.42392   0.16667   0.11950   0.00000  Uiso   1.00
O77    O     0.57608   0.16666   0.21383   0.00000  Uiso   1.00
O78    O     0.57710   0.03927   0.12419   0.00000  Uiso   1.00
Zn79   Zn    0.50000   0.16666   0.21771   0.00000  Uiso   1.00
Zn80   Zn    0.50000   0.16667   0.11563   0.00000  Uiso   1.00
C81    C     0.83477   0.08677   0.16699   0.00000  Uiso   1.00
C82    C     0.79924   0.02229   0.19010   0.00000  Uiso   1.00
C83    C     0.83055   0.29070   0.16564   0.00000  Uiso   1.00
C84    C     0.83612   0.04263   0.16769   0.00000  Uiso   1.00
C85    C     0.86636   0.19239   0.02813   0.00000  Uiso   1.00
C86    C     0.80030   0.14094   0.30520   0.00000  Uiso   1.00
C87    C     0.86635   0.19238   0.31354   0.00000  Uiso   1.00
C88    C     0.80032   0.14095   0.01979   0.00000  Uiso   1.00
C89    C     0.83190   0.24657   0.16634   0.00000  Uiso   1.00
C90    C     0.73371   0.16665   0.15469   0.00000  Uiso   1.00
C91    C     0.93296   0.16669   0.17864   0.00000  Uiso   1.00
C92    C     0.67865   0.16667   0.14826   0.00000  Uiso   1.00
C93    C     0.98801   0.16666   0.18507   0.00000  Uiso   1.00
C94    C     0.87135   0.02059   0.14460   0.00000  Uiso   1.00
C95    C     0.79531   0.31274   0.18873   0.00000  Uiso   1.00
C96    C     0.86743   0.31105   0.14324   0.00000  Uiso   1.00
H97    H     0.99134   0.16670   0.11335   0.00000  Uiso   1.00
H98    H     0.74894   0.26569   0.19646   0.00000  Uiso   1.00
H99    H     0.67533   0.16663   0.21998   0.00000  Uiso   1.00
H100   H     0.89466   0.29341   0.12617   0.00000  Uiso   1.00
H101   H     0.77201   0.03993   0.20716   0.00000  Uiso   1.00
H102   H     0.89279   0.21298   0.04958   0.00000  Uiso   1.00
H103   H     0.77387   0.12036   0.28375   0.00000  Uiso   1.00
H104   H     0.89276   0.21296   0.29876   0.00000  Uiso   1.00
H105   H     0.77390   0.12037   0.03458   0.00000  Uiso   1.00
H106   H     0.91773   0.06764   0.13688   0.00000  Uiso   1.00
N107   N     0.83332   0.16666   0.28573   0.00000  Uiso   1.00
N108   N     0.83335   0.16668   0.04760   0.00000  Uiso   1.00
O109   O     0.83333   0.10558   0.20487   0.00000  Uiso   1.00
O110   O     0.75623   0.29406   0.20915   0.00000  Uiso   1.00
O111   O     0.83334   0.22775   0.12846   0.00000  Uiso   1.00
O112   O     0.83333   0.10559   0.12843   0.00000  Uiso   1.00
O113   O     0.83334   0.22774   0.20490   0.00000  Uiso   1.00
O114   O     0.75725   0.16666   0.19595   0.00000  Uiso   1.00
O115   O     0.90942   0.16667   0.13739   0.00000  Uiso   1.00
O116   O     0.75725   0.16667   0.11950   0.00000  Uiso   1.00
O117   O     0.90942   0.16666   0.21383   0.00000  Uiso   1.00
O118   O     0.91043   0.03927   0.12419   0.00000  Uiso   1.00
Zn119  Zn    0.83333   0.16666   0.21771   0.00000  Uiso   1.00
Zn120  Zn    0.83333   0.16667   0.11563   0.00000  Uiso   1.00
C121   C     0.16810   0.42010   0.16699   0.00000  Uiso   1.00
C122   C     0.13257   0.35562   0.19010   0.00000  Uiso   1.00
C123   C     0.16388   0.62404   0.16564   0.00000  Uiso   1.00
C124   C     0.16945   0.37596   0.16769   0.00000  Uiso   1.00
C125   C     0.19970   0.52572   0.02813   0.00000  Uiso   1.00
C126   C     0.13364   0.47428   0.30520   0.00000  Uiso   1.00
C127   C     0.19968   0.52571   0.31354   0.00000  Uiso   1.00
C128   C     0.13365   0.47429   0.01979   0.00000  Uiso   1.00
C129   C     0.16523   0.57990   0.16634   0.00000  Uiso   1.00
C130   C     0.06704   0.49998   0.15469   0.00000  Uiso   1.00
C131   C     0.26629   0.50002   0.17864   0.00000  Uiso   1.00
C132   C     0.01199   0.50000   0.14826   0.00000  Uiso   1.00
C133   C     0.32135   0.50000   0.18507   0.00000  Uiso   1.00
C134   C     0.20469   0.35393   0.14460   0.00000  Uiso   1.00
C135   C     0.12865   0.64607   0.18873   0.00000  Uiso   1.00
C136   C     0.20076   0.64438   0.14324   0.00000  Uiso   1.00
H137   H     0.32467   0.50003   0.11335   0.00000  Uiso   1.00
H138   H     0.08227   0.59902   0.19646   0.00000  Uiso   1.00
H139   H     0.00866   0.49997   0.21998   0.00000  Uiso   1.00
H140   H     0.22799   0.62674   0.12617   0.00000  Uiso   1.00
H141   H     0.10534   0.37326   0.20716   0.00000  Uiso   1.00
H142   H     0.22613   0.54631   0.04958   0.00000  Uiso   1.00
H143   H     0.10721   0.45369   0.28375   0.00000  Uiso   1.00
H144   H     0.22609   0.54629   0.29876   0.00000  Uiso   1.00
H145   H     0.10724   0.45371   0.03458   0.00000  Uiso   1.00
H146   H     0.25106   0.40097   0.13688   0.00000  Uiso   1.00
N147   N     0.16665   0.49999   0.28573   0.00000  Uiso   1.00
N148   N     0.16668   0.50001   0.04760   0.00000  Uiso   1.00
O149   O     0.16666   0.43892   0.20487   0.00000  Uiso   1.00
O150   O     0.08957   0.62740   0.20915   0.00000  Uiso   1.00
O151   O     0.16667   0.56108   0.12846   0.00000  Uiso   1.00
O152   O     0.16666   0.43893   0.12843   0.00000  Uiso   1.00
O153   O     0.16667   0.56107   0.20490   0.00000  Uiso   1.00
O154   O     0.09058   0.50000   0.19595   0.00000  Uiso   1.00
O155   O     0.24275   0.50000   0.13739   0.00000  Uiso   1.00
O156   O     0.09058   0.50000   0.11950   0.00000  Uiso   1.00
O157   O     0.24275   0.50000   0.21383   0.00000  Uiso   1.00
O158   O     0.24377   0.37260   0.12419   0.00000  Uiso   1.00
Zn159  Zn    0.16667   0.49999   0.21771   0.00000  Uiso   1.00
Zn160  Zn    0.16667   0.50001   0.11563   0.00000  Uiso   1.00
C161   C     0.50144   0.42010   0.16699   0.00000  Uiso   1.00
C162   C     0.46590   0.35562   0.19010   0.00000  Uiso   1.00
C163   C     0.49721   0.62404   0.16564   0.00000  Uiso   1.00
C164   C     0.50279   0.37596   0.16769   0.00000  Uiso   1.00
C165   C     0.53303   0.52572   0.02813   0.00000  Uiso   1.00
C166   C     0.46697   0.47428   0.30520   0.00000  Uiso   1.00
C167   C     0.53301   0.52571   0.31354   0.00000  Uiso   1.00
C168   C     0.46699   0.47429   0.01979   0.00000  Uiso   1.00
C169   C     0.49856   0.57990   0.16634   0.00000  Uiso   1.00
C170   C     0.40038   0.49998   0.15469   0.00000  Uiso   1.00
C171   C     0.59962   0.50002   0.17864   0.00000  Uiso   1.00
C172   C     0.34532   0.50000   0.14826   0.00000  Uiso   1.00
C173   C     0.65468   0.50000   0.18507   0.00000  Uiso   1.00
C174   C     0.53802   0.35393   0.14460   0.00000  Uiso   1.00
C175   C     0.46198   0.64607   0.18873   0.00000  Uiso   1.00
C176   C     0.53410   0.64438   0.14324   0.00000  Uiso   1.00
H177   H     0.65800   0.50003   0.11335   0.00000  Uiso   1.00
H178   H     0.41561   0.59902   0.19646   0.00000  Uiso   1.00
H179   H     0.34200   0.49997   0.21998   0.00000  Uiso   1.00
H180   H     0.56132   0.62674   0.12617   0.00000  Uiso   1.00
H181   H     0.43868   0.37326   0.20716   0.00000  Uiso   1.00
H182   H     0.55946   0.54631   0.04958   0.00000  Uiso   1.00
H183   H     0.44054   0.45369   0.28375   0.00000  Uiso   1.00
H184   H     0.55943   0.54629   0.29876   0.00000  Uiso   1.00
H185   H     0.44057   0.45371   0.03458   0.00000  Uiso   1.00
H186   H     0.58440   0.40097   0.13688   0.00000  Uiso   1.00
N187   N     0.49999   0.49999   0.28573   0.00000  Uiso   1.00
N188   N     0.50001   0.50001   0.04760   0.00000  Uiso   1.00
O189   O     0.50000   0.43892   0.20487   0.00000  Uiso   1.00
O190   O     0.42290   0.62740   0.20915   0.00000  Uiso   1.00
O191   O     0.50000   0.56108   0.12846   0.00000  Uiso   1.00
O192   O     0.50000   0.43893   0.12843   0.00000  Uiso   1.00
O193   O     0.50000   0.56107   0.20490   0.00000  Uiso   1.00
O194   O     0.42392   0.50000   0.19595   0.00000  Uiso   1.00
O195   O     0.57608   0.50000   0.13739   0.00000  Uiso   1.00
O196   O     0.42392   0.50000   0.11950   0.00000  Uiso   1.00
O197   O     0.57608   0.50000   0.21383   0.00000  Uiso   1.00
O198   O     0.57710   0.37260   0.12419   0.00000  Uiso   1.00
Zn199  Zn    0.50000   0.49999   0.21771   0.00000  Uiso   1.00
Zn200  Zn    0.50000   0.50001   0.11563   0.00000  Uiso   1.00
C201   C     0.83477   0.42010   0.16699   0.00000  Uiso   1.00
C202   C     0.79924   0.35562   0.19010   0.00000  Uiso   1.00
C203   C     0.83055   0.62404   0.16564   0.00000  Uiso   1.00
C204   C     0.83612   0.37596   0.16769   0.00000  Uiso   1.00
C205   C     0.86636   0.52572   0.02813   0.00000  Uiso   1.00
C206   C     0.80030   0.47428   0.30520   0.00000  Uiso   1.00
C207   C     0.86635   0.52571   0.31354   0.00000  Uiso   1.00
C208   C     0.80032   0.47429   0.01979   0.00000  Uiso   1.00
C209   C     0.83190   0.57990   0.16634   0.00000  Uiso   1.00
C210   C     0.73371   0.49998   0.15469   0.00000  Uiso   1.00
C211   C     0.93296   0.50002   0.17864   0.00000  Uiso   1.00
C212   C     0.67865   0.50000   0.14826   0.00000  Uiso   1.00
C213   C     0.98801   0.50000   0.18507   0.00000  Uiso   1.00
C214   C     0.87135   0.35393   0.14460   0.00000  Uiso   1.00
C215   C     0.79531   0.64607   0.18873   0.00000  Uiso   1.00
C216   C     0.86743   0.64438   0.14324   0.00000  Uiso   1.00
H217   H     0.99134   0.50003   0.11335   0.00000  Uiso   1.00
H218   H     0.74894   0.59902   0.19646   0.00000  Uiso   1.00
H219   H     0.67533   0.49997   0.21998   0.00000  Uiso   1.00
H220   H     0.89466   0.62674   0.12617   0.00000  Uiso   1.00
H221   H     0.77201   0.37326   0.20716   0.00000  Uiso   1.00
H222   H     0.89279   0.54631   0.04958   0.00000  Uiso   1.00
H223   H     0.77387   0.45369   0.28375   0.00000  Uiso   1.00
H224   H     0.89276   0.54629   0.29876   0.00000  Uiso   1.00
H225   H     0.77390   0.45371   0.03458   0.00000  Uiso   1.00
H226   H     0.91773   0.40097   0.13688   0.00000  Uiso   1.00
N227   N     0.83332   0.49999   0.28573   0.00000  Uiso   1.00
N228   N     0.83335   0.50001   0.04760   0.00000  Uiso   1.00
O229   O     0.83333   0.43892   0.20487   0.00000  Uiso   1.00
O230   O     0.75623   0.62740   0.20915   0.00000  Uiso   1.00
O231   O     0.83334   0.56108   0.12846   0.00000  Uiso   1.00
O232   O     0.83333   0.43893   0.12843   0.00000  Uiso   1.00
O233   O     0.83334   0.56107   0.20490   0.00000  Uiso   1.00
O234   O     0.75725   0.50000   0.19595   0.00000  Uiso   1.00
O235   O     0.90942   0.50000   0.13739   0.00000  Uiso   1.00
O236   O     0.75725   0.50000   0.11950   0.00000  Uiso   1.00
O237   O     0.90942   0.50000   0.21383   0.00000  Uiso   1.00
O238   O     0.91043   0.37260   0.12419   0.00000  Uiso   1.00
Zn239  Zn    0.83333   0.49999   0.21771   0.00000  Uiso   1.00
Zn240  Zn    0.83333   0.50001   0.11563   0.00000  Uiso   1.00
C241   C     0.16810   0.75343   0.16699   0.00000  Uiso   1.00
C242   C     0.13257   0.68895   0.19010   0.00000  Uiso   1.00
C243   C     0.16388   0.95737   0.16564   0.00000  Uiso   1.00
C244   C     0.16945   0.70930   0.16769   0.00000  Uiso   1.00
C245   C     0.19970   0.85906   0.02813   0.00000  Uiso   1.00
C246   C     0.13364   0.80761   0.30520   0.00000  Uiso   1.00
C247   C     0.19968   0.85905   0.31354   0.00000  Uiso   1.00
C248   C     0.13365   0.80762   0.01979   0.00000  Uiso   1.00
C249   C     0.16523   0.91323   0.16634   0.00000  Uiso   1.00
C250   C     0.06704   0.83331   0.15469   0.00000  Uiso   1.00
C251   C     0.26629   0.83335   0.17864   0.00000  Uiso   1.00
C252   C     0.01199   0.83334   0.14826   0.00000  Uiso   1.00
C253   C     0.32135   0.83333   0.18507   0.00000  Uiso   1.00
C254   C     0.20469   0.68726   0.14460   0.00000  Uiso   1.00
C255   C     0.12865   0.97941   0.18873   0.00000  Uiso   1.00
C256   C     0.20076   0.97771   0.14324   0.00000  Uiso   1.00
H257   H     0.32467   0.83337   0.11335   0.00000  Uiso   1.00
H258   H     0.08227   0.93236   0.19646   0.00000  Uiso   1.00
H259   H     0.00866   0.83330   0.21998   0.00000  Uiso   1.00
H260   H     0.22799   0.96007   0.12617   0.00000  Uiso   1.00
H261   H     0.10534   0.70659   0.20716   0.00000  Uiso   1.00
H262   H     0.22613   0.87964   0.04958   0.00000  Uiso   1.00
H263   H     0.10721   0.78702   0.28375   0.00000  Uiso   1.00
H264   H     0.22609   0.87963   0.29876   0.00000  Uiso   1.00
H265   H     0.10724   0.78704   0.03458   0.00000  Uiso   1.00
H266   H     0.25106   0.73431   0.13688   0.00000  Uiso   1.00
N267   N     0.16665   0.83332   0.28573   0.00000  Uiso   1.00
N268   N     0.16668   0.83334   0.04760   0.00000  Uiso   1.00
O269   O     0.16666   0.77225   0.20487   0.00000  Uiso   1.00
O270   O     0.08957   0.96073   0.20915   0.00000  Uiso   1.00
O271   O     0.16667   0.89442   0.12846   0.00000  Uiso   1.00
O272   O     0.16666   0.77226   0.12843   0.00000  Uiso   1.00
O273   O     0.16667   0.89441   0.20490   0.00000  Uiso   1.00
O274   O     0.09058   0.83333   0.19595   0.00000  Uiso   1.00
O275   O     0.24275   0.83334   0.13739   0.00000  Uiso   1.00
O276   O     0.09058   0.83334   0.11950   0.00000  Uiso   1.00
O277   O     0.24275   0.83333   0.21383   0.00000  Uiso   1.00
O278   O     0.24377   0.70594   0.12419   0.00000  Uiso   1.00
Zn279  Zn    0.16667   0.83333   0.21771   0.00000  Uiso   1.00
Zn280  Zn    0.16667   0.83334   0.11563   0.00000  Uiso   1.00
C281   C     0.50144   0.75343   0.16699   0.00000  Uiso   1.00
C282   C     0.46590   0.68895   0.19010   0.00000  Uiso   1.00
C283   C     0.49721   0.95737   0.16564   0.00000  Uiso   1.00
C284   C     0.50279   0.70930   0.16769   0.00000  Uiso   1.00
C285   C     0.53303   0.85906   0.02813   0.00000  Uiso   1.00
C286   C     0.46697   0.80761   0.30520   0.00000  Uiso   1.00
C287   C     0.53301   0.85905   0.31354   0.00000  Uiso   1.00
C288   C     0.46699   0.80762   0.01979   0.00000  Uiso   1.00
C289   C     0.49856   0.91323   0.16634   0.00000  Uiso   1.00
C290   C     0.40038   0.83331   0.15469   0.00000  Uiso   1.00
C291   C     0.59962   0.83335   0.17864   0.00000  Uiso   1.00
C292   C     0.34532   0.83334   0.14826   0.00000  Uiso   1.00
C293   C     0.65468   0.83333   0.18507   0.00000  Uiso   1.00
C294   C     0.53802   0.68726   0.14460   0.00000  Uiso   1.00
C295   C     0.46198   0.97941   0.18873   0.00000  Uiso   1.00
C296   C     0.53410   0.97771   0.14324   0.00000  Uiso   1.00
H297   H     0.65800   0.83337   0.11335   0.00000  Uiso   1.00
H298   H     0.41561   0.93236   0.19646   0.00000  Uiso   1.00
H299   H     0.34200   0.83330   0.21998   0.00000  Uiso   1.00
H300   H     0.56132   0.96007   0.12617   0.00000  Uiso   1.00
H301   H     0.43868   0.70659   0.20716   0.00000  Uiso   1.00
H302   H     0.55946   0.87964   0.04958   0.00000  Uiso   1.00
H303   H     0.44054   0.78702   0.28375   0.00000  Uiso   1.00
H304   H     0.55943   0.87963   0.29876   0.00000  Uiso   1.00
H305   H     0.44057   0.78704   0.03458   0.00000  Uiso   1.00
H306   H     0.58440   0.73431   0.13688   0.00000  Uiso   1.00
N307   N     0.49999   0.83332   0.28573   0.00000  Uiso   1.00
N308   N     0.50001   0.83334   0.04760   0.00000  Uiso   1.00
O309   O     0.50000   0.77225   0.20487   0.00000  Uiso   1.00
O310   O     0.42290   0.96073   0.20915   0.00000  Uiso   1.00
O311   O     0.50000   0.89442   0.12846   0.00000  Uiso   1.00
O312   O     0.50000   0.77226   0.12843   0.00000  Uiso   1.00
O313   O     0.50000   0.89441   0.20490   0.00000  Uiso   1.00
O314   O     0.42392   0.83333   0.19595   0.00000  Uiso   1.00
O315   O     0.57608   0.83334   0.13739   0.00000  Uiso   1.00
O316   O     0.42392   0.83334   0.11950   0.00000  Uiso   1.00
O317   O     0.57608   0.83333   0.21383   0.00000  Uiso   1.00
O318   O     0.57710   0.70594   0.12419   0.00000  Uiso   1.00
Zn319  Zn    0.50000   0.83333   0.21771   0.00000  Uiso   1.00
Zn320  Zn    0.50000   0.83334   0.11563   0.00000  Uiso   1.00
C321   C     0.83477   0.75343   0.16699   0.00000  Uiso   1.00
C322   C     0.79924   0.68895   0.19010   0.00000  Uiso   1.00
C323   C     0.83055   0.95737   0.16564   0.00000  Uiso   1.00
C324   C     0.83612   0.70930   0.16769   0.00000  Uiso   1.00
C325   C     0.86636   0.85906   0.02813   0.00000  Uiso   1.00
C326   C     0.80030   0.80761   0.30520   0.00000  Uiso   1.00
C327   C     0.86635   0.85905   0.31354   0.00000  Uiso   1.00
C328   C     0.80032   0.80762   0.01979   0.00000  Uiso   1.00
C329   C     0.83190   0.91323   0.16634   0.00000  Uiso   1.00
C330   C     0.73371   0.83331   0.15469   0.00000  Uiso   1.00
C331   C     0.93296   0.83335   0.17864   0.00000  Uiso   1.00
C332   C     0.67865   0.83334   0.14826   0.00000  Uiso   1.00
C333   C     0.98801   0.83333   0.18507   0.00000  Uiso   1.00
C334   C     0.87135   0.68726   0.14460   0.00000  Uiso   1.00
C335   C     0.79531   0.97941   0.18873   0.00000  Uiso   1.00
C336   C     0.86743   0.97771   0.14324   0.00000  Uiso   1.00
H337   H     0.99134   0.83337   0.11335   0.00000  Uiso   1.00
H338   H     0.74894   0.93236   0.19646   0.00000  Uiso   1.00
H339   H     0.67533   0.83330   0.21998   0.00000  Uiso   1.00
H340   H     0.89466   0.96007   0.12617   0.00000  Uiso   1.00
H341   H     0.77201   0.70659   0.20716   0.00000  Uiso   1.00
H342   H     0.89279   0.87964   0.04958   0.00000  Uiso   1.00
H343   H     0.77387   0.78702   0.28375   0.00000  Uiso   1.00
H344   H     0.89276   0.87963   0.29876   0.00000  Uiso   1.00
H345   H     0.77390   0.78704   0.03458   0.00000  Uiso   1.00
H346   H     0.91773   0.73431   0.13688   0.00000  Uiso   1.00
N347   N     0.83332   0.83332   0.28573   0.00000  Uiso   1.00
N348   N     0.83335   0.83334   0.04760   0.00000  Uiso   1.00
O349   O     0.83333   0.77225   0.20487   0.00000  Uiso   1.00
O350   O     0.75623   0.96073   0.20915   0.00000  Uiso   1.00
O351   O     0.83334   0.89442   0.12846   0.00000  Uiso   1.00
O352   O     0.83333   0.77226   0.12843   0.00000  Uiso   1.00
O353   O     0.83334   0.89441   0.20490   0.00000  Uiso   1.00
O354   O     0.75725   0.83333   0.19595   0.00000  Uiso   1.00
O355   O     0.90942   0.83334   0.13739   0.00000  Uiso   1.00
O356   O     0.75725   0.83334   0.11950   0.00000  Uiso   1.00
O357   O     0.90942   0.83333   0.21383   0.00000  Uiso   1.00
O358   O     0.91043   0.70594   0.12419   0.00000  Uiso   1.00
Zn359  Zn    0.83333   0.83333   0.21771   0.00000  Uiso   1.00
Zn360  Zn    0.83333   0.83334   0.11563   0.00000  Uiso   1.00
C361   C     0.16810   0.08677   0.50032   0.00000  Uiso   1.00
C362   C     0.13257   0.02229   0.52343   0.00000  Uiso   1.00
C363   C     0.16388   0.29070   0.49897   0.00000  Uiso   1.00
C364   C     0.16945   0.04263   0.50103   0.00000  Uiso   1.00
C365   C     0.19970   0.19239   0.36146   0.00000  Uiso   1.00
C366   C     0.13364   0.14094   0.63854   0.00000  Uiso   1.00
C367   C     0.19968   0.19238   0.64687   0.00000  Uiso   1.00
C368   C     0.13365   0.14095   0.35313   0.00000  Uiso   1.00
C369   C     0.16523   0.24657   0.49968   0.00000  Uiso   1.00
C370   C     0.06704   0.16665   0.48803   0.00000  Uiso   1.00
C371   C     0.26629   0.16669   0.51197   0.00000  Uiso   1.00
C372   C     0.01199   0.16667   0.48160   0.00000  Uiso   1.00
C373   C     0.32135   0.16666   0.51840   0.00000  Uiso   1.00
C374   C     0.20469   0.02059   0.47794   0.00000  Uiso   1.00
C375   C     0.12865   0.31274   0.52206   0.00000  Uiso   1.00
C376   C     0.20076   0.31105   0.47657   0.00000  Uiso   1.00
H377   H     0.32467   0.16670   0.44669   0.00000  Uiso   1.00
H378   H     0.08227   0.26569   0.52979   0.00000  Uiso   1.00
H379   H     0.00866   0.16663   0.55331   0.00000  Uiso   1.00
H380   H     0.22799   0.29341   0.45950   0.00000  Uiso   1.00
H381   H     0.10534   0.03993   0.54050   0.00000  Uiso   1.00
H382   H     0.22613   0.21298   0.38292   0.00000  Uiso   1.00
H383   H     0.10721   0.12036   0.61708   0.00000  Uiso   1.00
H384   H     0.22609   0.21296   0.63209   0.00000  Uiso   1.00
H385   H     0.10724   0.12037   0.36791   0.00000  Uiso   1.00
H386   H     0.25106   0.06764   0.47021   0.00000  Uiso   1.00
N387   N     0.16665   0.16666   0.61907   0.00000  Uiso   1.00
N388   N     0.16668   0.16668   0.38093   0.00000  Uiso   1.00
O389   O     0.16666   0.10558   0.53821   0.00000  Uiso   1.00
O390   O     0.08957   0.29406   0.54248   0.00000  Uiso   1.00
O391   O     0.16667   0.22775   0.46179   0.00000  Uiso   1.00
O392   O     0.16666   0.10559   0.46176   0.00000  Uiso   1.00
O393   O     0.16667   0.22774   0.53824   0.00000  Uiso   1.00
O394   O     0.09058   0.16666   0.52928   0.00000  Uiso   1.00
O395   O     0.24275   0.16667   0.47072   0.00000  Uiso   1.00
O396   O     0.09058   0.16667   0.45284   0.00000  Uiso   1.00
O397   O     0.24275   0.16666   0.54716   0.00000  Uiso   1.00
O398   O     0.24377   0.03927   0.45752   0.00000  Uiso   1.00
Zn399  Zn    0.16667   0.16666   0.55104   0.00000  Uiso   1.00
Zn400  Zn    0.16667   0.16667   0.44896   0.00000  Uiso   1.00
C401   C     0.50144   0.08677   0.50032   0.00000  Uiso   1.00
C402   C     0.46590   0.02229   0.52343   0.00000  Uiso   1.00
C403   C     0.49721   0.29070   0.49897   0.00000  Uiso   1.00
C404   C     0.50279   0.04263   0.50103   0.00000  Uiso   1.00
C405   C     0.53303   0.19239   0.36146   0.00000  Uiso   1.00
C406   C     0.46697   0.14094   0.63854   0.00000  Uiso   1.00
C407   C     0.53301   0.19238   0.64687   0.00000  Uiso   1.00
C408   C     0.46699   0.14095   0.35313   0.00000  Uiso   1.00
C409   C     0.49856   0.24657   0.49968   0.00000  Uiso   1.00
C410   C     0.40038   0.16665   0.48803   0.00000  Uiso   1.00
C411   C     0.59962   0.16669   0.51197   0.00000  Uiso   1.00
C412   C     0.34532   0.16667   0.48160   0.00000  Uiso   1.00
C413   C     0.65468   0.16666   0.51840   0.00000  Uiso   1.00
C414   C     0.53802   0.02059   0.47794   0.00000  Uiso   1.00
C415   C     0.46198   0.31274   0.52206   0.00000  Uiso   1.00
C416   C     0.53410   0.31105   0.47657   0.00000  Uiso   1.00
H417   H     0.65800   0.16670   0.44669   0.00000  Uiso   1.00
H418   H     0.41561   0.26569   0.52979   0.00000  Uiso   1.00
H419   H     0.34200   0.16663   0.55331   0.00000  Uiso   1.00
H420   H     0.56132   0.29341   0.45950   0.00000  Uiso   1.00
H421   H     0.43868   0.03993   0.54050   0.00000  Uiso   1.00
H422   H     0.55946   0.21298   0.38292   0.00000  Uiso   1.00
H423   H     0.44054   0.12036   0.61708   0.00000  Uiso   1.00
H424   H     0.55943   0.21296   0.63209   0.00000  Uiso   1.00
H425   H     0.44057   0.12037   0.36791   0.00000  Uiso   1.00
H426   H     0.58440   0.06764   0.47021   0.00000  Uiso   1.00
N427   N     0.49999   0.16666   0.61907   0.00000  Uiso   1.00
N428   N     0.50001   0.16668   0.38093   0.00000  Uiso   1.00
O429   O     0.50000   0.10558   0.53821   0.00000  Uiso   1.00
O430   O     0.42290   0.29406   0.54248   0.00000  Uiso   1.00
O431   O     0.50000   0.22775   0.46179   0.00000  Uiso   1.00
O432   O     0.50000   0.10559   0.46176   0.00000  Uiso   1.00
O433   O     0.50000   0.22774   0.53824   0.00000  Uiso   1.00
O434   O     0.42392   0.16666   0.52928   0.00000  Uiso   1.00
O435   O     0.57608   0.16667   0.47072   0.00000  Uiso   1.00
O436   O     0.42392   0.16667   0.45284   0.00000  Uiso   1.00
O437   O     0.57608   0.16666   0.54716   0.00000  Uiso   1.00
O438   O     0.57710   0.03927   0.45752   0.00000  Uiso   1.00
Zn439  Zn    0.50000   0.16666   0.55104   0.00000  Uiso   1.00
Zn440  Zn    0.50000   0.16667   0.44896   0.00000  Uiso   1.00
C441   C     0.83477   0.08677   0.50032   0.00000  Uiso   1.00
C442   C     0.79924   0.02229   0.52343   0.00000  Uiso   1.00
C443   C     0.83055   0.29070   0.49897   0.00000  Uiso   1.00
C444   C     0.83612   0.04263   0.50103   0.00000  Uiso   1.00
C445   C     0.86636   0.19239   0.36146   0.00000  Uiso   1.00
C446   C     0.80030   0.14094   0.63854   0.00000  Uiso   1.00
C447   C     0.86635   0.19238   0.64687   0.00000  Uiso   1.00
C448   C     0.80032   0.14095   0.35313   0.00000  Uiso   1.00
C449   C     0.83190   0.24657   0.49968   0.00000  Uiso   1.00
C450   C     0.73371   0.16665   0.48803   0.00000  Uiso   1.00
C451   C     0.93296   0.16669   0.51197   0.00000  Uiso   1.00
C452   C     0.67865   0.16667   0.48160   0.00000  Uiso   1.00
C453   C     0.98801   0.16666   0.51840   0.00000  Uiso   1.00
C454   C     0.87135   0.02059   0.47794   0.00000  Uiso   1.00
C455   C     0.79531   0.31274   0.52206   0.00000  Uiso   1.00
C456   C     0.86743   0.31105   0.47657   0.00000  Uiso   1.00
H457   H     0.99134   0.16670   0.44669   0.00000  Uiso   1.00
H458   H     0.74894   0.26569   0.52979   0.00000  Uiso   1.00
H459   H     0.67533   0.16663   0.55331   0.00000  Uiso   1.00
H460   H     0.89466   0.29341   0.45950   0.00000  Uiso   1.00
H461   H     0.77201   0.03993   0.54050   0.00000  Uiso   1.00
H462   H     0.89279   0.21298   0.38292   0.00000  Uiso   1.00
H463   H     0.77387   0.12036   0.61708   0.00000  Uiso   1.00
H464   H     0.89276   0.21296   0.63209   0.00000  Uiso   1.00
H465   H     0.77390   0.12037   0.36791   0.00000  Uiso   1.00
H466   H     0.91773   0.06764   0.47021   0.00000  Uiso   1.00
N467   N     0.83332   0.16666   0.61907   0.00000  Uiso   1.00
N468   N     0.83335   0.16668   0.38093   0.00000  Uiso   1.00
O469   O     0.83333   0.10558   0.53821   0.00000  Uiso   1.00
O470   O     0.75623   0.29406   0.54248   0.00000  Uiso   1.00
O471   O     0.83334   0.22775   0.46179   0.00000  Uiso   1.00
O472   O     0.83333   0.10559   0.46176   0.00000  Uiso   1.00
O473   O     0.83334   0.22774   0.53824   0.00000  Uiso   1.00
O474   O     0.75725   0.16666   0.52928   0.00000  Uiso   1.00
O475   O     0.90942   0.16667   0.47072   0.00000  Uiso   1.00
O476   O     0.75725   0.16667   0.45284   0.00000  Uiso   1.00
O477   O     0.90942   0.16666   0.54716   0.00000  Uiso   1.00
O478   O     0.91043   0.03927   0.45752   0.00000  Uiso   1.00
Zn479  Zn    0.83333   0.16666   0.55104   0.00000  Uiso   1.00
Zn480  Zn    0.83333   0.16667   0.44896   0.00000  Uiso   1.00
C481   C     0.16810   0.42010   0.50032   0.00000  Uiso   1.00
C482   C     0.13257   0.35562   0.52343   0.00000  Uiso   1.00
C483   C     0.16388   0.62404   0.49897   0.00000  Uiso   1.00
C484   C     0.16945   0.37596   0.50103   0.00000  Uiso   1.00
C485   C     0.19970   0.52572   0.36146   0.00000  Uiso   1.00
C486   C     0.13364   0.47428   0.63854   0.00000  Uiso   1.00
C487   C     0.19968   0.52571   0.64687   0.00000  Uiso   1.00
C488   C     0.13365   0.47429   0.35313   0.00000  Uiso   1.00
C489   C     0.16523   0.57990   0.49968   0.00000  Uiso   1.00
C490   C     0.06704   0.49998   0.48803   0.00000  Uiso   1.00
C491   C     0.26629   0.50002   0.51197   0.00000  Uiso   1.00
C492   C     0.01199   0.50000   0.48160   0.00000  Uiso   1.00
C493   C     0.32135   0.50000   0.51840   0.00000  Uiso   1.00
C494   C     0.20469   0.35393   0.47794   0.00000  Uiso   1.00
C495   C     0.12865   0.64607   0.52206   0.00000  Uiso   1.00
C496   C     0.20076   0.64438   0.47657   0.00000  Uiso   1.00
H497   H     0.32467   0.50003   0.44669   0.00000  Uiso   1.00
H498   H     0.08227   0.59902   0.52979   0.00000  Uiso   1.00
H499   H     0.00866   0.49997   0.55331   0.00000  Uiso   1.00
H500   H     0.22799   0.62674   0.45950   0.00000  Uiso   1.00
H501   H     0.10534   0.37326   0.54050   0.00000  Uiso   1.00
H502   H     0.22613   0.54631   0.38292   0.00000  Uiso   1.00
H503   H     0.10721   0.45369   0.61708   0.00000  Uiso   1.00
H504   H     0.22609   0.54629   0.63209   0.00000  Uiso   1.00
H505   H     0.10724   0.45371   0.36791   0.00000  Uiso   1.00
H506   H     0.25106   0.40097   0.47021   0.00000  Uiso   1.00
N507   N     0.16665   0.49999   0.61907   0.00000  Uiso   1.00
N508   N     0.16668   0.50001   0.38093   0.00000  Uiso   1.00
O509   O     0.16666   0.43892   0.53821   0.00000  Uiso   1.00
O510   O     0.08957   0.62740   0.54248   0.00000  Uiso   1.00
O511   O     0.16667   0.56108   0.46179   0.00000  Uiso   1.00
O512   O     0.16666   0.43893   0.46176   0.00000  Uiso   1.00
O513   O     0.16667   0.56107   0.53824   0.00000  Uiso   1.00
O514   O     0.09058   0.50000   0.52928   0.00000  Uiso   1.00
O515   O     0.24275   0.50000   0.47072   0.00000  Uiso   1.00
O516   O     0.09058   0.50000   0.45284   0.00000  Uiso   1.00
O517   O     0.24275   0.50000   0.54716   0.00000  Uiso   1.00
O518   O     0.24377   0.37260   0.45752   0.00000  Uiso   1.00
Zn519  Zn    0.16667   0.49999   0.55104   0.00000  Uiso   1.00
Zn520  Zn    0.16667   0.50001   0.44896   0.00000  Uiso   1.00
C521   C     0.50144   0.42010   0.50032   0.00000  Uiso   1.00
C522   C     0.46590   0.35562   0.52343   0.00000  Uiso   1.00
C523   C     0.49721   0.62404   0.49897   0.00000  Uiso   1.00
C524   C     0.50279   0.37596   0.50103   0.00000  Uiso   1.00
C525   C     0.53303   0.52572   0.36146   0.00000  Uiso   1.00
C526   C     0.46697   0.47428   0.63854   0.00000  Uiso   1.00
C527   C     0.53301   0.52571   0.64687   0.00000  Uiso   1.00
C528   C     0.46699   0.47429   0.35313   0.00000  Uiso   1.00
C529   C     0.49856   0.57990   0.49968   0.00000  Uiso   1.00
C530   C     0.40038   0.49998   0.48803   0.00000  Uiso   1.00
C531   C     0.59962   0.50002   0.51197   0.00000  Uiso   1.00
C532   C     0.34532   0.50000   0.48160   0.00000  Uiso   1.00
C533   C     0.65468   0.50000   0.51840   0.00000  Uiso   1.00
C534   C     0.53802   0.35393   0.47794   0.00000  Uiso   1.00
C535   C     0.46198   0.64607   0.52206   0.00000  Uiso   1.00
C536   C     0.53410   0.64438   0.47657   0.00000  Uiso   1.00
H537   H     0.65800   0.50003   0.44669   0.00000  Uiso   1.00
H538   H     0.41561   0.59902   0.52979   0.00000  Uiso   1.00
H539   H     0.34200   0.49997   0.55331   0.00000  Uiso   1.00
H540   H     0.56132   0.62674   0.45950   0.00000  Uiso   1.00
H541   H     0.43868   0.37326   0.54050   0.00000  Uiso   1.00
H542   H     0.55946   0.54631   0.38292   0.00000  Uiso   1.00
H543   H     0.44054   0.45369   0.61708   0.00000  Uiso   1.00
H544   H     0.55943   0.54629   0.63209   0.00000  Uiso   1.00
H545   H     0.44057   0.45371   0.36791   0.00000  Uiso   1.00
H546   H     0.58440   0.40097   0.47021   0.00000  Uiso   1.00
N547   N     0.49999   0.49999   0.61907   0.00000  Uiso   1.00
N548   N     0.50001   0.50001   0.38093   0.00000  Uiso   1.00
O549   O     0.50000   0.43892   0.53821   0.00000  Uiso   1.00
O550   O     0.42290   0.62740   0.54248   0.00000  Uiso   1.00
O551   O     0.50000   0.56108   0.46179   0.00000  Uiso   1.00
O552   O     0.50000   0.43893   0.46176   0.00000  Uiso   1.00
O553   O     0.50000   0.56107   0.53824   0.00000  Uiso   1.00
O554   O     0.42392   0.50000   0.52928   0.00000  Uiso   1.00
O555   O     0.57608   0.50000   0.47072   0.00000  Uiso   1.00
O556   O     0.42392   0.50000   0.45284   0.00000  Uiso   1.00
O557   O     0.57608   0.50000   0.54716   0.00000  Uiso   1.00
O558   O     0.57710   0.37260   0.45752   0.00000  Uiso   1.00
Zn559  Zn    0.50000   0.49999   0.55104   0.00000  Uiso   1.00
Zn560  Zn    0.50000   0.50001   0.44896   0.00000  Uiso   1.00
C561   C     0.83477   0.42010   0.50032   0.00000  Uiso   1.00
C562   C     0.79924   0.35562   0.52343   0.00000  Uiso   1.00
C563   C     0.83055   0.62404   0.49897   0.00000  Uiso   1.00
C564   C     0.83612   0.37596   0.50103   0.00000  Uiso   1.00
C565   C     0.86636   0.52572   0.36146   0.00000  Uiso   1.00
C566   C     0.80030   0.47428   0.63854   0.00000  Uiso   1.00
C567   C     0.86635   0.52571   0.64687   0.00000  Uiso   1.00
C568   C     0.80032   0.47429   0.35313   0.00000  Uiso   1.00
C569   C     0.83190   0.57990   0.49968   0.00000  Uiso   1.00
C570   C     0.73371   0.49998   0.48803   0.00000  Uiso   1.00
C571   C     0.93296   0.50002   0.51197   0.00000  Uiso   1.00
C572   C     0.67865   0.50000   0.48160   0.00000  Uiso   1.00
C573   C     0.98801   0.50000   0.51840   0.00000  Uiso   1.00
C574   C     0.87135   0.35393   0.47794   0.00000  Uiso   1.00
C575   C     0.79531   0.64607   0.52206   0.00000  Uiso   1.00
C576   C     0.86743   0.64438   0.47657   0.00000  Uiso   1.00
H577   H     0.99134   0.50003   0.44669   0.00000  Uiso   1.00
H578   H     0.74894   0.59902   0.52979   0.00000  Uiso   1.00
H579   H     0.67533   0.49997   0.55331   0.00000  Uiso   1.00
H580   H     0.89466   0.62674   0.45950   0.00000  Uiso   1.00
H581   H     0.77201   0.37326   0.54050   0.00000  Uiso   1.00
H582   H     0.89279   0.54631   0.38292   0.00000  Uiso   1.00
H583   H     0.77387   0.45369   0.61708   0.00000  Uiso   1.00
H584   H     0.89276   0.54629   0.63209   0.00000  Uiso   1.00
H585   H     0.77390   0.45371   0.36791   0.00000  Uiso   1.00
H586   H     0.91773   0.40097   0.47021   0.00000  Uiso   1.00
N587   N     0.83332   0.49999   0.61907   0.00000  Uiso   1.00
N588   N     0.83335   0.50001   0.38093   0.00000  Uiso   1.00
O589   O     0.83333   0.43892   0.53821   0.00000  Uiso   1.00
O590   O     0.75623   0.62740   0.54248   0.00000  Uiso   1.00
O591   O     0.83334   0.56108   0.46179   0.00000  Uiso   1.00
O592   O     0.83333   0.43893   0.46176   0.00000  Uiso   1.00
O593   O     0.83334   0.56107   0.53824   0.00000  Uiso   1.00
O594   O     0.75725   0.50000   0.52928   0.00000  Uiso   1.00
O595   O     0.90942   0.50000   0.47072   0.00000  Uiso   1.00
O596   O     0.75725   0.50000   0.45284   0.00000  Uiso   1.00
O597   O     0.90942   0.50000   0.54716   0.00000  Uiso   1.00
O598   O     0.91043   0.37260   0.45752   0.00000  Uiso   1.00
Zn599  Zn    0.83333   0.49999   0.55104   0.00000  Uiso   1.00
Zn600  Zn    0.83333   0.50001   0.44896   0.00000  Uiso   1.00
C601   C     0.16810   0.75343   0.50032   0.00000  Uiso   1.00
C602   C     0.13257   0.68895   0.52343   0.00000  Uiso   1.00
C603   C     0.16388   0.95737   0.49897   0.00000  Uiso   1.00
C604   C     0.16945   0.70930   0.50103   0.00000  Uiso   1.00
C605   C     0.19970   0.85906   0.36146   0.00000  Uiso   1.00
C606   C     0.13364   0.80761   0.63854   0.00000  Uiso   1.00
C607   C     0.19968   0.85905   0.64687   0.00000  Uiso   1.00
C608   C     0.13365   0.80762   0.35313   0.00000  Uiso   1.00
C609   C     0.16523   0.91323   0.49968   0.00000  Uiso   1.00
C610   C     0.06704   0.83331   0.48803   0.00000  Uiso   1.00
C611   C     0.26629   0.83335   0.51197   0.00000  Uiso   1.00
C612   C     0.01199   0.83334   0.48160   0.00000  Uiso   1.00
C613   C     0.32135   0.83333   0.51840   0.00000  Uiso   1.00
C614   C     0.20469   0.68726   0.47794   0.00000  Uiso   1.00
C615   C     0.12865   0.97941   0.52206   0.00000  Uiso   1.00
C616   C     0.20076   0.97771   0.47657   0.00000  Uiso   1.00
H617   H     0.32467   0.83337   0.44669   0.00000  Uiso   1.00
H618   H     0.08227   0.93236   0.52979   0.00000  Uiso   1.00
H619   H     0.00866   0.83330   0.55331   0.00000  Uiso   1.00
H620   H     0.22799   0.96007   0.45950   0.00000  Uiso   1.00
H621   H     0.10534   0.70659   0.54050   0.00000  Uiso   1.00
H622   H     0.22613   0.87964   0.38292   0.00000  Uiso   1.00
H623   H     0.10721   0.78702   0.61708   0.00000  Uiso   1.00
H624   H     0.22609   0.87963   0.63209   0.00000  Uiso   1.00
H625   H     0.10724   0.78704   0.36791   0.00000  Uiso   1.00
H626   H     0.25106   0.73431   0.47021   0.00000  Uiso   1.00
N627   N     0.16665   0.83332   0.61907   0.00000  Uiso   1.00
N628   N     0.16668   0.83334   0.38093   0.00000  Uiso   1.00
O629   O     0.16666   0.77225   0.53821   0.00000  Uiso   1.00
O630   O     0.08957   0.96073   0.54248   0.00000  Uiso   1.00
O631   O     0.16667   0.89442   0.46179   0.00000  Uiso   1.00
O632   O     0.16666   0.77226   0.46176   0.00000  Uiso   1.00
O633   O     0.16667   0.89441   0.53824   0.00000  Uiso   1.00
O634   O     0.09058   0.83333   0.52928   0.00000  Uiso   1.00
O635   O     0.24275   0.83334   0.47072   0.00000  Uiso   1.00
O636   O     0.09058   0.83334   0.45284   0.00000  Uiso   1.00
O637   O     0.24275   0.83333   0.54716   0.00000  Uiso   1.00
O638   O     0.24377   0.70594   0.45752   0.00000  Uiso   1.00
Zn639  Zn    0.16667   0.83333   0.55104   0.00000  Uiso   1.00
Zn640  Zn    0.16667   0.83334   0.44896   0.00000  Uiso   1.00
C641   C     0.50144   0.75343   0.50032   0.00000  Uiso   1.00
C642   C     0.46590   0.68895   0.52343   0.00000  Uiso   1.00
C643   C     0.49721   0.95737   0.49897   0.00000  Uiso   1.00
C644   C     0.50279   0.70930   0.50103   0.00000  Uiso   1.00
C645   C     0.53303   0.85906   0.36146   0.00000  Uiso   1.00
C646   C     0.46697   0.80761   0.63854   0.00000  Uiso   1.00
C647   C     0.53301   0.85905   0.64687   0.00000  Uiso   1.00
C648   C     0.46699   0.80762   0.35313   0.00000  Uiso   1.00
C649   C     0.49856   0.91323   0.49968   0.00000  Uiso   1.00
C650   C     0.40038   0.83331   0.48803   0.00000  Uiso   1.00
C651   C     0.59962   0.83335   0.51197   0.00000  Uiso   1.00
C652   C     0.34532   0.83334   0.48160   0.00000  Uiso   1.00
C653   C     0.65468   0.83333   0.51840   0.00000  Uiso   1.00
C654   C     0.53802   0.68726   0.47794   0.00000  Uiso   1.00
C655   C     0.46198   0.97941   0.52206   0.00000  Uiso   1.00
C656   C     0.53410   0.97771   0.47657   0.00000  Uiso   1.00
H657   H     0.65800   0.83337   0.44669   0.00000  Uiso   1.00
H658   H     0.41561   0.93236   0.52979   0.00000  Uiso   1.00
H659   H     0.34200   0.83330   0.55331   0.00000  Uiso   1.00
H660   H     0.56132   0.96007   0.45950   0.00000  Uiso   1.00
H661   H     0.43868   0.70659   0.54050   0.00000  Uiso   1.00
H662   H     0.55946   0.87964   0.38292   0.00000  Uiso   1.00
H663   H     0.44054   0.78702   0.61708   0.00000  Uiso   1.00
H664   H     0.55943   0.87963   0.63209   0.00000  Uiso   1.00
H665   H     0.44057   0.78704   0.36791   0.00000  Uiso   1.00
H666   H     0.58440   0.73431   0.47021   0.00000  Uiso   1.00
N667   N     0.49999   0.83332   0.61907   0.00000  Uiso   1.00
N668   N     0.50001   0.83334   0.38093   0.00000  Uiso   1.00
O669   O     0.50000   0.77225   0.53821   0.00000  Uiso   1.00
O670   O     0.42290   0.96073   0.54248   0.00000  Uiso   1.00
O671   O     0.50000   0.89442   0.46179   0.00000  Uiso   1.00
O672   O     0.50000   0.77226   0.46176   0.00000  Uiso   1.00
O673   O     0.50000   0.89441   0.53824   0.00000  Uiso   1.00
O674   O     0.42392   0.83333   0.52928   0.00000  Uiso   1.00
O675   O     0.57608   0.83334   0.47072   0.00000  Uiso   1.00
O676   O     0.42392   0.83334   0.45284   0.00000  Uiso   1.00
O677   O     0.57608   0.83333   0.54716   0.00000  Uiso   1.00
O678   O     0.57710   0.70594   0.45752   0.00000  Uiso   1.00
Zn679  Zn    0.50000   0.83333   0.55104   0.00000  Uiso   1.00
Zn680  Zn    0.50000   0.83334   0.44896   0.00000  Uiso   1.00
C681   C     0.83477   0.75343   0.50032   0.00000  Uiso   1.00
C682   C     0.79924   0.68895   0.52343   0.00000  Uiso   1.00
C683   C     0.83055   0.95737   0.49897   0.00000  Uiso   1.00
C684   C     0.83612   0.70930   0.50103   0.00000  Uiso   1.00
C685   C     0.86636   0.85906   0.36146   0.00000  Uiso   1.00
C686   C     0.80030   0.80761   0.63854   0.00000  Uiso   1.00
C687   C     0.86635   0.85905   0.64687   0.00000  Uiso   1.00
C688   C     0.80032   0.80762   0.35313   0.00000  Uiso   1.00
C689   C     0.83190   0.91323   0.49968   0.00000  Uiso   1.00
C690   C     0.73371   0.83331   0.48803   0.00000  Uiso   1.00
C691   C     0.93296   0.83335   0.51197   0.00000  Uiso   1.00
C692   C     0.67865   0.83334   0.48160   0.00000  Uiso   1.00
C693   C     0.98801   0.83333   0.51840   0.00000  Uiso   1.00
C694   C     0.87135   0.68726   0.47794   0.00000  Uiso   1.00
C695   C     0.79531   0.97941   0.52206   0.00000  Uiso   1.00
C696   C     0.86743   0.97771   0.47657   0.00000  Uiso   1.00
H697   H     0.99134   0.83337   0.44669   0.00000  Uiso   1.00
H698   H     0.74894   0.93236   0.52979   0.00000  Uiso   1.00
H699   H     0.67533   0.83330   0.55331   0.00000  Uiso   1.00
H700   H     0.89466   0.96007   0.45950   0.00000  Uiso   1.00
H701   H     0.77201   0.70659   0.54050   0.00000  Uiso   1.00
H702   H     0.89279   0.87964   0.38292   0.00000  Uiso   1.00
H703   H     0.77387   0.78702   0.61708   0.00000  Uiso   1.00
H704   H     0.89276   0.87963   0.63209   0.00000  Uiso   1.00
H705   H     0.77390   0.78704   0.36791   0.00000  Uiso   1.00
H706   H     0.91773   0.73431   0.47021   0.00000  Uiso   1.00
N707   N     0.83332   0.83332   0.61907   0.00000  Uiso   1.00
N708   N     0.83335   0.83334   0.38093   0.00000  Uiso   1.00
O709   O     0.83333   0.77225   0.53821   0.00000  Uiso   1.00
O710   O     0.75623   0.96073   0.54248   0.00000  Uiso   1.00
O711   O     0.83334   0.89442   0.46179   0.00000  Uiso   1.00
O712   O     0.83333   0.77226   0.46176   0.00000  Uiso   1.00
O713   O     0.83334   0.89441   0.53824   0.00000  Uiso   1.00
O714   O     0.75725   0.83333   0.52928   0.00000  Uiso   1.00
O715   O     0.90942   0.83334   0.47072   0.00000  Uiso   1.00
O716   O     0.75725   0.83334   0.45284   0.00000  Uiso   1.00
O717   O     0.90942   0.83333   0.54716   0.00000  Uiso   1.00
O718   O     0.91043   0.70594   0.45752   0.00000  Uiso   1.00
Zn719  Zn    0.83333   0.83333   0.55104   0.00000  Uiso   1.00
Zn720  Zn    0.83333   0.83334   0.44896   0.00000  Uiso   1.00
C721   C     0.16810   0.08677   0.83366   0.00000  Uiso   1.00
C722   C     0.13257   0.02229   0.85676   0.00000  Uiso   1.00
C723   C     0.16388   0.29070   0.83231   0.00000  Uiso   1.00
C724   C     0.16945   0.04263   0.83436   0.00000  Uiso   1.00
C725   C     0.19970   0.19239   0.69480   0.00000  Uiso   1.00
C726   C     0.13364   0.14094   0.97187   0.00000  Uiso   1.00
C727   C     0.19968   0.19238   0.98021   0.00000  Uiso   1.00
C728   C     0.13365   0.14095   0.68646   0.00000  Uiso   1.00
C729   C     0.16523   0.24657   0.83301   0.00000  Uiso   1.00
C730   C     0.06704   0.16665   0.82136   0.00000  Uiso   1.00
C731   C     0.26629   0.16669   0.84531   0.00000  Uiso   1.00
C732   C     0.01199   0.16667   0.81493   0.00000  Uiso   1.00
C733   C     0.32135   0.16666   0.85174   0.00000  Uiso   1.00
C734   C     0.20469   0.02059   0.81127   0.00000  Uiso   1.00
C735   C     0.12865   0.31274   0.85540   0.00000  Uiso   1.00
C736   C     0.20076   0.31105   0.80990   0.00000  Uiso   1.00
H737   H     0.32467   0.16670   0.78002   0.00000  Uiso   1.00
H738   H     0.08227   0.26569   0.86312   0.00000  Uiso   1.00
H739   H     0.00866   0.16663   0.88665   0.00000  Uiso   1.00
H740   H     0.22799   0.29341   0.79284   0.00000  Uiso   1.00
H741   H     0.10534   0.03993   0.87383   0.00000  Uiso   1.00
H742   H     0.22613   0.21298   0.71625   0.00000  Uiso   1.00
H743   H     0.10721   0.12036   0.95042   0.00000  Uiso   1.00
H744   H     0.22609   0.21296   0.96542   0.00000  Uiso   1.00
H745   H     0.10724   0.12037   0.70124   0.00000  Uiso   1.00
H746   H     0.25106   0.06764   0.80355   0.00000  Uiso   1.00
N747   N     0.16665   0.16666   0.95240   0.00000  Uiso   1.00
N748   N     0.16668   0.16668   0.71427   0.00000  Uiso   1.00
O749   O     0.16666   0.10558   0.87154   0.00000  Uiso   1.00
O750   O     0.08957   0.29406   0.87581   0.00000  Uiso   1.00
O751   O     0.16667   0.22775   0.79513   0.00000  Uiso   1.00
O752   O     0.16666   0.10559   0.79510   0.00000  Uiso   1.00
O753   O     0.16667   0.22774   0.87157   0.00000  Uiso   1.00
O754   O     0.09058   0.16666   0.86261   0.00000  Uiso   1.00
O755   O     0.24275   0.16667   0.80405   0.00000  Uiso   1.00
O756   O     0.09058   0.16667   0.78617   0.00000  Uiso   1.00
O757   O     0.24275   0.16666   0.88050   0.00000  Uiso   1.00
O758   O     0.24377   0.03927   0.79085   0.00000  Uiso   1.00
Zn759  Zn    0.16667   0.16666   0.88437   0.00000  Uiso   1.00
Zn760  Zn    0.16667   0.16667   0.78229   0.00000  Uiso   1.00
C761   C     0.50144   0.08677   0.83366   0.00000  Uiso   1.00
C762   C     0.46590   0.02229   0.85676   0.00000  Uiso   1.00
C763   C     0.49721   0.29070   0.83231   0.00000  Uiso   1.00
C764   C     0.50279   0.04263   0.83436   0.00000  Uiso   1.00
C765   C     0.53303   0.19239   0.69480   0.00000  Uiso   1.00
C766   C     0.46697   0.14094   0.97187   0.00000  Uiso   1.00
C767   C     0.53301   0.19238   0.98021   0.00000  Uiso   1.00
C768   C     0.46699   0.14095   0.68646   0.00000  Uiso   1.00
C769   C     0.49856   0.24657   0.83301   0.00000  Uiso   1.00
C770   C     0.40038   0.16665   0.82136   0.00000  Uiso   1.00
C771   C     0.59962   0.16669   0.84531   0.00000  Uiso   1.00
C772   C     0.34532   0.16667   0.81493   0.00000  Uiso   1.00
C773   C     0.65468   0.16666   0.85174   0.00000  Uiso   1.00
C774   C     0.53802   0.02059   0.81127   0.00000  Uiso   1.00
C775   C     0.46198   0.31274   0.85540   0.00000  Uiso   1.00
C776   C     0.53410   0.31105   0.80990   0.00000  Uiso   1.00
H777   H     0.65800   0.16670   0.78002   0.00000  Uiso   1.00
H778   H     0.41561   0.26569   0.86312   0.00000  Uiso   1.00
H779   H     0.34200   0.16663   0.88665   0.00000  Uiso   1.00
H780   H     0.56132   0.29341   0.79284   0.00000  Uiso   1.00
H781   H     0.43868   0.03993   0.87383   0.00000  Uiso   1.00
H782   H     0.55946   0.21298   0.71625   0.00000  Uiso   1.00
H783   H     0.44054   0.12036   0.95042   0.00000  Uiso   1.00
H784   H     0.55943   0.21296   0.96542   0.00000  Uiso   1.00
H785   H     0.44057   0.12037   0.70124   0.00000  Uiso   1.00
H786   H     0.58440   0.06764   0.80355   0.00000  Uiso   1.00
N787   N     0.49999   0.16666   0.95240   0.00000  Uiso   1.00
N788   N     0.50001   0.16668   0.71427   0.00000  Uiso   1.00
O789   O     0.50000   0.10558   0.87154   0.00000  Uiso   1.00
O790   O     0.42290   0.29406   0.87581   0.00000  Uiso   1.00
O791   O     0.50000   0.22775   0.79513   0.00000  Uiso   1.00
O792   O     0.50000   0.10559   0.79510   0.00000  Uiso   1.00
O793   O     0.50000   0.22774   0.87157   0.00000  Uiso   1.00
O794   O     0.42392   0.16666   0.86261   0.00000  Uiso   1.00
O795   O     0.57608   0.16667   0.80405   0.00000  Uiso   1.00
O796   O     0.42392   0.16667   0.78617   0.00000  Uiso   1.00
O797   O     0.57608   0.16666   0.88050   0.00000  Uiso   1.00
O798   O     0.57710   0.03927   0.79085   0.00000  Uiso   1.00
Zn799  Zn    0.50000   0.16666   0.88437   0.00000  Uiso   1.00
Zn800  Zn    0.50000   0.16667   0.78229   0.00000  Uiso   1.00
C801   C     0.83477   0.08677   0.83366   0.00000  Uiso   1.00
C802   C     0.79924   0.02229   0.85676   0.00000  Uiso   1.00
C803   C     0.83055   0.29070   0.83231   0.00000  Uiso   1.00
C804   C     0.83612   0.04263   0.83436   0.00000  Uiso   1.00
C805   C     0.86636   0.19239   0.69480   0.00000  Uiso   1.00
C806   C     0.80030   0.14094   0.97187   0.00000  Uiso   1.00
C807   C     0.86635   0.19238   0.98021   0.00000  Uiso   1.00
C808   C     0.80032   0.14095   0.68646   0.00000  Uiso   1.00
C809   C     0.83190   0.24657   0.83301   0.00000  Uiso   1.00
C810   C     0.73371   0.16665   0.82136   0.00000  Uiso   1.00
C811   C     0.93296   0.16669   0.84531   0.00000  Uiso   1.00
C812   C     0.67865   0.16667   0.81493   0.00000  Uiso   1.00
C813   C     0.98801   0.16666   0.85174   0.00000  Uiso   1.00
C814   C     0.87135   0.02059   0.81127   0.00000  Uiso   1.00
C815   C     0.79531   0.31274   0.85540   0.00000  Uiso   1.00
C816   C     0.86743   0.31105   0.80990   0.00000  Uiso   1.00
H817   H     0.99134   0.16670   0.78002   0.00000  Uiso   1.00
H818   H     0.74894   0.26569   0.86312   0.00000  Uiso   1.00
H819   H     0.67533   0.16663   0.88665   0.00000  Uiso   1.00
H820   H     0.89466   0.29341   0.79284   0.00000  Uiso   1.00
H821   H     0.77201   0.03993   0.87383   0.00000  Uiso   1.00
H822   H     0.89279   0.21298   0.71625   0.00000  Uiso   1.00
H823   H     0.77387   0.12036   0.95042   0.00000  Uiso   1.00
H824   H     0.89276   0.21296   0.96542   0.00000  Uiso   1.00
H825   H     0.77390   0.12037   0.70124   0.00000  Uiso   1.00
H826   H     0.91773   0.06764   0.80355   0.00000  Uiso   1.00
N827   N     0.83332   0.16666   0.95240   0.00000  Uiso   1.00
N828   N     0.83335   0.16668   0.71427   0.00000  Uiso   1.00
O829   O     0.83333   0.10558   0.87154   0.00000  Uiso   1.00
O830   O     0.75623   0.29406   0.87581   0.00000  Uiso   1.00
O831   O     0.83334   0.22775   0.79513   0.00000  Uiso   1.00
O832   O     0.83333   0.10559   0.79510   0.00000  Uiso   1.00
O833   O     0.83334   0.22774   0.87157   0.00000  Uiso   1.00
O834   O     0.75725   0.16666   0.86261   0.00000  Uiso   1.00
O835   O     0.90942   0.16667   0.80405   0.00000  Uiso   1.00
O836   O     0.75725   0.16667   0.78617   0.00000  Uiso   1.00
O837   O     0.90942   0.16666   0.88050   0.00000  Uiso   1.00
O838   O     0.91043   0.03927   0.79085   0.00000  Uiso   1.00
Zn839  Zn    0.83333   0.16666   0.88437   0.00000  Uiso   1.00
Zn840  Zn    0.83333   0.16667   0.78229   0.00000  Uiso   1.00
C841   C     0.16810   0.42010   0.83366   0.00000  Uiso   1.00
C842   C     0.13257   0.35562   0.85676   0.00000  Uiso   1.00
C843   C     0.16388   0.62404   0.83231   0.00000  Uiso   1.00
C844   C     0.16945   0.37596   0.83436   0.00000  Uiso   1.00
C845   C     0.19970   0.52572   0.69480   0.00000  Uiso   1.00
C846   C     0.13364   0.47428   0.97187   0.00000  Uiso   1.00
C847   C     0.19968   0.52571   0.98021   0.00000  Uiso   1.00
C848   C     0.13365   0.47429   0.68646   0.00000  Uiso   1.00
C849   C     0.16523   0.57990   0.83301   0.00000  Uiso   1.00
C850   C     0.06704   0.49998   0.82136   0.00000  Uiso   1.00
C851   C     0.26629   0.50002   0.84531   0.00000  Uiso   1.00
C852   C     0.01199   0.50000   0.81493   0.00000  Uiso   1.00
C853   C     0.32135   0.50000   0.85174   0.00000  Uiso   1.00
C854   C     0.20469   0.35393   0.81127   0.00000  Uiso   1.00
C855   C     0.12865   0.64607   0.85540   0.00000  Uiso   1.00
C856   C     0.20076   0.64438   0.80990   0.00000  Uiso   1.00
H857   H     0.32467   0.50003   0.78002   0.00000  Uiso   1.00
H858   H     0.08227   0.59902   0.86312   0.00000  Uiso   1.00
H859   H     0.00866   0.49997   0.88665   0.00000  Uiso   1.00
H860   H     0.22799   0.62674   0.79284   0.00000  Uiso   1.00
H861   H     0.10534   0.37326   0.87383   0.00000  Uiso   1.00
H862   H     0.22613   0.54631   0.71625   0.00000  Uiso   1.00
H863   H     0.10721   0.45369   0.95042   0.00000  Uiso   1.00
H864   H     0.22609   0.54629   0.96542   0.00000  Uiso   1.00
H865   H     0.10724   0.45371   0.70124   0.00000  Uiso   1.00
H866   H     0.25106   0.40097   0.80355   0.00000  Uiso   1.00
N867   N     0.16665   0.49999   0.95240   0.00000  Uiso   1.00
N868   N     0.16668   0.50001   0.71427   0.00000  Uiso   1.00
O869   O     0.16666   0.43892   0.87154   0.00000  Uiso   1.00
O870   O     0.08957   0.62740   0.87581   0.00000  Uiso   1.00
O871   O     0.16667   0.56108   0.79513   0.00000  Uiso   1.00
O872   O     0.16666   0.43893   0.79510   0.00000  Uiso   1.00
O873   O     0.16667   0.56107   0.87157   0.00000  Uiso   1.00
O874   O     0.09058   0.50000   0.86261   0.00000  Uiso   1.00
O875   O     0.24275   0.50000   0.80405   0.00000  Uiso   1.00
O876   O     0.09058   0.50000   0.78617   0.00000  Uiso   1.00
O877   O     0.24275   0.50000   0.88050   0.00000  Uiso   1.00
O878   O     0.24377   0.37260   0.79085   0.00000  Uiso   1.00
Zn879  Zn    0.16667   0.49999   0.88437   0.00000  Uiso   1.00
Zn880  Zn    0.16667   0.50001   0.78229   0.00000  Uiso   1.00
C881   C     0.50144   0.42010   0.83366   0.00000  Uiso   1.00
C882   C     0.46590   0.35562   0.85676   0.00000  Uiso   1.00
C883   C     0.49721   0.62404   0.83231   0.00000  Uiso   1.00
C884   C     0.50279   0.37596   0.83436   0.00000  Uiso   1.00
C885   C     0.53303   0.52572   0.69480   0.00000  Uiso   1.00
C886   C     0.46697   0.47428   0.97187   0.00000  Uiso   1.00
C887   C     0.53301   0.52571   0.98021   0.00000  Uiso   1.00
C888   C     0.46699   0.47429   0.68646   0.00000  Uiso   1.00
C889   C     0.49856   0.57990   0.83301   0.00000  Uiso   1.00
C890   C     0.40038   0.49998   0.82136   0.00000  Uiso   1.00
C891   C     0.59962   0.50002   0.84531   0.00000  Uiso   1.00
C892   C     0.34532   0.50000   0.81493   0.00000  Uiso   1.00
C893   C     0.65468   0.50000   0.85174   0.00000  Uiso   1.00
C894   C     0.53802   0.35393   0.81127   0.00000  Uiso   1.00
C895   C     0.46198   0.64607   0.85540   0.00000  Uiso   1.00
C896   C     0.53410   0.64438   0.80990   0.00000  Uiso   1.00
H897   H     0.65800   0.50003   0.78002   0.00000  Uiso   1.00
H898   H     0.41561   0.59902   0.86312   0.00000  Uiso   1.00
H899   H     0.34200   0.49997   0.88665   0.00000  Uiso   1.00
H900   H     0.56132   0.62674   0.79284   0.00000  Uiso   1.00
H901   H     0.43868   0.37326   0.87383   0.00000  Uiso   1.00
H902   H     0.55946   0.54631   0.71625   0.00000  Uiso   1.00
H903   H     0.44054   0.45369   0.95042   0.00000  Uiso   1.00
H904   H     0.55943   0.54629   0.96542   0.00000  Uiso   1.00
H905   H     0.44057   0.45371   0.70124   0.00000  Uiso   1.00
H906   H     0.58440   0.40097   0.80355   0.00000  Uiso   1.00
N907   N     0.49999   0.49999   0.95240   0.00000  Uiso   1.00
N908   N     0.50001   0.50001   0.71427   0.00000  Uiso   1.00
O909   O     0.50000   0.43892   0.87154   0.00000  Uiso   1.00
O910   O     0.42290   0.62740   0.87581   0.00000  Uiso   1.00
O911   O     0.50000   0.56108   0.79513   0.00000  Uiso   1.00
O912   O     0.50000   0.43893   0.79510   0.00000  Uiso   1.00
O913   O     0.50000   0.56107   0.87157   0.00000  Uiso   1.00
O914   O     0.42392   0.50000   0.86261   0.00000  Uiso   1.00
O915   O     0.57608   0.50000   0.80405   0.00000  Uiso   1.00
O916   O     0.42392   0.50000   0.78617   0.00000  Uiso   1.00
O917   O     0.57608   0.50000   0.88050   0.00000  Uiso   1.00
O918   O     0.57710   0.37260   0.79085   0.00000  Uiso   1.00
Zn919  Zn    0.50000   0.49999   0.88437   0.00000  Uiso   1.00
Zn920  Zn    0.50000   0.50001   0.78229   0.00000  Uiso   1.00
C921   C     0.83477   0.42010   0.83366   0.00000  Uiso   1.00
C922   C     0.79924   0.35562   0.85676   0.00000  Uiso   1.00
C923   C     0.83055   0.62404   0.83231   0.00000  Uiso   1.00
C924   C     0.83612   0.37596   0.83436   0.00000  Uiso   1.00
C925   C     0.86636   0.52572   0.69480   0.00000  Uiso   1.00
C926   C     0.80030   0.47428   0.97187   0.00000  Uiso   1.00
C927   C     0.86635   0.52571   0.98021   0.00000  Uiso   1.00
C928   C     0.80032   0.47429   0.68646   0.00000  Uiso   1.00
C929   C     0.83190   0.57990   0.83301   0.00000  Uiso   1.00
C930   C     0.73371   0.49998   0.82136   0.00000  Uiso   1.00
C931   C     0.93296   0.50002   0.84531   0.00000  Uiso   1.00
C932   C     0.67865   0.50000   0.81493   0.00000  Uiso   1.00
C933   C     0.98801   0.50000   0.85174   0.00000  Uiso   1.00
C934   C     0.87135   0.35393   0.81127   0.00000  Uiso   1.00
C935   C     0.79531   0.64607   0.85540   0.00000  Uiso   1.00
C936   C     0.86743   0.64438   0.80990   0.00000  Uiso   1.00
H937   H     0.99134   0.50003   0.78002   0.00000  Uiso   1.00
H938   H     0.74894   0.59902   0.86312   0.00000  Uiso   1.00
H939   H     0.67533   0.49997   0.88665   0.00000  Uiso   1.00
H940   H     0.89466   0.62674   0.79284   0.00000  Uiso   1.00
H941   H     0.77201   0.37326   0.87383   0.00000  Uiso   1.00
H942   H     0.89279   0.54631   0.71625   0.00000  Uiso   1.00
H943   H     0.77387   0.45369   0.95042   0.00000  Uiso   1.00
H944   H     0.89276   0.54629   0.96542   0.00000  Uiso   1.00
H945   H     0.77390   0.45371   0.70124   0.00000  Uiso   1.00
H946   H     0.91773   0.40097   0.80355   0.00000  Uiso   1.00
N947   N     0.83332   0.49999   0.95240   0.00000  Uiso   1.00
N948   N     0.83335   0.50001   0.71427   0.00000  Uiso   1.00
O949   O     0.83333   0.43892   0.87154   0.00000  Uiso   1.00
O950   O     0.75623   0.62740   0.87581   0.00000  Uiso   1.00
O951   O     0.83334   0.56108   0.79513   0.00000  Uiso   1.00
O952   O     0.83333   0.43893   0.79510   0.00000  Uiso   1.00
O953   O     0.83334   0.56107   0.87157   0.00000  Uiso   1.00
O954   O     0.75725   0.50000   0.86261   0.00000  Uiso   1.00
O955   O     0.90942   0.50000   0.80405   0.00000  Uiso   1.00
O956   O     0.75725   0.50000   0.78617   0.00000  Uiso   1.00
O957   O     0.90942   0.50000   0.88050   0.00000  Uiso   1.00
O958   O     0.91043   0.37260   0.79085   0.00000  Uiso   1.00
Zn959  Zn    0.83333   0.49999   0.88437   0.00000  Uiso   1.00
Zn960  Zn    0.83333   0.50001   0.78229   0.00000  Uiso   1.00
C961   C     0.16810   0.75343   0.83366   0.00000  Uiso   1.00
C962   C     0.13257   0.68895   0.85676   0.00000  Uiso   1.00
C963   C     0.16388   0.95737   0.83231   0.00000  Uiso   1.00
C964   C     0.16945   0.70930   0.83436   0.00000  Uiso   1.00
C965   C     0.19970   0.85906   0.69480   0.00000  Uiso   1.00
C966   C     0.13364   0.80761   0.97187   0.00000  Uiso   1.00
C967   C     0.19968   0.85905   0.98021   0.00000  Uiso   1.00
C968   C     0.13365   0.80762   0.68646   0.00000  Uiso   1.00
C969   C     0.16523   0.91323   0.83301   0.00000  Uiso   1.00
C970   C     0.06704   0.83331   0.82136   0.00000  Uiso   1.00
C971   C     0.26629   0.83335   0.84531   0.00000  Uiso   1.00
C972   C     0.01199   0.83334   0.81493   0.00000  Uiso   1.00
C973   C     0.32135   0.83333   0.85174   0.00000  Uiso   1.00
C974   C     0.20469   0.68726   0.81127   0.00000  Uiso   1.00
C975   C     0.12865   0.97941   0.85540   0.00000  Uiso   1.00
C976   C     0.20076   0.97771   0.80990   0.00000  Uiso   1.00
H977   H     0.32467   0.83337   0.78002   0.00000  Uiso   1.00
H978   H     0.08227   0.93236   0.86312   0.00000  Uiso   1.00
H979   H     0.00866   0.83330   0.88665   0.00000  Uiso   1.00
H980   H     0.22799   0.96007   0.79284   0.00000  Uiso   1.00
H981   H     0.10534   0.70659   0.87383   0.00000  Uiso   1.00
H982   H     0.22613   0.87964   0.71625   0.00000  Uiso   1.00
H983   H     0.10721   0.78702   0.95042   0.00000  Uiso   1.00
H984   H     0.22609   0.87963   0.96542   0.00000  Uiso   1.00
H985   H     0.10724   0.78704   0.70124   0.00000  Uiso   1.00
H986   H     0.25106   0.73431   0.80355   0.00000  Uiso   1.00
N987   N     0.16665   0.83332   0.95240   0.00000  Uiso   1.00
N988   N     0.16668   0.83334   0.71427   0.00000  Uiso   1.00
O989   O     0.16666   0.77225   0.87154   0.00000  Uiso   1.00
O990   O     0.08957   0.96073   0.87581   0.00000  Uiso   1.00
O991   O     0.16667   0.89442   0.79513   0.00000  Uiso   1.00
O992   O     0.16666   0.77226   0.79510   0.00000  Uiso   1.00
O993   O     0.16667   0.89441   0.87157   0.00000  Uiso   1.00
O994   O     0.09058   0.83333   0.86261   0.00000  Uiso   1.00
O995   O     0.24275   0.83334   0.80405   0.00000  Uiso   1.00
O996   O     0.09058   0.83334   0.78617   0.00000  Uiso   1.00
O997   O     0.24275   0.83333   0.88050   0.00000  Uiso   1.00
O998   O     0.24377   0.70594   0.79085   0.00000  Uiso   1.00
Zn999  Zn    0.16667   0.83333   0.88437   0.00000  Uiso   1.00
Zn1000 Zn    0.16667   0.83334   0.78229   0.00000  Uiso   1.00
C1001  C     0.50144   0.75343   0.83366   0.00000  Uiso   1.00
C1002  C     0.46590   0.68895   0.85676   0.00000  Uiso   1.00
C1003  C     0.49721   0.95737   0.83231   0.00000  Uiso   1.00
C1004  C     0.50279   0.70930   0.83436   0.00000  Uiso   1.00
C1005  C     0.53303   0.85906   0.69480   0.00000  Uiso   1.00
C1006  C     0.46697   0.80761   0.97187   0.00000  Uiso   1.00
C1007  C     0.53301   0.85905   0.98021   0.00000  Uiso   1.00
C1008  C     0.46699   0.80762   0.68646   0.00000  Uiso   1.00
C1009  C     0.49856   0.91323   0.83301   0.00000  Uiso   1.00
C1010  C     0.40038   0.83331   0.82136   0.00000  Uiso   1.00
C1011  C     0.59962   0.83335   0.84531   0.00000  Uiso   1.00
C1012  C     0.34532   0.83334   0.81493   0.00000  Uiso   1.00
C1013  C     0.65468   0.83333   0.85174   0.00000  Uiso   1.00
C1014  C     0.53802   0.68726   0.81127   0.00000  Uiso   1.00
C1015  C     0.46198   0.97941   0.85540   0.00000  Uiso   1.00
C1016  C     0.53410   0.97771   0.80990   0.00000  Uiso   1.00
H1017  H     0.65800   0.83337   0.78002   0.00000  Uiso   1.00
H1018  H     0.41561   0.93236   0.86312   0.00000  Uiso   1.00
H1019  H     0.34200   0.83330   0.88665   0.00000  Uiso   1.00
H1020  H     0.56132   0.96007   0.79284   0.00000  Uiso   1.00
H1021  H     0.43868   0.70659   0.87383   0.00000  Uiso   1.00
H1022  H     0.55946   0.87964   0.71625   0.00000  Uiso   1.00
H1023  H     0.44054   0.78702   0.95042   0.00000  Uiso   1.00
H1024  H     0.55943   0.87963   0.96542   0.00000  Uiso   1.00
H1025  H     0.44057   0.78704   0.70124   0.00000  Uiso   1.00
H1026  H     0.58440   0.73431   0.80355   0.00000  Uiso   1.00
N1027  N     0.49999   0.83332   0.95240   0.00000  Uiso   1.00
N1028  N     0.50001   0.83334   0.71427   0.00000  Uiso   1.00
O1029  O     0.50000   0.77225   0.87154   0.00000  Uiso   1.00
O1030  O     0.42290   0.96073   0.87581   0.00000  Uiso   1.00
O1031  O     0.50000   0.89442   0.79513   0.00000  Uiso   1.00
O1032  O     0.50000   0.77226   0.79510   0.00000  Uiso   1.00
O1033  O     0.50000   0.89441   0.87157   0.00000  Uiso   1.00
O1034  O     0.42392   0.83333   0.86261   0.00000  Uiso   1.00
O1035  O     0.57608   0.83334   0.80405   0.00000  Uiso   1.00
O1036  O     0.42392   0.83334   0.78617   0.00000  Uiso   1.00
O1037  O     0.57608   0.83333   0.88050   0.00000  Uiso   1.00
O1038  O     0.57710   0.70594   0.79085   0.00000  Uiso   1.00
Zn1039 Zn    0.50000   0.83333   0.88437   0.00000  Uiso   1.00
Zn1040 Zn    0.50000   0.83334   0.78229   0.00000  Uiso   1.00
C1041  C     0.83477   0.75343   0.83366   0.00000  Uiso   1.00
C1042  C     0.79924   0.68895   0.85676   0.00000  Uiso   1.00
C1043  C     0.83055   0.95737   0.83231   0.00000  Uiso   1.00
C1044  C     0.83612   0.70930   0.83436   0.00000  Uiso   1.00
C1045  C     0.86636   0.85906   0.69480   0.00000  Uiso   1.00
C1046  C     0.80030   0.80761   0.97187   0.00000  Uiso   1.00
C1047  C     0.86635   0.85905   0.98021   0.00000  Uiso   1.00
C1048  C     0.80032   0.80762   0.68646   0.00000  Uiso   1.00
C1049  C     0.83190   0.91323   0.83301   0.00000  Uiso   1.00
C1050  C     0.73371   0.83331   0.82136   0.00000  Uiso   1.00
C1051  C     0.93296   0.83335   0.84531   0.00000  Uiso   1.00
C1052  C     0.67865   0.83334   0.81493   0.00000  Uiso   1.00
C1053  C     0.98801   0.83333   0.85174   0.00000  Uiso   1.00
C1054  C     0.87135   0.68726   0.81127   0.00000  Uiso   1.00
C1055  C     0.79531   0.97941   0.85540   0.00000  Uiso   1.00
C1056  C     0.86743   0.97771   0.80990   0.00000  Uiso   1.00
H1057  H     0.99134   0.83337   0.78002   0.00000  Uiso   1.00
H1058  H     0.74894   0.93236   0.86312   0.00000  Uiso   1.00
H1059  H     0.67533   0.83330   0.88665   0.00000  Uiso   1.00
H1060  H     0.89466   0.96007   0.79284   0.00000  Uiso   1.00
H1061  H     0.77201   0.70659   0.87383   0.00000  Uiso   1.00
H1062  H     0.89279   0.87964   0.71625   0.00000  Uiso   1.00
H1063  H     0.77387   0.78702   0.95042   0.00000  Uiso   1.00
H1064  H     0.89276   0.87963   0.96542   0.00000  Uiso   1.00
H1065  H     0.77390   0.78704   0.70124   0.00000  Uiso   1.00
H1066  H     0.91773   0.73431   0.80355   0.00000  Uiso   1.00
N1067  N     0.83332   0.83332   0.95240   0.00000  Uiso   1.00
N1068  N     0.83335   0.83334   0.71427   0.00000  Uiso   1.00
O1069  O     0.83333   0.77225   0.87154   0.00000  Uiso   1.00
O1070  O     0.75623   0.96073   0.87581   0.00000  Uiso   1.00
O1071  O     0.83334   0.89442   0.79513   0.00000  Uiso   1.00
O1072  O     0.83333   0.77226   0.79510   0.00000  Uiso   1.00
O1073  O     0.83334   0.89441   0.87157   0.00000  Uiso   1.00
O1074  O     0.75725   0.83333   0.86261   0.00000  Uiso   1.00
O1075  O     0.90942   0.83334   0.80405   0.00000  Uiso   1.00
O1076  O     0.75725   0.83334   0.78617   0.00000  Uiso   1.00
O1077  O     0.90942   0.83333   0.88050   0.00000  Uiso   1.00
O1078  O     0.91043   0.70594   0.79085   0.00000  Uiso   1.00
Zn1079 Zn    0.83333   0.83333   0.88437   0.00000  Uiso   1.00
Zn1080 Zn    0.83333   0.83334   0.78229   0.00000  Uiso   1.00
loop_
_geom_bond_atom_site_label_1
_geom_bond_atom_site_label_2
_geom_bond_distance
_geom_bond_site_symmetry_2
_ccdc_geom_bond_type
C1     C4      1.410   .     S
C1     O29     1.280   .     A
C1     O32     1.282   .     A
C2     C4      1.395   .     A
C2     H21     1.085   .     S
C2     C255    1.373   1_545 S
C3     C9      1.410   .     S
C3     C15     1.408   .     A
C3     C16     1.395   .     A
C4     C14     1.408   .     A
C5     N28     1.367   .     A
C5     H22     1.082   .     S
C5     C727    1.418   1_554 S
C6     N27     1.367   .     A
C6     H23     1.082   .     S
C6     C368    1.418   .     S
C7     N27     1.367   .     A
C7     H24     1.082   .     S
C7     C365    1.418   .     S
C8     N28     1.367   .     A
C8     H25     1.082   .     S
C8     C726    1.418   1_554 S
C9     O33     1.282   .     A
C9     O31     1.280   .     A
C10    O34     1.278   .     A
C10    C12     1.403   .     S
C10    O36     1.281   .     A
C11    O35     1.278   .     A
C11    C13     1.403   .     S
C11    O37     1.281   .     A
C12    C93     1.331   1_455 S
C12    H97     1.088   1_455 S
C13    C52     1.331   .     S
C13    H59     1.088   .     S
C14    O38     1.382   .     S
C14    C256    1.373   1_545 S
C15    O30     1.382   .     S
C15    C122    1.373   .     S
C16    H20     1.085   .     S
C16    C134    1.373   .     S
H17    C52     1.088   .     S
H18    O30     0.989   .     S
H19    C93     1.088   1_455 S
H26    O38     0.989   .     S
N27    Zn39    2.012   .     S
N28    Zn40    2.012   .     S
O29    Zn39    1.990   .     S
O31    Zn40    1.990   .     S
O32    Zn40    1.985   .     S
O33    Zn39    1.985   .     S
O34    Zn39    1.970   .     S
O35    Zn40    1.970   .     S
O36    Zn40    1.982   .     S
O37    Zn39    1.982   .     S
C41    C44     1.410   .     S
C41    O69     1.280   .     A
C41    O72     1.282   .     A
C42    C44     1.395   .     A
C42    H61     1.085   .     S
C42    C295    1.373   1_545 S
C43    C49     1.410   .     S
C43    C55     1.408   .     A
C43    C56     1.395   .     A
C44    C54     1.408   .     A
C45    N68     1.367   .     A
C45    H62     1.082   .     S
C45    C767    1.418   1_554 S
C46    N67     1.367   .     A
C46    H63     1.082   .     S
C46    C408    1.418   .     S
C47    N67     1.367   .     A
C47    H64     1.082   .     S
C47    C405    1.418   .     S
C48    N68     1.367   .     A
C48    H65     1.082   .     S
C48    C766    1.418   1_554 S
C49    O73     1.282   .     A
C49    O71     1.280   .     A
C50    O74     1.278   .     A
C50    C52     1.403   .     S
C50    O76     1.281   .     A
C51    O75     1.278   .     A
C51    C53     1.403   .     S
C51    O77     1.281   .     A
C53    C92     1.331   .     S
C53    H99     1.088   .     S
C54    O78     1.382   .     S
C54    C296    1.373   1_545 S
C55    O70     1.382   .     S
C55    C162    1.373   .     S
C56    H60     1.085   .     S
C56    C174    1.373   .     S
H57    C92     1.088   .     S
H58    O70     0.989   .     S
H66    O78     0.989   .     S
N67    Zn79    2.012   .     S
N68    Zn80    2.012   .     S
O69    Zn79    1.990   .     S
O71    Zn80    1.990   .     S
O72    Zn80    1.985   .     S
O73    Zn79    1.985   .     S
O74    Zn79    1.970   .     S
O75    Zn80    1.970   .     S
O76    Zn80    1.982   .     S
O77    Zn79    1.982   .     S
C81    C84     1.410   .     S
C81    O109    1.280   .     A
C81    O112    1.282   .     A
C82    C84     1.395   .     A
C82    H101    1.085   .     S
C82    C335    1.373   1_545 S
C83    C89     1.410   .     S
C83    C95     1.408   .     A
C83    C96     1.395   .     A
C84    C94     1.408   .     A
C85    N108    1.367   .     A
C85    H102    1.082   .     S
C85    C807    1.418   1_554 S
C86    N107    1.367   .     A
C86    H103    1.082   .     S
C86    C448    1.418   .     S
C87    N107    1.367   .     A
C87    H104    1.082   .     S
C87    C445    1.418   .     S
C88    N108    1.367   .     A
C88    H105    1.082   .     S
C88    C806    1.418   1_554 S
C89    O113    1.282   .     A
C89    O111    1.280   .     A
C90    O114    1.278   .     A
C90    C92     1.403   .     S
C90    O116    1.281   .     A
C91    O115    1.278   .     A
C91    C93     1.403   .     S
C91    O117    1.281   .     A
C93    C12     1.331   1_655 S
C93    H19     1.088   1_655 S
C94    O118    1.382   .     S
C94    C336    1.373   1_545 S
C95    O110    1.382   .     S
C95    C202    1.373   .     S
C96    H100    1.085   .     S
C96    C214    1.373   .     S
H97    C12     1.088   1_655 S
H98    O110    0.989   .     S
H106   O118    0.989   .     S
N107   Zn119   2.012   .     S
N108   Zn120   2.012   .     S
O109   Zn119   1.990   .     S
O111   Zn120   1.990   .     S
O112   Zn120   1.985   .     S
O113   Zn119   1.985   .     S
O114   Zn119   1.970   .     S
O115   Zn120   1.970   .     S
O116   Zn120   1.982   .     S
O117   Zn119   1.982   .     S
C121   C124    1.410   .     S
C121   O149    1.280   .     A
C121   O152    1.282   .     A
C122   C124    1.395   .     A
C122   H141    1.085   .     S
C123   C129    1.410   .     S
C123   C135    1.408   .     A
C123   C136    1.395   .     A
C124   C134    1.408   .     A
C125   N148    1.367   .     A
C125   H142    1.082   .     S
C125   C847    1.418   1_554 S
C126   N147    1.367   .     A
C126   H143    1.082   .     S
C126   C488    1.418   .     S
C127   N147    1.367   .     A
C127   H144    1.082   .     S
C127   C485    1.418   .     S
C128   N148    1.367   .     A
C128   H145    1.082   .     S
C128   C846    1.418   1_554 S
C129   O153    1.282   .     A
C129   O151    1.280   .     A
C130   O154    1.278   .     A
C130   C132    1.403   .     S
C130   O156    1.281   .     A
C131   O155    1.278   .     A
C131   C133    1.403   .     S
C131   O157    1.281   .     A
C132   C213    1.331   1_455 S
C132   H217    1.088   1_455 S
C133   C172    1.331   .     S
C133   H179    1.088   .     S
C134   O158    1.382   .     S
C135   O150    1.382   .     S
C135   C242    1.373   .     S
C136   H140    1.085   .     S
C136   C254    1.373   .     S
H137   C172    1.088   .     S
H138   O150    0.989   .     S
H139   C213    1.088   1_455 S
H146   O158    0.989   .     S
N147   Zn159   2.012   .     S
N148   Zn160   2.012   .     S
O149   Zn159   1.990   .     S
O151   Zn160   1.990   .     S
O152   Zn160   1.985   .     S
O153   Zn159   1.985   .     S
O154   Zn159   1.970   .     S
O155   Zn160   1.970   .     S
O156   Zn160   1.982   .     S
O157   Zn159   1.982   .     S
C161   C164    1.410   .     S
C161   O189    1.280   .     A
C161   O192    1.282   .     A
C162   C164    1.395   .     A
C162   H181    1.085   .     S
C163   C169    1.410   .     S
C163   C175    1.408   .     A
C163   C176    1.395   .     A
C164   C174    1.408   .     A
C165   N188    1.367   .     A
C165   H182    1.082   .     S
C165   C887    1.418   1_554 S
C166   N187    1.367   .     A
C166   H183    1.082   .     S
C166   C528    1.418   .     S
C167   N187    1.367   .     A
C167   H184    1.082   .     S
C167   C525    1.418   .     S
C168   N188    1.367   .     A
C168   H185    1.082   .     S
C168   C886    1.418   1_554 S
C169   O193    1.282   .     A
C169   O191    1.280   .     A
C170   O194    1.278   .     A
C170   C172    1.403   .     S
C170   O196    1.281   .     A
C171   O195    1.278   .     A
C171   C173    1.403   .     S
C171   O197    1.281   .     A
C173   C212    1.331   .     S
C173   H219    1.088   .     S
C174   O198    1.382   .     S
C175   O190    1.382   .     S
C175   C282    1.373   .     S
C176   H180    1.085   .     S
C176   C294    1.373   .     S
H177   C212    1.088   .     S
H178   O190    0.989   .     S
H186   O198    0.989   .     S
N187   Zn199   2.012   .     S
N188   Zn200   2.012   .     S
O189   Zn199   1.990   .     S
O191   Zn200   1.990   .     S
O192   Zn200   1.985   .     S
O193   Zn199   1.985   .     S
O194   Zn199   1.970   .     S
O195   Zn200   1.970   .     S
O196   Zn200   1.982   .     S
O197   Zn199   1.982   .     S
C201   C204    1.410   .     S
C201   O229    1.280   .     A
C201   O232    1.282   .     A
C202   C204    1.395   .     A
C202   H221    1.085   .     S
C203   C209    1.410   .     S
C203   C215    1.408   .     A
C203   C216    1.395   .     A
C204   C214    1.408   .     A
C205   N228    1.367   .     A
C205   H222    1.082   .     S
C205   C927    1.418   1_554 S
C206   N227    1.367   .     A
C206   H223    1.082   .     S
C206   C568    1.418   .     S
C207   N227    1.367   .     A
C207   H224    1.082   .     S
C207   C565    1.418   .     S
C208   N228    1.367   .     A
C208   H225    1.082   .     S
C208   C926    1.418   1_554 S
C209   O233    1.282   .     A
C209   O231    1.280   .     A
C210   O234    1.278   .     A
C210   C212    1.403   .     S
C210   O236    1.281   .     A
C211   O235    1.278   .     A
C211   C213    1.403   .     S
C211   O237    1.281   .     A
C213   C132    1.331   1_655 S
C213   H139    1.088   1_655 S
C214   O238    1.382   .     S
C215   O230    1.382   .     S
C215   C322    1.373   .     S
C216   H220    1.085   .     S
C216   C334    1.373   .     S
H217   C132    1.088   1_655 S
H218   O230    0.989   .     S
H226   O238    0.989   .     S
N227   Zn239   2.012   .     S
N228   Zn240   2.012   .     S
O229   Zn239   1.990   .     S
O231   Zn240   1.990   .     S
O232   Zn240   1.985   .     S
O233   Zn239   1.985   .     S
O234   Zn239   1.970   .     S
O235   Zn240   1.970   .     S
O236   Zn240   1.982   .     S
O237   Zn239   1.982   .     S
C241   C244    1.410   .     S
C241   O269    1.280   .     A
C241   O272    1.282   .     A
C242   C244    1.395   .     A
C242   H261    1.085   .     S
C243   C249    1.410   .     S
C243   C255    1.408   .     A
C243   C256    1.395   .     A
C244   C254    1.408   .     A
C245   N268    1.367   .     A
C245   H262    1.082   .     S
C245   C967    1.418   1_554 S
C246   N267    1.367   .     A
C246   H263    1.082   .     S
C246   C608    1.418   .     S
C247   N267    1.367   .     A
C247   H264    1.082   .     S
C247   C605    1.418   .     S
C248   N268    1.367   .     A
C248   H265    1.082   .     S
C248   C966    1.418   1_554 S
C249   O273    1.282   .     A
C249   O271    1.280   .     A
C250   O274    1.278   .     A
C250   C252    1.403   .     S
C250   O276    1.281   .     A
C251   O275    1.278   .     A
C251   C253    1.403   .     S
C251   O277    1.281   .     A
C252   C333    1.331   1_455 S
C252   H337    1.088   1_455 S
C253   C292    1.331   .     S
C253   H299    1.088   .     S
C254   O278    1.382   .     S
C255   O270    1.382   .     S
C255   C2      1.373   1_565 S
C256   H260    1.085   .     S
C256   C14     1.373   1_565 S
H257   C292    1.088   .     S
H258   O270    0.989   .     S
H259   C333    1.088   1_455 S
H266   O278    0.989   .     S
N267   Zn279   2.012   .     S
N268   Zn280   2.012   .     S
O269   Zn279   1.990   .     S
O271   Zn280   1.990   .     S
O272   Zn280   1.985   .     S
O273   Zn279   1.985   .     S
O274   Zn279   1.970   .     S
O275   Zn280   1.970   .     S
O276   Zn280   1.982   .     S
O277   Zn279   1.982   .     S
C281   C284    1.410   .     S
C281   O309    1.280   .     A
C281   O312    1.282   .     A
C282   C284    1.395   .     A
C282   H301    1.085   .     S
C283   C289    1.410   .     S
C283   C295    1.408   .     A
C283   C296    1.395   .     A
C284   C294    1.408   .     A
C285   N308    1.367   .     A
C285   H302    1.082   .     S
C285   C1007   1.418   1_554 S
C286   N307    1.367   .     A
C286   H303    1.082   .     S
C286   C648    1.418   .     S
C287   N307    1.367   .     A
C287   H304    1.082   .     S
C287   C645    1.418   .     S
C288   N308    1.367   .     A
C288   H305    1.082   .     S
C288   C1006   1.418   1_554 S
C289   O313    1.282   .     A
C289   O311    1.280   .     A
C290   O314    1.278   .     A
C290   C292    1.403   .     S
C290   O316    1.281   .     A
C291   O315    1.278   .     A
C291   C293    1.403   .     S
C291   O317    1.281   .     A
C293   C332    1.331   .     S
C293   H339    1.088   .     S
C294   O318    1.382   .     S
C295   O310    1.382   .     S
C295   C42     1.373   1_565 S
C296   H300    1.085   .     S
C296   C54     1.373   1_565 S
H297   C332    1.088   .     S
H298   O310    0.989   .     S
H306   O318    0.989   .     S
N307   Zn319   2.012   .     S
N308   Zn320   2.012   .     S
O309   Zn319   1.990   .     S
O311   Zn320   1.990   .     S
O312   Zn320   1.985   .     S
O313   Zn319   1.985   .     S
O314   Zn319   1.970   .     S
O315   Zn320   1.970   .     S
O316   Zn320   1.982   .     S
O317   Zn319   1.982   .     S
C321   C324    1.410   .     S
C321   O349    1.280   .     A
C321   O352    1.282   .     A
C322   C324    1.395   .     A
C322   H341    1.085   .     S
C323   C329    1.410   .     S
C323   C335    1.408   .     A
C323   C336    1.395   .     A
C324   C334    1.408   .     A
C325   N348    1.367   .     A
C325   H342    1.082   .     S
C325   C1047   1.418   1_554 S
C326   N347    1.367   .     A
C326   H343    1.082   .     S
C326   C688    1.418   .     S
C327   N347    1.367   .     A
C327   H344    1.082   .     S
C327   C685    1.418   .     S
C328   N348    1.367   .     A
C328   H345    1.082   .     S
C328   C1046   1.418   1_554 S
C329   O353    1.282   .     A
C329   O351    1.280   .     A
C330   O354    1.278   .     A
C330   C332    1.403   .     S
C330   O356    1.281   .     A
C331   O355    1.278   .     A
C331   C333    1.403   .     S
C331   O357    1.281   .     A
C333   C252    1.331   1_655 S
C333   H259    1.088   1_655 S
C334   O358    1.382   .     S
C335   O350    1.382   .     S
C335   C82     1.373   1_565 S
C336   H340    1.085   .     S
C336   C94     1.373   1_565 S
H337   C252    1.088   1_655 S
H338   O350    0.989   .     S
H346   O358    0.989   .     S
N347   Zn359   2.012   .     S
N348   Zn360   2.012   .     S
O349   Zn359   1.990   .     S
O351   Zn360   1.990   .     S
O352   Zn360   1.985   .     S
O353   Zn359   1.985   .     S
O354   Zn359   1.970   .     S
O355   Zn360   1.970   .     S
O356   Zn360   1.982   .     S
O357   Zn359   1.982   .     S
C361   C364    1.410   .     S
C361   O389    1.280   .     A
C361   O392    1.282   .     A
C362   C364    1.395   .     A
C362   H381    1.085   .     S
C362   C615    1.373   1_545 S
C363   C369    1.410   .     S
C363   C375    1.408   .     A
C363   C376    1.395   .     A
C364   C374    1.408   .     A
C365   N388    1.367   .     A
C365   H382    1.082   .     S
C366   N387    1.367   .     A
C366   H383    1.082   .     S
C366   C728    1.418   .     S
C367   N387    1.367   .     A
C367   H384    1.082   .     S
C367   C725    1.418   .     S
C368   N388    1.367   .     A
C368   H385    1.082   .     S
C369   O393    1.282   .     A
C369   O391    1.280   .     A
C370   O394    1.278   .     A
C370   C372    1.403   .     S
C370   O396    1.281   .     A
C371   O395    1.278   .     A
C371   C373    1.403   .     S
C371   O397    1.281   .     A
C372   C453    1.331   1_455 S
C372   H457    1.088   1_455 S
C373   C412    1.331   .     S
C373   H419    1.088   .     S
C374   O398    1.382   .     S
C374   C616    1.373   1_545 S
C375   O390    1.382   .     S
C375   C482    1.373   .     S
C376   H380    1.085   .     S
C376   C494    1.373   .     S
H377   C412    1.088   .     S
H378   O390    0.989   .     S
H379   C453    1.088   1_455 S
H386   O398    0.989   .     S
N387   Zn399   2.012   .     S
N388   Zn400   2.012   .     S
O389   Zn399   1.990   .     S
O391   Zn400   1.990   .     S
O392   Zn400   1.985   .     S
O393   Zn399   1.985   .     S
O394   Zn399   1.970   .     S
O395   Zn400   1.970   .     S
O396   Zn400   1.982   .     S
O397   Zn399   1.982   .     S
C401   C404    1.410   .     S
C401   O429    1.280   .     A
C401   O432    1.282   .     A
C402   C404    1.395   .     A
C402   H421    1.085   .     S
C402   C655    1.373   1_545 S
C403   C409    1.410   .     S
C403   C415    1.408   .     A
C403   C416    1.395   .     A
C404   C414    1.408   .     A
C405   N428    1.367   .     A
C405   H422    1.082   .     S
C406   N427    1.367   .     A
C406   H423    1.082   .     S
C406   C768    1.418   .     S
C407   N427    1.367   .     A
C407   H424    1.082   .     S
C407   C765    1.418   .     S
C408   N428    1.367   .     A
C408   H425    1.082   .     S
C409   O433    1.282   .     A
C409   O431    1.280   .     A
C410   O434    1.278   .     A
C410   C412    1.403   .     S
C410   O436    1.281   .     A
C411   O435    1.278   .     A
C411   C413    1.403   .     S
C411   O437    1.281   .     A
C413   C452    1.331   .     S
C413   H459    1.088   .     S
C414   O438    1.382   .     S
C414   C656    1.373   1_545 S
C415   O430    1.382   .     S
C415   C522    1.373   .     S
C416   H420    1.085   .     S
C416   C534    1.373   .     S
H417   C452    1.088   .     S
H418   O430    0.989   .     S
H426   O438    0.989   .     S
N427   Zn439   2.012   .     S
N428   Zn440   2.012   .     S
O429   Zn439   1.990   .     S
O431   Zn440   1.990   .     S
O432   Zn440   1.985   .     S
O433   Zn439   1.985   .     S
O434   Zn439   1.970   .     S
O435   Zn440   1.970   .     S
O436   Zn440   1.982   .     S
O437   Zn439   1.982   .     S
C441   C444    1.410   .     S
C441   O469    1.280   .     A
C441   O472    1.282   .     A
C442   C444    1.395   .     A
C442   H461    1.085   .     S
C442   C695    1.373   1_545 S
C443   C449    1.410   .     S
C443   C455    1.408   .     A
C443   C456    1.395   .     A
C444   C454    1.408   .     A
C445   N468    1.367   .     A
C445   H462    1.082   .     S
C446   N467    1.367   .     A
C446   H463    1.082   .     S
C446   C808    1.418   .     S
C447   N467    1.367   .     A
C447   H464    1.082   .     S
C447   C805    1.418   .     S
C448   N468    1.367   .     A
C448   H465    1.082   .     S
C449   O473    1.282   .     A
C449   O471    1.280   .     A
C450   O474    1.278   .     A
C450   C452    1.403   .     S
C450   O476    1.281   .     A
C451   O475    1.278   .     A
C451   C453    1.403   .     S
C451   O477    1.281   .     A
C453   C372    1.331   1_655 S
C453   H379    1.088   1_655 S
C454   O478    1.382   .     S
C454   C696    1.373   1_545 S
C455   O470    1.382   .     S
C455   C562    1.373   .     S
C456   H460    1.085   .     S
C456   C574    1.373   .     S
H457   C372    1.088   1_655 S
H458   O470    0.989   .     S
H466   O478    0.989   .     S
N467   Zn479   2.012   .     S
N468   Zn480   2.012   .     S
O469   Zn479   1.990   .     S
O471   Zn480   1.990   .     S
O472   Zn480   1.985   .     S
O473   Zn479   1.985   .     S
O474   Zn479   1.970   .     S
O475   Zn480   1.970   .     S
O476   Zn480   1.982   .     S
O477   Zn479   1.982   .     S
C481   C484    1.410   .     S
C481   O509    1.280   .     A
C481   O512    1.282   .     A
C482   C484    1.395   .     A
C482   H501    1.085   .     S
C483   C489    1.410   .     S
C483   C495    1.408   .     A
C483   C496    1.395   .     A
C484   C494    1.408   .     A
C485   N508    1.367   .     A
C485   H502    1.082   .     S
C486   N507    1.367   .     A
C486   H503    1.082   .     S
C486   C848    1.418   .     S
C487   N507    1.367   .     A
C487   H504    1.082   .     S
C487   C845    1.418   .     S
C488   N508    1.367   .     A
C488   H505    1.082   .     S
C489   O513    1.282   .     A
C489   O511    1.280   .     A
C490   O514    1.278   .     A
C490   C492    1.403   .     S
C490   O516    1.281   .     A
C491   O515    1.278   .     A
C491   C493    1.403   .     S
C491   O517    1.281   .     A
C492   C573    1.331   1_455 S
C492   H577    1.088   1_455 S
C493   C532    1.331   .     S
C493   H539    1.088   .     S
C494   O518    1.382   .     S
C495   O510    1.382   .     S
C495   C602    1.373   .     S
C496   H500    1.085   .     S
C496   C614    1.373   .     S
H497   C532    1.088   .     S
H498   O510    0.989   .     S
H499   C573    1.088   1_455 S
H506   O518    0.989   .     S
N507   Zn519   2.012   .     S
N508   Zn520   2.012   .     S
O509   Zn519   1.990   .     S
O511   Zn520   1.990   .     S
O512   Zn520   1.985   .     S
O513   Zn519   1.985   .     S
O514   Zn519   1.970   .     S
O515   Zn520   1.970   .     S
O516   Zn520   1.982   .     S
O517   Zn519   1.982   .     S
C521   C524    1.410   .     S
C521   O549    1.280   .     A
C521   O552    1.282   .     A
C522   C524    1.395   .     A
C522   H541    1.085   .     S
C523   C529    1.410   .     S
C523   C535    1.408   .     A
C523   C536    1.395   .     A
C524   C534    1.408   .     A
C525   N548    1.367   .     A
C525   H542    1.082   .     S
C526   N547    1.367   .     A
C526   H543    1.082   .     S
C526   C888    1.418   .     S
C527   N547    1.367   .     A
C527   H544    1.082   .     S
C527   C885    1.418   .     S
C528   N548    1.367   .     A
C528   H545    1.082   .     S
C529   O553    1.282   .     A
C529   O551    1.280   .     A
C530   O554    1.278   .     A
C530   C532    1.403   .     S
C530   O556    1.281   .     A
C531   O555    1.278   .     A
C531   C533    1.403   .     S
C531   O557    1.281   .     A
C533   C572    1.331   .     S
C533   H579    1.088   .     S
C534   O558    1.382   .     S
C535   O550    1.382   .     S
C535   C642    1.373   .     S
C536   H540    1.085   .     S
C536   C654    1.373   .     S
H537   C572    1.088   .     S
H538   O550    0.989   .     S
H546   O558    0.989   .     S
N547   Zn559   2.012   .     S
N548   Zn560   2.012   .     S
O549   Zn559   1.990   .     S
O551   Zn560   1.990   .     S
O552   Zn560   1.985   .     S
O553   Zn559   1.985   .     S
O554   Zn559   1.970   .     S
O555   Zn560   1.970   .     S
O556   Zn560   1.982   .     S
O557   Zn559   1.982   .     S
C561   C564    1.410   .     S
C561   O589    1.280   .     A
C561   O592    1.282   .     A
C562   C564    1.395   .     A
C562   H581    1.085   .     S
C563   C569    1.410   .     S
C563   C575    1.408   .     A
C563   C576    1.395   .     A
C564   C574    1.408   .     A
C565   N588    1.367   .     A
C565   H582    1.082   .     S
C566   N587    1.367   .     A
C566   H583    1.082   .     S
C566   C928    1.418   .     S
C567   N587    1.367   .     A
C567   H584    1.082   .     S
C567   C925    1.418   .     S
C568   N588    1.367   .     A
C568   H585    1.082   .     S
C569   O593    1.282   .     A
C569   O591    1.280   .     A
C570   O594    1.278   .     A
C570   C572    1.403   .     S
C570   O596    1.281   .     A
C571   O595    1.278   .     A
C571   C573    1.403   .     S
C571   O597    1.281   .     A
C573   C492    1.331   1_655 S
C573   H499    1.088   1_655 S
C574   O598    1.382   .     S
C575   O590    1.382   .     S
C575   C682    1.373   .     S
C576   H580    1.085   .     S
C576   C694    1.373   .     S
H577   C492    1.088   1_655 S
H578   O590    0.989   .     S
H586   O598    0.989   .     S
N587   Zn599   2.012   .     S
N588   Zn600   2.012   .     S
O589   Zn599   1.990   .     S
O591   Zn600   1.990   .     S
O592   Zn600   1.985   .     S
O593   Zn599   1.985   .     S
O594   Zn599   1.970   .     S
O595   Zn600   1.970   .     S
O596   Zn600   1.982   .     S
O597   Zn599   1.982   .     S
C601   C604    1.410   .     S
C601   O629    1.280   .     A
C601   O632    1.282   .     A
C602   C604    1.395   .     A
C602   H621    1.085   .     S
C603   C609    1.410   .     S
C603   C615    1.408   .     A
C603   C616    1.395   .     A
C604   C614    1.408   .     A
C605   N628    1.367   .     A
C605   H622    1.082   .     S
C606   N627    1.367   .     A
C606   H623    1.082   .     S
C606   C968    1.418   .     S
C607   N627    1.367   .     A
C607   H624    1.082   .     S
C607   C965    1.418   .     S
C608   N628    1.367   .     A
C608   H625    1.082   .     S
C609   O633    1.282   .     A
C609   O631    1.280   .     A
C610   O634    1.278   .     A
C610   C612    1.403   .     S
C610   O636    1.281   .     A
C611   O635    1.278   .     A
C611   C613    1.403   .     S
C611   O637    1.281   .     A
C612   C693    1.331   1_455 S
C612   H697    1.088   1_455 S
C613   C652    1.331   .     S
C613   H659    1.088   .     S
C614   O638    1.382   .     S
C615   O630    1.382   .     S
C615   C362    1.373   1_565 S
C616   H620    1.085   .     S
C616   C374    1.373   1_565 S
H617   C652    1.088   .     S
H618   O630    0.989   .     S
H619   C693    1.088   1_455 S
H626   O638    0.989   .     S
N627   Zn639   2.012   .     S
N628   Zn640   2.012   .     S
O629   Zn639   1.990   .     S
O631   Zn640   1.990   .     S
O632   Zn640   1.985   .     S
O633   Zn639   1.985   .     S
O634   Zn639   1.970   .     S
O635   Zn640   1.970   .     S
O636   Zn640   1.982   .     S
O637   Zn639   1.982   .     S
C641   C644    1.410   .     S
C641   O669    1.280   .     A
C641   O672    1.282   .     A
C642   C644    1.395   .     A
C642   H661    1.085   .     S
C643   C649    1.410   .     S
C643   C655    1.408   .     A
C643   C656    1.395   .     A
C644   C654    1.408   .     A
C645   N668    1.367   .     A
C645   H662    1.082   .     S
C646   N667    1.367   .     A
C646   H663    1.082   .     S
C646   C1008   1.418   .     S
C647   N667    1.367   .     A
C647   H664    1.082   .     S
C647   C1005   1.418   .     S
C648   N668    1.367   .     A
C648   H665    1.082   .     S
C649   O673    1.282   .     A
C649   O671    1.280   .     A
C650   O674    1.278   .     A
C650   C652    1.403   .     S
C650   O676    1.281   .     A
C651   O675    1.278   .     A
C651   C653    1.403   .     S
C651   O677    1.281   .     A
C653   C692    1.331   .     S
C653   H699    1.088   .     S
C654   O678    1.382   .     S
C655   O670    1.382   .     S
C655   C402    1.373   1_565 S
C656   H660    1.085   .     S
C656   C414    1.373   1_565 S
H657   C692    1.088   .     S
H658   O670    0.989   .     S
H666   O678    0.989   .     S
N667   Zn679   2.012   .     S
N668   Zn680   2.012   .     S
O669   Zn679   1.990   .     S
O671   Zn680   1.990   .     S
O672   Zn680   1.985   .     S
O673   Zn679   1.985   .     S
O674   Zn679   1.970   .     S
O675   Zn680   1.970   .     S
O676   Zn680   1.982   .     S
O677   Zn679   1.982   .     S
C681   C684    1.410   .     S
C681   O709    1.280   .     A
C681   O712    1.282   .     A
C682   C684    1.395   .     A
C682   H701    1.085   .     S
C683   C689    1.410   .     S
C683   C695    1.408   .     A
C683   C696    1.395   .     A
C684   C694    1.408   .     A
C685   N708    1.367   .     A
C685   H702    1.082   .     S
C686   N707    1.367   .     A
C686   H703    1.082   .     S
C686   C1048   1.418   .     S
C687   N707    1.367   .     A
C687   H704    1.082   .     S
C687   C1045   1.418   .     S
C688   N708    1.367   .     A
C688   H705    1.082   .     S
C689   O713    1.282   .     A
C689   O711    1.280   .     A
C690   O714    1.278   .     A
C690   C692    1.403   .     S
C690   O716    1.281   .     A
C691   O715    1.278   .     A
C691   C693    1.403   .     S
C691   O717    1.281   .     A
C693   C612    1.331   1_655 S
C693   H619    1.088   1_655 S
C694   O718    1.382   .     S
C695   O710    1.382   .     S
C695   C442    1.373   1_565 S
C696   H700    1.085   .     S
C696   C454    1.373   1_565 S
H697   C612    1.088   1_655 S
H698   O710    0.989   .     S
H706   O718    0.989   .     S
N707   Zn719   2.012   .     S
N708   Zn720   2.012   .     S
O709   Zn719   1.990   .     S
O711   Zn720   1.990   .     S
O712   Zn720   1.985   .     S
O713   Zn719   1.985   .     S
O714   Zn719   1.970   .     S
O715   Zn720   1.970   .     S
O716   Zn720   1.982   .     S
O717   Zn719   1.982   .     S
C721   C724    1.410   .     S
C721   O749    1.280   .     A
C721   O752    1.282   .     A
C722   C724    1.395   .     A
C722   H741    1.085   .     S
C722   C975    1.373   1_545 S
C723   C729    1.410   .     S
C723   C735    1.408   .     A
C723   C736    1.395   .     A
C724   C734    1.408   .     A
C725   N748    1.367   .     A
C725   H742    1.082   .     S
C726   N747    1.367   .     A
C726   H743    1.082   .     S
C726   C8      1.418   1_556 S
C727   N747    1.367   .     A
C727   H744    1.082   .     S
C727   C5      1.418   1_556 S
C728   N748    1.367   .     A
C728   H745    1.082   .     S
C729   O753    1.282   .     A
C729   O751    1.280   .     A
C730   O754    1.278   .     A
C730   C732    1.403   .     S
C730   O756    1.281   .     A
C731   O755    1.278   .     A
C731   C733    1.403   .     S
C731   O757    1.281   .     A
C732   C813    1.331   1_455 S
C732   H817    1.088   1_455 S
C733   C772    1.331   .     S
C733   H779    1.088   .     S
C734   O758    1.382   .     S
C734   C976    1.373   1_545 S
C735   O750    1.382   .     S
C735   C842    1.373   .     S
C736   H740    1.085   .     S
C736   C854    1.373   .     S
H737   C772    1.088   .     S
H738   O750    0.989   .     S
H739   C813    1.088   1_455 S
H746   O758    0.989   .     S
N747   Zn759   2.012   .     S
N748   Zn760   2.012   .     S
O749   Zn759   1.990   .     S
O751   Zn760   1.990   .     S
O752   Zn760   1.985   .     S
O753   Zn759   1.985   .     S
O754   Zn759   1.970   .     S
O755   Zn760   1.970   .     S
O756   Zn760   1.982   .     S
O757   Zn759   1.982   .     S
C761   C764    1.410   .     S
C761   O789    1.280   .     A
C761   O792    1.282   .     A
C762   C764    1.395   .     A
C762   H781    1.085   .     S
C762   C1015   1.373   1_545 S
C763   C769    1.410   .     S
C763   C775    1.408   .     A
C763   C776    1.395   .     A
C764   C774    1.408   .     A
C765   N788    1.367   .     A
C765   H782    1.082   .     S
C766   N787    1.367   .     A
C766   H783    1.082   .     S
C766   C48     1.418   1_556 S
C767   N787    1.367   .     A
C767   H784    1.082   .     S
C767   C45     1.418   1_556 S
C768   N788    1.367   .     A
C768   H785    1.082   .     S
C769   O793    1.282   .     A
C769   O791    1.280   .     A
C770   O794    1.278   .     A
C770   C772    1.403   .     S
C770   O796    1.281   .     A
C771   O795    1.278   .     A
C771   C773    1.403   .     S
C771   O797    1.281   .     A
C773   C812    1.331   .     S
C773   H819    1.088   .     S
C774   O798    1.382   .     S
C774   C1016   1.373   1_545 S
C775   O790    1.382   .     S
C775   C882    1.373   .     S
C776   H780    1.085   .     S
C776   C894    1.373   .     S
H777   C812    1.088   .     S
H778   O790    0.989   .     S
H786   O798    0.989   .     S
N787   Zn799   2.012   .     S
N788   Zn800   2.012   .     S
O789   Zn799   1.990   .     S
O791   Zn800   1.990   .     S
O792   Zn800   1.985   .     S
O793   Zn799   1.985   .     S
O794   Zn799   1.970   .     S
O795   Zn800   1.970   .     S
O796   Zn800   1.982   .     S
O797   Zn799   1.982   .     S
C801   C804    1.410   .     S
C801   O829    1.280   .     A
C801   O832    1.282   .     A
C802   C804    1.395   .     A
C802   H821    1.085   .     S
C802   C1055   1.373   1_545 S
C803   C809    1.410   .     S
C803   C815    1.408   .     A
C803   C816    1.395   .     A
C804   C814    1.408   .     A
C805   N828    1.367   .     A
C805   H822    1.082   .     S
C806   N827    1.367   .     A
C806   H823    1.082   .     S
C806   C88     1.418   1_556 S
C807   N827    1.367   .     A
C807   H824    1.082   .     S
C807   C85     1.418   1_556 S
C808   N828    1.367   .     A
C808   H825    1.082   .     S
C809   O833    1.282   .     A
C809   O831    1.280   .     A
C810   O834    1.278   .     A
C810   C812    1.403   .     S
C810   O836    1.281   .     A
C811   O835    1.278   .     A
C811   C813    1.403   .     S
C811   O837    1.281   .     A
C813   C732    1.331   1_655 S
C813   H739    1.088   1_655 S
C814   O838    1.382   .     S
C814   C1056   1.373   1_545 S
C815   O830    1.382   .     S
C815   C922    1.373   .     S
C816   H820    1.085   .     S
C816   C934    1.373   .     S
H817   C732    1.088   1_655 S
H818   O830    0.989   .     S
H826   O838    0.989   .     S
N827   Zn839   2.012   .     S
N828   Zn840   2.012   .     S
O829   Zn839   1.990   .     S
O831   Zn840   1.990   .     S
O832   Zn840   1.985   .     S
O833   Zn839   1.985   .     S
O834   Zn839   1.970   .     S
O835   Zn840   1.970   .     S
O836   Zn840   1.982   .     S
O837   Zn839   1.982   .     S
C841   C844    1.410   .     S
C841   O869    1.280   .     A
C841   O872    1.282   .     A
C842   C844    1.395   .     A
C842   H861    1.085   .     S
C843   C849    1.410   .     S
C843   C855    1.408   .     A
C843   C856    1.395   .     A
C844   C854    1.408   .     A
C845   N868    1.367   .     A
C845   H862    1.082   .     S
C846   N867    1.367   .     A
C846   H863    1.082   .     S
C846   C128    1.418   1_556 S
C847   N867    1.367   .     A
C847   H864    1.082   .     S
C847   C125    1.418   1_556 S
C848   N868    1.367   .     A
C848   H865    1.082   .     S
C849   O873    1.282   .     A
C849   O871    1.280   .     A
C850   O874    1.278   .     A
C850   C852    1.403   .     S
C850   O876    1.281   .     A
C851   O875    1.278   .     A
C851   C853    1.403   .     S
C851   O877    1.281   .     A
C852   C933    1.331   1_455 S
C852   H937    1.088   1_455 S
C853   C892    1.331   .     S
C853   H899    1.088   .     S
C854   O878    1.382   .     S
C855   O870    1.382   .     S
C855   C962    1.373   .     S
C856   H860    1.085   .     S
C856   C974    1.373   .     S
H857   C892    1.088   .     S
H858   O870    0.989   .     S
H859   C933    1.088   1_455 S
H866   O878    0.989   .     S
N867   Zn879   2.012   .     S
N868   Zn880   2.012   .     S
O869   Zn879   1.990   .     S
O871   Zn880   1.990   .     S
O872   Zn880   1.985   .     S
O873   Zn879   1.985   .     S
O874   Zn879   1.970   .     S
O875   Zn880   1.970   .     S
O876   Zn880   1.982   .     S
O877   Zn879   1.982   .     S
C881   C884    1.410   .     S
C881   O909    1.280   .     A
C881   O912    1.282   .     A
C882   C884    1.395   .     A
C882   H901    1.085   .     S
C883   C889    1.410   .     S
C883   C895    1.408   .     A
C883   C896    1.395   .     A
C884   C894    1.408   .     A
C885   N908    1.367   .     A
C885   H902    1.082   .     S
C886   N907    1.367   .     A
C886   H903    1.082   .     S
C886   C168    1.418   1_556 S
C887   N907    1.367   .     A
C887   H904    1.082   .     S
C887   C165    1.418   1_556 S
C888   N908    1.367   .     A
C888   H905    1.082   .     S
C889   O913    1.282   .     A
C889   O911    1.280   .     A
C890   O914    1.278   .     A
C890   C892    1.403   .     S
C890   O916    1.281   .     A
C891   O915    1.278   .     A
C891   C893    1.403   .     S
C891   O917    1.281   .     A
C893   C932    1.331   .     S
C893   H939    1.088   .     S
C894   O918    1.382   .     S
C895   O910    1.382   .     S
C895   C1002   1.373   .     S
C896   H900    1.085   .     S
C896   C1014   1.373   .     S
H897   C932    1.088   .     S
H898   O910    0.989   .     S
H906   O918    0.989   .     S
N907   Zn919   2.012   .     S
N908   Zn920   2.012   .     S
O909   Zn919   1.990   .     S
O911   Zn920   1.990   .     S
O912   Zn920   1.985   .     S
O913   Zn919   1.985   .     S
O914   Zn919   1.970   .     S
O915   Zn920   1.970   .     S
O916   Zn920   1.982   .     S
O917   Zn919   1.982   .     S
C921   C924    1.410   .     S
C921   O949    1.280   .     A
C921   O952    1.282   .     A
C922   C924    1.395   .     A
C922   H941    1.085   .     S
C923   C929    1.410   .     S
C923   C935    1.408   .     A
C923   C936    1.395   .     A
C924   C934    1.408   .     A
C925   N948    1.367   .     A
C925   H942    1.082   .     S
C926   N947    1.367   .     A
C926   H943    1.082   .     S
C926   C208    1.418   1_556 S
C927   N947    1.367   .     A
C927   H944    1.082   .     S
C927   C205    1.418   1_556 S
C928   N948    1.367   .     A
C928   H945    1.082   .     S
C929   O953    1.282   .     A
C929   O951    1.280   .     A
C930   O954    1.278   .     A
C930   C932    1.403   .     S
C930   O956    1.281   .     A
C931   O955    1.278   .     A
C931   C933    1.403   .     S
C931   O957    1.281   .     A
C933   C852    1.331   1_655 S
C933   H859    1.088   1_655 S
C934   O958    1.382   .     S
C935   O950    1.382   .     S
C935   C1042   1.373   .     S
C936   H940    1.085   .     S
C936   C1054   1.373   .     S
H937   C852    1.088   1_655 S
H938   O950    0.989   .     S
H946   O958    0.989   .     S
N947   Zn959   2.012   .     S
N948   Zn960   2.012   .     S
O949   Zn959   1.990   .     S
O951   Zn960   1.990   .     S
O952   Zn960   1.985   .     S
O953   Zn959   1.985   .     S
O954   Zn959   1.970   .     S
O955   Zn960   1.970   .     S
O956   Zn960   1.982   .     S
O957   Zn959   1.982   .     S
C961   C964    1.410   .     S
C961   O989    1.280   .     A
C961   O992    1.282   .     A
C962   C964    1.395   .     A
C962   H981    1.085   .     S
C963   C969    1.410   .     S
C963   C975    1.408   .     A
C963   C976    1.395   .     A
C964   C974    1.408   .     A
C965   N988    1.367   .     A
C965   H982    1.082   .     S
C966   N987    1.367   .     A
C966   H983    1.082   .     S
C966   C248    1.418   1_556 S
C967   N987    1.367   .     A
C967   H984    1.082   .     S
C967   C245    1.418   1_556 S
C968   N988    1.367   .     A
C968   H985    1.082   .     S
C969   O993    1.282   .     A
C969   O991    1.280   .     A
C970   O994    1.278   .     A
C970   C972    1.403   .     S
C970   O996    1.281   .     A
C971   O995    1.278   .     A
C971   C973    1.403   .     S
C971   O997    1.281   .     A
C972   C1053   1.331   1_455 S
C972   H1057   1.088   1_455 S
C973   C1012   1.331   .     S
C973   H1019   1.088   .     S
C974   O998    1.382   .     S
C975   O990    1.382   .     S
C975   C722    1.373   1_565 S
C976   H980    1.085   .     S
C976   C734    1.373   1_565 S
H977   C1012   1.088   .     S
H978   O990    0.989   .     S
H979   C1053   1.088   1_455 S
H986   O998    0.989   .     S
N987   Zn999   2.012   .     S
N988   Zn1000  2.012   .     S
O989   Zn999   1.990   .     S
O991   Zn1000  1.990   .     S
O992   Zn1000  1.985   .     S
O993   Zn999   1.985   .     S
O994   Zn999   1.970   .     S
O995   Zn1000  1.970   .     S
O996   Zn1000  1.982   .     S
O997   Zn999   1.982   .     S
C1001  C1004   1.410   .     S
C1001  O1029   1.280   .     A
C1001  O1032   1.282   .     A
C1002  C1004   1.395   .     A
C1002  H1021   1.085   .     S
C1003  C1009   1.410   .     S
C1003  C1015   1.408   .     A
C1003  C1016   1.395   .     A
C1004  C1014   1.408   .     A
C1005  N1028   1.367   .     A
C1005  H1022   1.082   .     S
C1006  N1027   1.367   .     A
C1006  H1023   1.082   .     S
C1006  C288    1.418   1_556 S
C1007  N1027   1.367   .     A
C1007  H1024   1.082   .     S
C1007  C285    1.418   1_556 S
C1008  N1028   1.367   .     A
C1008  H1025   1.082   .     S
C1009  O1033   1.282   .     A
C1009  O1031   1.280   .     A
C1010  O1034   1.278   .     A
C1010  C1012   1.403   .     S
C1010  O1036   1.281   .     A
C1011  O1035   1.278   .     A
C1011  C1013   1.403   .     S
C1011  O1037   1.281   .     A
C1013  C1052   1.331   .     S
C1013  H1059   1.088   .     S
C1014  O1038   1.382   .     S
C1015  O1030   1.382   .     S
C1015  C762    1.373   1_565 S
C1016  H1020   1.085   .     S
C1016  C774    1.373   1_565 S
H1017  C1052   1.088   .     S
H1018  O1030   0.989   .     S
H1026  O1038   0.989   .     S
N1027  Zn1039  2.012   .     S
N1028  Zn1040  2.012   .     S
O1029  Zn1039  1.990   .     S
O1031  Zn1040  1.990   .     S
O1032  Zn1040  1.985   .     S
O1033  Zn1039  1.985   .     S
O1034  Zn1039  1.970   .     S
O1035  Zn1040  1.970   .     S
O1036  Zn1040  1.982   .     S
O1037  Zn1039  1.982   .     S
C1041  C1044   1.410   .     S
C1041  O1069   1.280   .     A
C1041  O1072   1.282   .     A
C1042  C1044   1.395   .     A
C1042  H1061   1.085   .     S
C1043  C1049   1.410   .     S
C1043  C1055   1.408   .     A
C1043  C1056   1.395   .     A
C1044  C1054   1.408   .     A
C1045  N1068   1.367   .     A
C1045  H1062   1.082   .     S
C1046  N1067   1.367   .     A
C1046  H1063   1.082   .     S
C1046  C328    1.418   1_556 S
C1047  N1067   1.367   .     A
C1047  H1064   1.082   .     S
C1047  C325    1.418   1_556 S
C1048  N1068   1.367   .     A
C1048  H1065   1.082   .     S
C1049  O1073   1.282   .     A
C1049  O1071   1.280   .     A
C1050  O1074   1.278   .     A
C1050  C1052   1.403   .     S
C1050  O1076   1.281   .     A
C1051  O1075   1.278   .     A
C1051  C1053   1.403   .     S
C1051  O1077   1.281   .     A
C1053  C972    1.331   1_655 S
C1053  H979    1.088   1_655 S
C1054  O1078   1.382   .     S
C1055  O1070   1.382   .     S
C1055  C802    1.373   1_565 S
C1056  H1060   1.085   .     S
C1056  C814    1.373   1_565 S
H1057  C972    1.088   1_655 S
H1058  O1070   0.989   .     S
H1066  O1078   0.989   .     S
N1067  Zn1079  2.012   .     S
N1068  Zn1080  2.012   .     S
O1069  Zn1079  1.990   .     S
O1071  Zn1080  1.990   .     S
O1072  Zn1080  1.985   .     S
O1073  Zn1079  1.985   .     S
O1074  Zn1079  1.970   .     S
O1075  Zn1080  1.970   .     S
O1076  Zn1080  1.982   .     S
O1077  Zn1079  1.982   .     S
