data_str_m3_o10_o17_pcu_sym.103
_audit_creation_date              2020-01-03
_audit_creation_method            'Materials Studio'
_symmetry_space_group_name_H-M    'P1'
_symmetry_Int_Tables_number       1
_symmetry_cell_setting            triclinic
loop_
_symmetry_equiv_pos_as_xyz
  x,y,z
_cell_length_a                    23.3037
_cell_length_b                    25.6545
_cell_length_c                    29.7367
_cell_angle_alpha                 91.1886
_cell_angle_beta                  86.0114
_cell_angle_gamma                 93.6292
loop_
_atom_site_label
_atom_site_type_symbol
_atom_site_fract_x
_atom_site_fract_y
_atom_site_fract_z
_atom_site_U_iso_or_equiv
_atom_site_adp_type
_atom_site_occupancy
C1     C     0.18192   0.26490   0.24886   0.00000  Uiso   1.00
C2     C     0.19585   0.20854   0.40572   0.00000  Uiso   1.00
C3     C     0.16429   0.16705   0.11610   0.00000  Uiso   1.00
C4     C     0.16905   0.16628   0.38389   0.00000  Uiso   1.00
C5     C     0.19140   0.20908   0.09295   0.00000  Uiso   1.00
C6     C     0.14188   0.12429   0.40705   0.00000  Uiso   1.00
C7     C     0.19189   0.20946   0.04649   0.00000  Uiso   1.00
C8     C     0.14155   0.12384   0.45349   0.00000  Uiso   1.00
C9     C     0.16599   0.16644   0.02343   0.00000  Uiso   1.00
C10    C     0.16751   0.16682   0.47656   0.00000  Uiso   1.00
C11    C     0.13891   0.12306   0.04735   0.00000  Uiso   1.00
C12    C     0.15142   0.06843   0.25118   0.00000  Uiso   1.00
C13    C     0.19469   0.21015   0.45262   0.00000  Uiso   1.00
C14    C     0.21806   0.25226   0.02313   0.00000  Uiso   1.00
C15    C     0.11558   0.08094   0.47685   0.00000  Uiso   1.00
C16    C     0.21942   0.25350   0.47627   0.00000  Uiso   1.00
C17    C     0.11439   0.07963   0.02367   0.00000  Uiso   1.00
C18    C     0.18997   0.31940   0.24821   0.00000  Uiso   1.00
C19    C     0.14337   0.01394   0.25188   0.00000  Uiso   1.00
C20    C     0.16748   0.16676   0.33638   0.00000  Uiso   1.00
C21    C     0.16585   0.16658   0.16362   0.00000  Uiso   1.00
C22    C     0.13769   0.12469   0.09426   0.00000  Uiso   1.00
H23    H     0.11736   0.09318   0.11442   0.00000  Uiso   1.00
H24    H     0.32879   0.20585   0.28403   0.00000  Uiso   1.00
H25    H     0.22443   0.03164   0.40164   0.00000  Uiso   1.00
H26    H     0.04597   0.28040   0.03070   0.00000  Uiso   1.00
H27    H     0.21628   0.24000   0.38555   0.00000  Uiso   1.00
H28    H     0.21170   0.24146   0.11131   0.00000  Uiso   1.00
H29    H     0.12150   0.09195   0.38869   0.00000  Uiso   1.00
H30    H     0.23728   0.28491   0.04170   0.00000  Uiso   1.00
H31    H     0.09645   0.04827   0.45828   0.00000  Uiso   1.00
H32    H     0.23398   0.00307   0.24470   0.00000  Uiso   1.00
H33    H     0.09935   0.33027   0.25540   0.00000  Uiso   1.00
H34    H     0.00454   0.12749   0.21597   0.00000  Uiso   1.00
N35    N     0.31678   0.15265   0.23783   0.00000  Uiso   1.00
N36    N     0.01656   0.18068   0.26217   0.00000  Uiso   1.00
O37    O     0.12975   0.24619   0.25298   0.00000  Uiso   1.00
O38    O     0.30357   0.29533   0.41984   0.00000  Uiso   1.00
O39    O     0.20369   0.00089   0.41624   0.00000  Uiso   1.00
O40    O     0.12591   0.00076   0.07939   0.00000  Uiso   1.00
O41    O     0.03096   0.03704   0.08031   0.00000  Uiso   1.00
O42    O     0.06237   0.31049   0.01266   0.00000  Uiso   1.00
O43    O     0.20358   0.08714   0.24701   0.00000  Uiso   1.00
O44    O     0.22613   0.23721   0.24518   0.00000  Uiso   1.00
O45    O     0.10720   0.09613   0.25482   0.00000  Uiso   1.00
O46    O     0.11847   0.17117   0.31997   0.00000  Uiso   1.00
O47    O     0.21486   0.16216   0.18002   0.00000  Uiso   1.00
O48    O     0.21485   0.16219   0.31217   0.00000  Uiso   1.00
O49    O     0.11848   0.17115   0.18782   0.00000  Uiso   1.00
O50    O     0.26941   0.01787   0.48271   0.00000  Uiso   1.00
S51    S     0.25147   0.31004   0.44886   0.00000  Uiso   1.00
S52    S     0.08282   0.02277   0.05080   0.00000  Uiso   1.00
Zn53   Zn    0.10231   0.17266   0.25521   0.00000  Uiso   1.00
Zn54   Zn    0.23102   0.16067   0.24479   0.00000  Uiso   1.00
C55    C     0.51525   0.26490   0.24886   0.00000  Uiso   1.00
C56    C     0.52918   0.20854   0.40572   0.00000  Uiso   1.00
C57    C     0.49762   0.16705   0.11610   0.00000  Uiso   1.00
C58    C     0.50238   0.16628   0.38389   0.00000  Uiso   1.00
C59    C     0.52473   0.20908   0.09295   0.00000  Uiso   1.00
C60    C     0.47521   0.12429   0.40705   0.00000  Uiso   1.00
C61    C     0.52523   0.20946   0.04649   0.00000  Uiso   1.00
C62    C     0.47488   0.12384   0.45349   0.00000  Uiso   1.00
C63    C     0.49933   0.16644   0.02343   0.00000  Uiso   1.00
C64    C     0.50085   0.16682   0.47656   0.00000  Uiso   1.00
C65    C     0.47224   0.12306   0.04735   0.00000  Uiso   1.00
C66    C     0.48475   0.06843   0.25118   0.00000  Uiso   1.00
C67    C     0.52803   0.21015   0.45262   0.00000  Uiso   1.00
C68    C     0.55139   0.25226   0.02313   0.00000  Uiso   1.00
C69    C     0.44891   0.08094   0.47685   0.00000  Uiso   1.00
C70    C     0.55276   0.25350   0.47627   0.00000  Uiso   1.00
C71    C     0.44772   0.07963   0.02367   0.00000  Uiso   1.00
C72    C     0.52330   0.31940   0.24821   0.00000  Uiso   1.00
C73    C     0.47670   0.01394   0.25188   0.00000  Uiso   1.00
C74    C     0.50081   0.16676   0.33638   0.00000  Uiso   1.00
C75    C     0.49919   0.16658   0.16362   0.00000  Uiso   1.00
C76    C     0.47102   0.12469   0.09426   0.00000  Uiso   1.00
H77    H     0.45069   0.09318   0.11442   0.00000  Uiso   1.00
H78    H     0.66213   0.20585   0.28403   0.00000  Uiso   1.00
H79    H     0.55776   0.03164   0.40164   0.00000  Uiso   1.00
H80    H     0.37930   0.28040   0.03070   0.00000  Uiso   1.00
H81    H     0.54962   0.24000   0.38555   0.00000  Uiso   1.00
H82    H     0.54503   0.24146   0.11131   0.00000  Uiso   1.00
H83    H     0.45483   0.09195   0.38869   0.00000  Uiso   1.00
H84    H     0.57061   0.28491   0.04170   0.00000  Uiso   1.00
H85    H     0.42978   0.04827   0.45828   0.00000  Uiso   1.00
H86    H     0.56732   0.00307   0.24470   0.00000  Uiso   1.00
H87    H     0.43269   0.33027   0.25540   0.00000  Uiso   1.00
H88    H     0.33787   0.12749   0.21597   0.00000  Uiso   1.00
N89    N     0.65011   0.15265   0.23783   0.00000  Uiso   1.00
N90    N     0.34989   0.18068   0.26217   0.00000  Uiso   1.00
O91    O     0.46308   0.24619   0.25298   0.00000  Uiso   1.00
O92    O     0.63690   0.29533   0.41984   0.00000  Uiso   1.00
O93    O     0.53702   0.00089   0.41624   0.00000  Uiso   1.00
O94    O     0.45924   0.00076   0.07939   0.00000  Uiso   1.00
O95    O     0.36429   0.03704   0.08031   0.00000  Uiso   1.00
O96    O     0.39571   0.31049   0.01266   0.00000  Uiso   1.00
O97    O     0.53692   0.08714   0.24701   0.00000  Uiso   1.00
O98    O     0.55946   0.23721   0.24518   0.00000  Uiso   1.00
O99    O     0.44054   0.09613   0.25482   0.00000  Uiso   1.00
O100   O     0.45181   0.17117   0.31997   0.00000  Uiso   1.00
O101   O     0.54819   0.16216   0.18002   0.00000  Uiso   1.00
O102   O     0.54819   0.16219   0.31217   0.00000  Uiso   1.00
O103   O     0.45181   0.17115   0.18782   0.00000  Uiso   1.00
O104   O     0.60274   0.01787   0.48271   0.00000  Uiso   1.00
S105   S     0.58481   0.31004   0.44886   0.00000  Uiso   1.00
S106   S     0.41615   0.02277   0.05080   0.00000  Uiso   1.00
Zn107  Zn    0.43565   0.17266   0.25521   0.00000  Uiso   1.00
Zn108  Zn    0.56435   0.16067   0.24479   0.00000  Uiso   1.00
C109   C     0.84858   0.26490   0.24886   0.00000  Uiso   1.00
C110   C     0.86252   0.20854   0.40572   0.00000  Uiso   1.00
C111   C     0.83096   0.16705   0.11610   0.00000  Uiso   1.00
C112   C     0.83572   0.16628   0.38389   0.00000  Uiso   1.00
C113   C     0.85806   0.20908   0.09295   0.00000  Uiso   1.00
C114   C     0.80855   0.12429   0.40705   0.00000  Uiso   1.00
C115   C     0.85856   0.20946   0.04649   0.00000  Uiso   1.00
C116   C     0.80822   0.12384   0.45349   0.00000  Uiso   1.00
C117   C     0.83266   0.16644   0.02343   0.00000  Uiso   1.00
C118   C     0.83418   0.16682   0.47656   0.00000  Uiso   1.00
C119   C     0.80557   0.12306   0.04735   0.00000  Uiso   1.00
C120   C     0.81809   0.06843   0.25118   0.00000  Uiso   1.00
C121   C     0.86136   0.21015   0.45262   0.00000  Uiso   1.00
C122   C     0.88473   0.25226   0.02313   0.00000  Uiso   1.00
C123   C     0.78225   0.08094   0.47685   0.00000  Uiso   1.00
C124   C     0.88609   0.25350   0.47627   0.00000  Uiso   1.00
C125   C     0.78105   0.07963   0.02367   0.00000  Uiso   1.00
C126   C     0.85663   0.31940   0.24821   0.00000  Uiso   1.00
C127   C     0.81004   0.01394   0.25188   0.00000  Uiso   1.00
C128   C     0.83415   0.16676   0.33638   0.00000  Uiso   1.00
C129   C     0.83252   0.16658   0.16362   0.00000  Uiso   1.00
C130   C     0.80436   0.12469   0.09426   0.00000  Uiso   1.00
H131   H     0.78402   0.09318   0.11442   0.00000  Uiso   1.00
H132   H     0.99546   0.20585   0.28403   0.00000  Uiso   1.00
H133   H     0.89110   0.03164   0.40164   0.00000  Uiso   1.00
H134   H     0.71264   0.28040   0.03070   0.00000  Uiso   1.00
H135   H     0.88295   0.24000   0.38555   0.00000  Uiso   1.00
H136   H     0.87837   0.24146   0.11131   0.00000  Uiso   1.00
H137   H     0.78817   0.09195   0.38869   0.00000  Uiso   1.00
H138   H     0.90394   0.28491   0.04170   0.00000  Uiso   1.00
H139   H     0.76311   0.04827   0.45828   0.00000  Uiso   1.00
H140   H     0.90065   0.00307   0.24470   0.00000  Uiso   1.00
H141   H     0.76602   0.33027   0.25540   0.00000  Uiso   1.00
H142   H     0.67121   0.12749   0.21597   0.00000  Uiso   1.00
N143   N     0.98344   0.15265   0.23783   0.00000  Uiso   1.00
N144   N     0.68322   0.18068   0.26217   0.00000  Uiso   1.00
O145   O     0.79642   0.24619   0.25298   0.00000  Uiso   1.00
O146   O     0.97024   0.29533   0.41984   0.00000  Uiso   1.00
O147   O     0.87035   0.00089   0.41624   0.00000  Uiso   1.00
O148   O     0.79258   0.00076   0.07939   0.00000  Uiso   1.00
O149   O     0.69762   0.03704   0.08031   0.00000  Uiso   1.00
O150   O     0.72904   0.31049   0.01266   0.00000  Uiso   1.00
O151   O     0.87025   0.08714   0.24701   0.00000  Uiso   1.00
O152   O     0.89280   0.23721   0.24518   0.00000  Uiso   1.00
O153   O     0.77387   0.09613   0.25482   0.00000  Uiso   1.00
O154   O     0.78514   0.17117   0.31997   0.00000  Uiso   1.00
O155   O     0.88153   0.16216   0.18002   0.00000  Uiso   1.00
O156   O     0.88152   0.16219   0.31217   0.00000  Uiso   1.00
O157   O     0.78515   0.17115   0.18782   0.00000  Uiso   1.00
O158   O     0.93607   0.01787   0.48271   0.00000  Uiso   1.00
S159   S     0.91814   0.31004   0.44886   0.00000  Uiso   1.00
S160   S     0.74948   0.02277   0.05080   0.00000  Uiso   1.00
Zn161  Zn    0.76898   0.17266   0.25521   0.00000  Uiso   1.00
Zn162  Zn    0.89769   0.16067   0.24479   0.00000  Uiso   1.00
C163   C     0.18192   0.59823   0.24886   0.00000  Uiso   1.00
C164   C     0.19585   0.54187   0.40572   0.00000  Uiso   1.00
C165   C     0.16429   0.50039   0.11610   0.00000  Uiso   1.00
C166   C     0.16905   0.49961   0.38389   0.00000  Uiso   1.00
C167   C     0.19140   0.54241   0.09295   0.00000  Uiso   1.00
C168   C     0.14188   0.45763   0.40705   0.00000  Uiso   1.00
C169   C     0.19189   0.54279   0.04649   0.00000  Uiso   1.00
C170   C     0.14155   0.45717   0.45349   0.00000  Uiso   1.00
C171   C     0.16599   0.49977   0.02343   0.00000  Uiso   1.00
C172   C     0.16751   0.50016   0.47656   0.00000  Uiso   1.00
C173   C     0.13891   0.45639   0.04735   0.00000  Uiso   1.00
C174   C     0.15142   0.40177   0.25118   0.00000  Uiso   1.00
C175   C     0.19469   0.54349   0.45262   0.00000  Uiso   1.00
C176   C     0.21806   0.58560   0.02313   0.00000  Uiso   1.00
C177   C     0.11558   0.41427   0.47685   0.00000  Uiso   1.00
C178   C     0.21942   0.58683   0.47627   0.00000  Uiso   1.00
C179   C     0.11439   0.41296   0.02367   0.00000  Uiso   1.00
C180   C     0.18997   0.65273   0.24821   0.00000  Uiso   1.00
C181   C     0.14337   0.34727   0.25188   0.00000  Uiso   1.00
C182   C     0.16748   0.50009   0.33638   0.00000  Uiso   1.00
C183   C     0.16585   0.49991   0.16362   0.00000  Uiso   1.00
C184   C     0.13769   0.45802   0.09426   0.00000  Uiso   1.00
H185   H     0.11736   0.42651   0.11442   0.00000  Uiso   1.00
H186   H     0.32879   0.53918   0.28403   0.00000  Uiso   1.00
H187   H     0.22443   0.36497   0.40164   0.00000  Uiso   1.00
H188   H     0.04597   0.61373   0.03070   0.00000  Uiso   1.00
H189   H     0.21628   0.57333   0.38555   0.00000  Uiso   1.00
H190   H     0.21170   0.57479   0.11131   0.00000  Uiso   1.00
H191   H     0.12150   0.42528   0.38869   0.00000  Uiso   1.00
H192   H     0.23728   0.61824   0.04170   0.00000  Uiso   1.00
H193   H     0.09645   0.38160   0.45828   0.00000  Uiso   1.00
H194   H     0.23398   0.33640   0.24470   0.00000  Uiso   1.00
H195   H     0.09935   0.66360   0.25540   0.00000  Uiso   1.00
H196   H     0.00454   0.46082   0.21597   0.00000  Uiso   1.00
N197   N     0.31678   0.48598   0.23783   0.00000  Uiso   1.00
N198   N     0.01656   0.51402   0.26217   0.00000  Uiso   1.00
O199   O     0.12975   0.57952   0.25298   0.00000  Uiso   1.00
O200   O     0.30357   0.62867   0.41984   0.00000  Uiso   1.00
O201   O     0.20369   0.33422   0.41624   0.00000  Uiso   1.00
O202   O     0.12591   0.33410   0.07939   0.00000  Uiso   1.00
O203   O     0.03096   0.37037   0.08031   0.00000  Uiso   1.00
O204   O     0.06237   0.64383   0.01266   0.00000  Uiso   1.00
O205   O     0.20358   0.42048   0.24701   0.00000  Uiso   1.00
O206   O     0.22613   0.57054   0.24518   0.00000  Uiso   1.00
O207   O     0.10720   0.42946   0.25482   0.00000  Uiso   1.00
O208   O     0.11847   0.50450   0.31997   0.00000  Uiso   1.00
O209   O     0.21486   0.49550   0.18002   0.00000  Uiso   1.00
O210   O     0.21485   0.49552   0.31217   0.00000  Uiso   1.00
O211   O     0.11848   0.50448   0.18782   0.00000  Uiso   1.00
O212   O     0.26941   0.35120   0.48271   0.00000  Uiso   1.00
S213   S     0.25147   0.64337   0.44886   0.00000  Uiso   1.00
S214   S     0.08282   0.35610   0.05080   0.00000  Uiso   1.00
Zn215  Zn    0.10231   0.50600   0.25521   0.00000  Uiso   1.00
Zn216  Zn    0.23102   0.49400   0.24479   0.00000  Uiso   1.00
C217   C     0.51525   0.59823   0.24886   0.00000  Uiso   1.00
C218   C     0.52918   0.54187   0.40572   0.00000  Uiso   1.00
C219   C     0.49762   0.50039   0.11610   0.00000  Uiso   1.00
C220   C     0.50238   0.49961   0.38389   0.00000  Uiso   1.00
C221   C     0.52473   0.54241   0.09295   0.00000  Uiso   1.00
C222   C     0.47521   0.45763   0.40705   0.00000  Uiso   1.00
C223   C     0.52523   0.54279   0.04649   0.00000  Uiso   1.00
C224   C     0.47488   0.45717   0.45349   0.00000  Uiso   1.00
C225   C     0.49933   0.49977   0.02343   0.00000  Uiso   1.00
C226   C     0.50085   0.50016   0.47656   0.00000  Uiso   1.00
C227   C     0.47224   0.45639   0.04735   0.00000  Uiso   1.00
C228   C     0.48475   0.40177   0.25118   0.00000  Uiso   1.00
C229   C     0.52803   0.54349   0.45262   0.00000  Uiso   1.00
C230   C     0.55139   0.58560   0.02313   0.00000  Uiso   1.00
C231   C     0.44891   0.41427   0.47685   0.00000  Uiso   1.00
C232   C     0.55276   0.58683   0.47627   0.00000  Uiso   1.00
C233   C     0.44772   0.41296   0.02367   0.00000  Uiso   1.00
C234   C     0.52330   0.65273   0.24821   0.00000  Uiso   1.00
C235   C     0.47670   0.34727   0.25188   0.00000  Uiso   1.00
C236   C     0.50081   0.50009   0.33638   0.00000  Uiso   1.00
C237   C     0.49919   0.49991   0.16362   0.00000  Uiso   1.00
C238   C     0.47102   0.45802   0.09426   0.00000  Uiso   1.00
H239   H     0.45069   0.42651   0.11442   0.00000  Uiso   1.00
H240   H     0.66213   0.53918   0.28403   0.00000  Uiso   1.00
H241   H     0.55776   0.36497   0.40164   0.00000  Uiso   1.00
H242   H     0.37930   0.61373   0.03070   0.00000  Uiso   1.00
H243   H     0.54962   0.57333   0.38555   0.00000  Uiso   1.00
H244   H     0.54503   0.57479   0.11131   0.00000  Uiso   1.00
H245   H     0.45483   0.42528   0.38869   0.00000  Uiso   1.00
H246   H     0.57061   0.61824   0.04170   0.00000  Uiso   1.00
H247   H     0.42978   0.38160   0.45828   0.00000  Uiso   1.00
H248   H     0.56732   0.33640   0.24470   0.00000  Uiso   1.00
H249   H     0.43269   0.66360   0.25540   0.00000  Uiso   1.00
H250   H     0.33787   0.46082   0.21597   0.00000  Uiso   1.00
N251   N     0.65011   0.48598   0.23783   0.00000  Uiso   1.00
N252   N     0.34989   0.51402   0.26217   0.00000  Uiso   1.00
O253   O     0.46308   0.57952   0.25298   0.00000  Uiso   1.00
O254   O     0.63690   0.62867   0.41984   0.00000  Uiso   1.00
O255   O     0.53702   0.33422   0.41624   0.00000  Uiso   1.00
O256   O     0.45924   0.33410   0.07939   0.00000  Uiso   1.00
O257   O     0.36429   0.37037   0.08031   0.00000  Uiso   1.00
O258   O     0.39571   0.64383   0.01266   0.00000  Uiso   1.00
O259   O     0.53692   0.42048   0.24701   0.00000  Uiso   1.00
O260   O     0.55946   0.57054   0.24518   0.00000  Uiso   1.00
O261   O     0.44054   0.42946   0.25482   0.00000  Uiso   1.00
O262   O     0.45181   0.50450   0.31997   0.00000  Uiso   1.00
O263   O     0.54819   0.49550   0.18002   0.00000  Uiso   1.00
O264   O     0.54819   0.49552   0.31217   0.00000  Uiso   1.00
O265   O     0.45181   0.50448   0.18782   0.00000  Uiso   1.00
O266   O     0.60274   0.35120   0.48271   0.00000  Uiso   1.00
S267   S     0.58481   0.64337   0.44886   0.00000  Uiso   1.00
S268   S     0.41615   0.35610   0.05080   0.00000  Uiso   1.00
Zn269  Zn    0.43565   0.50600   0.25521   0.00000  Uiso   1.00
Zn270  Zn    0.56435   0.49400   0.24479   0.00000  Uiso   1.00
C271   C     0.84858   0.59823   0.24886   0.00000  Uiso   1.00
C272   C     0.86252   0.54187   0.40572   0.00000  Uiso   1.00
C273   C     0.83096   0.50039   0.11610   0.00000  Uiso   1.00
C274   C     0.83572   0.49961   0.38389   0.00000  Uiso   1.00
C275   C     0.85806   0.54241   0.09295   0.00000  Uiso   1.00
C276   C     0.80855   0.45763   0.40705   0.00000  Uiso   1.00
C277   C     0.85856   0.54279   0.04649   0.00000  Uiso   1.00
C278   C     0.80822   0.45717   0.45349   0.00000  Uiso   1.00
C279   C     0.83266   0.49977   0.02343   0.00000  Uiso   1.00
C280   C     0.83418   0.50016   0.47656   0.00000  Uiso   1.00
C281   C     0.80557   0.45639   0.04735   0.00000  Uiso   1.00
C282   C     0.81809   0.40177   0.25118   0.00000  Uiso   1.00
C283   C     0.86136   0.54349   0.45262   0.00000  Uiso   1.00
C284   C     0.88473   0.58560   0.02313   0.00000  Uiso   1.00
C285   C     0.78225   0.41427   0.47685   0.00000  Uiso   1.00
C286   C     0.88609   0.58683   0.47627   0.00000  Uiso   1.00
C287   C     0.78105   0.41296   0.02367   0.00000  Uiso   1.00
C288   C     0.85663   0.65273   0.24821   0.00000  Uiso   1.00
C289   C     0.81004   0.34727   0.25188   0.00000  Uiso   1.00
C290   C     0.83415   0.50009   0.33638   0.00000  Uiso   1.00
C291   C     0.83252   0.49991   0.16362   0.00000  Uiso   1.00
C292   C     0.80436   0.45802   0.09426   0.00000  Uiso   1.00
H293   H     0.78402   0.42651   0.11442   0.00000  Uiso   1.00
H294   H     0.99546   0.53918   0.28403   0.00000  Uiso   1.00
H295   H     0.89110   0.36497   0.40164   0.00000  Uiso   1.00
H296   H     0.71264   0.61373   0.03070   0.00000  Uiso   1.00
H297   H     0.88295   0.57333   0.38555   0.00000  Uiso   1.00
H298   H     0.87837   0.57479   0.11131   0.00000  Uiso   1.00
H299   H     0.78817   0.42528   0.38869   0.00000  Uiso   1.00
H300   H     0.90394   0.61824   0.04170   0.00000  Uiso   1.00
H301   H     0.76311   0.38160   0.45828   0.00000  Uiso   1.00
H302   H     0.90065   0.33640   0.24470   0.00000  Uiso   1.00
H303   H     0.76602   0.66360   0.25540   0.00000  Uiso   1.00
H304   H     0.67121   0.46082   0.21597   0.00000  Uiso   1.00
N305   N     0.98344   0.48598   0.23783   0.00000  Uiso   1.00
N306   N     0.68322   0.51402   0.26217   0.00000  Uiso   1.00
O307   O     0.79642   0.57952   0.25298   0.00000  Uiso   1.00
O308   O     0.97024   0.62867   0.41984   0.00000  Uiso   1.00
O309   O     0.87035   0.33422   0.41624   0.00000  Uiso   1.00
O310   O     0.79258   0.33410   0.07939   0.00000  Uiso   1.00
O311   O     0.69762   0.37037   0.08031   0.00000  Uiso   1.00
O312   O     0.72904   0.64383   0.01266   0.00000  Uiso   1.00
O313   O     0.87025   0.42048   0.24701   0.00000  Uiso   1.00
O314   O     0.89280   0.57054   0.24518   0.00000  Uiso   1.00
O315   O     0.77387   0.42946   0.25482   0.00000  Uiso   1.00
O316   O     0.78514   0.50450   0.31997   0.00000  Uiso   1.00
O317   O     0.88153   0.49550   0.18002   0.00000  Uiso   1.00
O318   O     0.88152   0.49552   0.31217   0.00000  Uiso   1.00
O319   O     0.78515   0.50448   0.18782   0.00000  Uiso   1.00
O320   O     0.93607   0.35120   0.48271   0.00000  Uiso   1.00
S321   S     0.91814   0.64337   0.44886   0.00000  Uiso   1.00
S322   S     0.74948   0.35610   0.05080   0.00000  Uiso   1.00
Zn323  Zn    0.76898   0.50600   0.25521   0.00000  Uiso   1.00
Zn324  Zn    0.89769   0.49400   0.24479   0.00000  Uiso   1.00
C325   C     0.18192   0.93157   0.24886   0.00000  Uiso   1.00
C326   C     0.19585   0.87521   0.40572   0.00000  Uiso   1.00
C327   C     0.16429   0.83372   0.11610   0.00000  Uiso   1.00
C328   C     0.16905   0.83294   0.38389   0.00000  Uiso   1.00
C329   C     0.19140   0.87574   0.09295   0.00000  Uiso   1.00
C330   C     0.14188   0.79096   0.40705   0.00000  Uiso   1.00
C331   C     0.19189   0.87612   0.04649   0.00000  Uiso   1.00
C332   C     0.14155   0.79050   0.45349   0.00000  Uiso   1.00
C333   C     0.16599   0.83311   0.02343   0.00000  Uiso   1.00
C334   C     0.16751   0.83349   0.47656   0.00000  Uiso   1.00
C335   C     0.13891   0.78972   0.04735   0.00000  Uiso   1.00
C336   C     0.15142   0.73510   0.25118   0.00000  Uiso   1.00
C337   C     0.19469   0.87682   0.45262   0.00000  Uiso   1.00
C338   C     0.21806   0.91893   0.02313   0.00000  Uiso   1.00
C339   C     0.11558   0.74761   0.47685   0.00000  Uiso   1.00
C340   C     0.21942   0.92017   0.47627   0.00000  Uiso   1.00
C341   C     0.11439   0.74629   0.02367   0.00000  Uiso   1.00
C342   C     0.18997   0.98607   0.24821   0.00000  Uiso   1.00
C343   C     0.14337   0.68060   0.25188   0.00000  Uiso   1.00
C344   C     0.16748   0.83343   0.33638   0.00000  Uiso   1.00
C345   C     0.16585   0.83324   0.16362   0.00000  Uiso   1.00
C346   C     0.13769   0.79136   0.09426   0.00000  Uiso   1.00
H347   H     0.11736   0.75985   0.11442   0.00000  Uiso   1.00
H348   H     0.32879   0.87251   0.28403   0.00000  Uiso   1.00
H349   H     0.22443   0.69831   0.40164   0.00000  Uiso   1.00
H350   H     0.04597   0.94706   0.03070   0.00000  Uiso   1.00
H351   H     0.21628   0.90667   0.38555   0.00000  Uiso   1.00
H352   H     0.21170   0.90812   0.11131   0.00000  Uiso   1.00
H353   H     0.12150   0.75862   0.38869   0.00000  Uiso   1.00
H354   H     0.23728   0.95157   0.04170   0.00000  Uiso   1.00
H355   H     0.09645   0.71493   0.45828   0.00000  Uiso   1.00
H356   H     0.23398   0.66973   0.24470   0.00000  Uiso   1.00
H357   H     0.09935   0.99694   0.25540   0.00000  Uiso   1.00
H358   H     0.00454   0.79415   0.21597   0.00000  Uiso   1.00
N359   N     0.31678   0.81932   0.23783   0.00000  Uiso   1.00
N360   N     0.01656   0.84735   0.26217   0.00000  Uiso   1.00
O361   O     0.12975   0.91286   0.25298   0.00000  Uiso   1.00
O362   O     0.30357   0.96200   0.41984   0.00000  Uiso   1.00
O363   O     0.20369   0.66755   0.41624   0.00000  Uiso   1.00
O364   O     0.12591   0.66743   0.07939   0.00000  Uiso   1.00
O365   O     0.03096   0.70370   0.08031   0.00000  Uiso   1.00
O366   O     0.06237   0.97716   0.01266   0.00000  Uiso   1.00
O367   O     0.20358   0.75381   0.24701   0.00000  Uiso   1.00
O368   O     0.22613   0.90387   0.24518   0.00000  Uiso   1.00
O369   O     0.10720   0.76279   0.25482   0.00000  Uiso   1.00
O370   O     0.11847   0.83784   0.31997   0.00000  Uiso   1.00
O371   O     0.21486   0.82883   0.18002   0.00000  Uiso   1.00
O372   O     0.21485   0.82885   0.31217   0.00000  Uiso   1.00
O373   O     0.11848   0.83781   0.18782   0.00000  Uiso   1.00
O374   O     0.26941   0.68454   0.48271   0.00000  Uiso   1.00
S375   S     0.25147   0.97670   0.44886   0.00000  Uiso   1.00
S376   S     0.08282   0.68944   0.05080   0.00000  Uiso   1.00
Zn377  Zn    0.10231   0.83933   0.25521   0.00000  Uiso   1.00
Zn378  Zn    0.23102   0.82734   0.24479   0.00000  Uiso   1.00
C379   C     0.51525   0.93157   0.24886   0.00000  Uiso   1.00
C380   C     0.52918   0.87521   0.40572   0.00000  Uiso   1.00
C381   C     0.49762   0.83372   0.11610   0.00000  Uiso   1.00
C382   C     0.50238   0.83294   0.38389   0.00000  Uiso   1.00
C383   C     0.52473   0.87574   0.09295   0.00000  Uiso   1.00
C384   C     0.47521   0.79096   0.40705   0.00000  Uiso   1.00
C385   C     0.52523   0.87612   0.04649   0.00000  Uiso   1.00
C386   C     0.47488   0.79050   0.45349   0.00000  Uiso   1.00
C387   C     0.49933   0.83311   0.02343   0.00000  Uiso   1.00
C388   C     0.50085   0.83349   0.47656   0.00000  Uiso   1.00
C389   C     0.47224   0.78972   0.04735   0.00000  Uiso   1.00
C390   C     0.48475   0.73510   0.25118   0.00000  Uiso   1.00
C391   C     0.52803   0.87682   0.45262   0.00000  Uiso   1.00
C392   C     0.55139   0.91893   0.02313   0.00000  Uiso   1.00
C393   C     0.44891   0.74761   0.47685   0.00000  Uiso   1.00
C394   C     0.55276   0.92017   0.47627   0.00000  Uiso   1.00
C395   C     0.44772   0.74629   0.02367   0.00000  Uiso   1.00
C396   C     0.52330   0.98607   0.24821   0.00000  Uiso   1.00
C397   C     0.47670   0.68060   0.25188   0.00000  Uiso   1.00
C398   C     0.50081   0.83343   0.33638   0.00000  Uiso   1.00
C399   C     0.49919   0.83324   0.16362   0.00000  Uiso   1.00
C400   C     0.47102   0.79136   0.09426   0.00000  Uiso   1.00
H401   H     0.45069   0.75985   0.11442   0.00000  Uiso   1.00
H402   H     0.66213   0.87251   0.28403   0.00000  Uiso   1.00
H403   H     0.55776   0.69831   0.40164   0.00000  Uiso   1.00
H404   H     0.37930   0.94706   0.03070   0.00000  Uiso   1.00
H405   H     0.54962   0.90667   0.38555   0.00000  Uiso   1.00
H406   H     0.54503   0.90812   0.11131   0.00000  Uiso   1.00
H407   H     0.45483   0.75862   0.38869   0.00000  Uiso   1.00
H408   H     0.57061   0.95157   0.04170   0.00000  Uiso   1.00
H409   H     0.42978   0.71493   0.45828   0.00000  Uiso   1.00
H410   H     0.56732   0.66973   0.24470   0.00000  Uiso   1.00
H411   H     0.43269   0.99694   0.25540   0.00000  Uiso   1.00
H412   H     0.33787   0.79415   0.21597   0.00000  Uiso   1.00
N413   N     0.65011   0.81932   0.23783   0.00000  Uiso   1.00
N414   N     0.34989   0.84735   0.26217   0.00000  Uiso   1.00
O415   O     0.46308   0.91286   0.25298   0.00000  Uiso   1.00
O416   O     0.63690   0.96200   0.41984   0.00000  Uiso   1.00
O417   O     0.53702   0.66755   0.41624   0.00000  Uiso   1.00
O418   O     0.45924   0.66743   0.07939   0.00000  Uiso   1.00
O419   O     0.36429   0.70370   0.08031   0.00000  Uiso   1.00
O420   O     0.39571   0.97716   0.01266   0.00000  Uiso   1.00
O421   O     0.53692   0.75381   0.24701   0.00000  Uiso   1.00
O422   O     0.55946   0.90387   0.24518   0.00000  Uiso   1.00
O423   O     0.44054   0.76279   0.25482   0.00000  Uiso   1.00
O424   O     0.45181   0.83784   0.31997   0.00000  Uiso   1.00
O425   O     0.54819   0.82883   0.18002   0.00000  Uiso   1.00
O426   O     0.54819   0.82885   0.31217   0.00000  Uiso   1.00
O427   O     0.45181   0.83781   0.18782   0.00000  Uiso   1.00
O428   O     0.60274   0.68454   0.48271   0.00000  Uiso   1.00
S429   S     0.58481   0.97670   0.44886   0.00000  Uiso   1.00
S430   S     0.41615   0.68944   0.05080   0.00000  Uiso   1.00
Zn431  Zn    0.43565   0.83933   0.25521   0.00000  Uiso   1.00
Zn432  Zn    0.56435   0.82734   0.24479   0.00000  Uiso   1.00
C433   C     0.84858   0.93157   0.24886   0.00000  Uiso   1.00
C434   C     0.86252   0.87521   0.40572   0.00000  Uiso   1.00
C435   C     0.83096   0.83372   0.11610   0.00000  Uiso   1.00
C436   C     0.83572   0.83294   0.38389   0.00000  Uiso   1.00
C437   C     0.85806   0.87574   0.09295   0.00000  Uiso   1.00
C438   C     0.80855   0.79096   0.40705   0.00000  Uiso   1.00
C439   C     0.85856   0.87612   0.04649   0.00000  Uiso   1.00
C440   C     0.80822   0.79050   0.45349   0.00000  Uiso   1.00
C441   C     0.83266   0.83311   0.02343   0.00000  Uiso   1.00
C442   C     0.83418   0.83349   0.47656   0.00000  Uiso   1.00
C443   C     0.80557   0.78972   0.04735   0.00000  Uiso   1.00
C444   C     0.81809   0.73510   0.25118   0.00000  Uiso   1.00
C445   C     0.86136   0.87682   0.45262   0.00000  Uiso   1.00
C446   C     0.88473   0.91893   0.02313   0.00000  Uiso   1.00
C447   C     0.78225   0.74761   0.47685   0.00000  Uiso   1.00
C448   C     0.88609   0.92017   0.47627   0.00000  Uiso   1.00
C449   C     0.78105   0.74629   0.02367   0.00000  Uiso   1.00
C450   C     0.85663   0.98607   0.24821   0.00000  Uiso   1.00
C451   C     0.81004   0.68060   0.25188   0.00000  Uiso   1.00
C452   C     0.83415   0.83343   0.33638   0.00000  Uiso   1.00
C453   C     0.83252   0.83324   0.16362   0.00000  Uiso   1.00
C454   C     0.80436   0.79136   0.09426   0.00000  Uiso   1.00
H455   H     0.78402   0.75985   0.11442   0.00000  Uiso   1.00
H456   H     0.99546   0.87251   0.28403   0.00000  Uiso   1.00
H457   H     0.89110   0.69831   0.40164   0.00000  Uiso   1.00
H458   H     0.71264   0.94706   0.03070   0.00000  Uiso   1.00
H459   H     0.88295   0.90667   0.38555   0.00000  Uiso   1.00
H460   H     0.87837   0.90812   0.11131   0.00000  Uiso   1.00
H461   H     0.78817   0.75862   0.38869   0.00000  Uiso   1.00
H462   H     0.90394   0.95157   0.04170   0.00000  Uiso   1.00
H463   H     0.76311   0.71493   0.45828   0.00000  Uiso   1.00
H464   H     0.90065   0.66973   0.24470   0.00000  Uiso   1.00
H465   H     0.76602   0.99694   0.25540   0.00000  Uiso   1.00
H466   H     0.67121   0.79415   0.21597   0.00000  Uiso   1.00
N467   N     0.98344   0.81932   0.23783   0.00000  Uiso   1.00
N468   N     0.68322   0.84735   0.26217   0.00000  Uiso   1.00
O469   O     0.79642   0.91286   0.25298   0.00000  Uiso   1.00
O470   O     0.97024   0.96200   0.41984   0.00000  Uiso   1.00
O471   O     0.87035   0.66755   0.41624   0.00000  Uiso   1.00
O472   O     0.79258   0.66743   0.07939   0.00000  Uiso   1.00
O473   O     0.69762   0.70370   0.08031   0.00000  Uiso   1.00
O474   O     0.72904   0.97716   0.01266   0.00000  Uiso   1.00
O475   O     0.87025   0.75381   0.24701   0.00000  Uiso   1.00
O476   O     0.89280   0.90387   0.24518   0.00000  Uiso   1.00
O477   O     0.77387   0.76279   0.25482   0.00000  Uiso   1.00
O478   O     0.78514   0.83784   0.31997   0.00000  Uiso   1.00
O479   O     0.88153   0.82883   0.18002   0.00000  Uiso   1.00
O480   O     0.88152   0.82885   0.31217   0.00000  Uiso   1.00
O481   O     0.78515   0.83781   0.18782   0.00000  Uiso   1.00
O482   O     0.93607   0.68454   0.48271   0.00000  Uiso   1.00
S483   S     0.91814   0.97670   0.44886   0.00000  Uiso   1.00
S484   S     0.74948   0.68944   0.05080   0.00000  Uiso   1.00
Zn485  Zn    0.76898   0.83933   0.25521   0.00000  Uiso   1.00
Zn486  Zn    0.89769   0.82734   0.24479   0.00000  Uiso   1.00
C487   C     0.18192   0.26490   0.74886   0.00000  Uiso   1.00
C488   C     0.19585   0.20854   0.90572   0.00000  Uiso   1.00
C489   C     0.16429   0.16705   0.61610   0.00000  Uiso   1.00
C490   C     0.16905   0.16628   0.88389   0.00000  Uiso   1.00
C491   C     0.19140   0.20908   0.59295   0.00000  Uiso   1.00
C492   C     0.14188   0.12429   0.90705   0.00000  Uiso   1.00
C493   C     0.19189   0.20946   0.54649   0.00000  Uiso   1.00
C494   C     0.14155   0.12384   0.95349   0.00000  Uiso   1.00
C495   C     0.16599   0.16644   0.52343   0.00000  Uiso   1.00
C496   C     0.16751   0.16682   0.97656   0.00000  Uiso   1.00
C497   C     0.13891   0.12306   0.54735   0.00000  Uiso   1.00
C498   C     0.15142   0.06843   0.75118   0.00000  Uiso   1.00
C499   C     0.19469   0.21015   0.95262   0.00000  Uiso   1.00
C500   C     0.21806   0.25226   0.52313   0.00000  Uiso   1.00
C501   C     0.11558   0.08094   0.97685   0.00000  Uiso   1.00
C502   C     0.21942   0.25350   0.97627   0.00000  Uiso   1.00
C503   C     0.11439   0.07963   0.52367   0.00000  Uiso   1.00
C504   C     0.18997   0.31940   0.74821   0.00000  Uiso   1.00
C505   C     0.14337   0.01394   0.75188   0.00000  Uiso   1.00
C506   C     0.16748   0.16676   0.83638   0.00000  Uiso   1.00
C507   C     0.16585   0.16658   0.66362   0.00000  Uiso   1.00
C508   C     0.13769   0.12469   0.59426   0.00000  Uiso   1.00
H509   H     0.11736   0.09318   0.61442   0.00000  Uiso   1.00
H510   H     0.32879   0.20585   0.78403   0.00000  Uiso   1.00
H511   H     0.22443   0.03164   0.90164   0.00000  Uiso   1.00
H512   H     0.04597   0.28040   0.53070   0.00000  Uiso   1.00
H513   H     0.21628   0.24000   0.88555   0.00000  Uiso   1.00
H514   H     0.21170   0.24146   0.61131   0.00000  Uiso   1.00
H515   H     0.12150   0.09195   0.88869   0.00000  Uiso   1.00
H516   H     0.23728   0.28491   0.54170   0.00000  Uiso   1.00
H517   H     0.09645   0.04827   0.95828   0.00000  Uiso   1.00
H518   H     0.23398   0.00307   0.74470   0.00000  Uiso   1.00
H519   H     0.09935   0.33027   0.75540   0.00000  Uiso   1.00
H520   H     0.00454   0.12749   0.71597   0.00000  Uiso   1.00
N521   N     0.31678   0.15265   0.73783   0.00000  Uiso   1.00
N522   N     0.01656   0.18068   0.76217   0.00000  Uiso   1.00
O523   O     0.12975   0.24619   0.75298   0.00000  Uiso   1.00
O524   O     0.30357   0.29533   0.91984   0.00000  Uiso   1.00
O525   O     0.20369   0.00089   0.91624   0.00000  Uiso   1.00
O526   O     0.12591   0.00076   0.57939   0.00000  Uiso   1.00
O527   O     0.03096   0.03704   0.58031   0.00000  Uiso   1.00
O528   O     0.06237   0.31049   0.51266   0.00000  Uiso   1.00
O529   O     0.20358   0.08714   0.74701   0.00000  Uiso   1.00
O530   O     0.22613   0.23721   0.74518   0.00000  Uiso   1.00
O531   O     0.10720   0.09613   0.75482   0.00000  Uiso   1.00
O532   O     0.11847   0.17117   0.81997   0.00000  Uiso   1.00
O533   O     0.21486   0.16216   0.68002   0.00000  Uiso   1.00
O534   O     0.21485   0.16219   0.81217   0.00000  Uiso   1.00
O535   O     0.11848   0.17115   0.68782   0.00000  Uiso   1.00
O536   O     0.26941   0.01787   0.98271   0.00000  Uiso   1.00
S537   S     0.25147   0.31004   0.94886   0.00000  Uiso   1.00
S538   S     0.08282   0.02277   0.55080   0.00000  Uiso   1.00
Zn539  Zn    0.10231   0.17266   0.75521   0.00000  Uiso   1.00
Zn540  Zn    0.23102   0.16067   0.74479   0.00000  Uiso   1.00
C541   C     0.51525   0.26490   0.74886   0.00000  Uiso   1.00
C542   C     0.52918   0.20854   0.90572   0.00000  Uiso   1.00
C543   C     0.49762   0.16705   0.61610   0.00000  Uiso   1.00
C544   C     0.50238   0.16628   0.88389   0.00000  Uiso   1.00
C545   C     0.52473   0.20908   0.59295   0.00000  Uiso   1.00
C546   C     0.47521   0.12429   0.90705   0.00000  Uiso   1.00
C547   C     0.52523   0.20946   0.54649   0.00000  Uiso   1.00
C548   C     0.47488   0.12384   0.95349   0.00000  Uiso   1.00
C549   C     0.49933   0.16644   0.52343   0.00000  Uiso   1.00
C550   C     0.50085   0.16682   0.97656   0.00000  Uiso   1.00
C551   C     0.47224   0.12306   0.54735   0.00000  Uiso   1.00
C552   C     0.48475   0.06843   0.75118   0.00000  Uiso   1.00
C553   C     0.52803   0.21015   0.95262   0.00000  Uiso   1.00
C554   C     0.55139   0.25226   0.52313   0.00000  Uiso   1.00
C555   C     0.44891   0.08094   0.97685   0.00000  Uiso   1.00
C556   C     0.55276   0.25350   0.97627   0.00000  Uiso   1.00
C557   C     0.44772   0.07963   0.52367   0.00000  Uiso   1.00
C558   C     0.52330   0.31940   0.74821   0.00000  Uiso   1.00
C559   C     0.47670   0.01394   0.75188   0.00000  Uiso   1.00
C560   C     0.50081   0.16676   0.83638   0.00000  Uiso   1.00
C561   C     0.49919   0.16658   0.66362   0.00000  Uiso   1.00
C562   C     0.47102   0.12469   0.59426   0.00000  Uiso   1.00
H563   H     0.45069   0.09318   0.61442   0.00000  Uiso   1.00
H564   H     0.66213   0.20585   0.78403   0.00000  Uiso   1.00
H565   H     0.55776   0.03164   0.90164   0.00000  Uiso   1.00
H566   H     0.37930   0.28040   0.53070   0.00000  Uiso   1.00
H567   H     0.54962   0.24000   0.88555   0.00000  Uiso   1.00
H568   H     0.54503   0.24146   0.61131   0.00000  Uiso   1.00
H569   H     0.45483   0.09195   0.88869   0.00000  Uiso   1.00
H570   H     0.57061   0.28491   0.54170   0.00000  Uiso   1.00
H571   H     0.42978   0.04827   0.95828   0.00000  Uiso   1.00
H572   H     0.56732   0.00307   0.74470   0.00000  Uiso   1.00
H573   H     0.43269   0.33027   0.75540   0.00000  Uiso   1.00
H574   H     0.33787   0.12749   0.71597   0.00000  Uiso   1.00
N575   N     0.65011   0.15265   0.73783   0.00000  Uiso   1.00
N576   N     0.34989   0.18068   0.76217   0.00000  Uiso   1.00
O577   O     0.46308   0.24619   0.75298   0.00000  Uiso   1.00
O578   O     0.63690   0.29533   0.91984   0.00000  Uiso   1.00
O579   O     0.53702   0.00089   0.91624   0.00000  Uiso   1.00
O580   O     0.45924   0.00076   0.57939   0.00000  Uiso   1.00
O581   O     0.36429   0.03704   0.58031   0.00000  Uiso   1.00
O582   O     0.39571   0.31049   0.51266   0.00000  Uiso   1.00
O583   O     0.53692   0.08714   0.74701   0.00000  Uiso   1.00
O584   O     0.55946   0.23721   0.74518   0.00000  Uiso   1.00
O585   O     0.44054   0.09613   0.75482   0.00000  Uiso   1.00
O586   O     0.45181   0.17117   0.81997   0.00000  Uiso   1.00
O587   O     0.54819   0.16216   0.68002   0.00000  Uiso   1.00
O588   O     0.54819   0.16219   0.81217   0.00000  Uiso   1.00
O589   O     0.45181   0.17115   0.68782   0.00000  Uiso   1.00
O590   O     0.60274   0.01787   0.98271   0.00000  Uiso   1.00
S591   S     0.58481   0.31004   0.94886   0.00000  Uiso   1.00
S592   S     0.41615   0.02277   0.55080   0.00000  Uiso   1.00
Zn593  Zn    0.43565   0.17266   0.75521   0.00000  Uiso   1.00
Zn594  Zn    0.56435   0.16067   0.74479   0.00000  Uiso   1.00
C595   C     0.84858   0.26490   0.74886   0.00000  Uiso   1.00
C596   C     0.86252   0.20854   0.90572   0.00000  Uiso   1.00
C597   C     0.83096   0.16705   0.61610   0.00000  Uiso   1.00
C598   C     0.83572   0.16628   0.88389   0.00000  Uiso   1.00
C599   C     0.85806   0.20908   0.59295   0.00000  Uiso   1.00
C600   C     0.80855   0.12429   0.90705   0.00000  Uiso   1.00
C601   C     0.85856   0.20946   0.54649   0.00000  Uiso   1.00
C602   C     0.80822   0.12384   0.95349   0.00000  Uiso   1.00
C603   C     0.83266   0.16644   0.52343   0.00000  Uiso   1.00
C604   C     0.83418   0.16682   0.97656   0.00000  Uiso   1.00
C605   C     0.80557   0.12306   0.54735   0.00000  Uiso   1.00
C606   C     0.81809   0.06843   0.75118   0.00000  Uiso   1.00
C607   C     0.86136   0.21015   0.95262   0.00000  Uiso   1.00
C608   C     0.88473   0.25226   0.52313   0.00000  Uiso   1.00
C609   C     0.78225   0.08094   0.97685   0.00000  Uiso   1.00
C610   C     0.88609   0.25350   0.97627   0.00000  Uiso   1.00
C611   C     0.78105   0.07963   0.52367   0.00000  Uiso   1.00
C612   C     0.85663   0.31940   0.74821   0.00000  Uiso   1.00
C613   C     0.81004   0.01394   0.75188   0.00000  Uiso   1.00
C614   C     0.83415   0.16676   0.83638   0.00000  Uiso   1.00
C615   C     0.83252   0.16658   0.66362   0.00000  Uiso   1.00
C616   C     0.80436   0.12469   0.59426   0.00000  Uiso   1.00
H617   H     0.78402   0.09318   0.61442   0.00000  Uiso   1.00
H618   H     0.99546   0.20585   0.78403   0.00000  Uiso   1.00
H619   H     0.89110   0.03164   0.90164   0.00000  Uiso   1.00
H620   H     0.71264   0.28040   0.53070   0.00000  Uiso   1.00
H621   H     0.88295   0.24000   0.88555   0.00000  Uiso   1.00
H622   H     0.87837   0.24146   0.61131   0.00000  Uiso   1.00
H623   H     0.78817   0.09195   0.88869   0.00000  Uiso   1.00
H624   H     0.90394   0.28491   0.54170   0.00000  Uiso   1.00
H625   H     0.76311   0.04827   0.95828   0.00000  Uiso   1.00
H626   H     0.90065   0.00307   0.74470   0.00000  Uiso   1.00
H627   H     0.76602   0.33027   0.75540   0.00000  Uiso   1.00
H628   H     0.67121   0.12749   0.71597   0.00000  Uiso   1.00
N629   N     0.98344   0.15265   0.73783   0.00000  Uiso   1.00
N630   N     0.68322   0.18068   0.76217   0.00000  Uiso   1.00
O631   O     0.79642   0.24619   0.75298   0.00000  Uiso   1.00
O632   O     0.97024   0.29533   0.91984   0.00000  Uiso   1.00
O633   O     0.87035   0.00089   0.91624   0.00000  Uiso   1.00
O634   O     0.79258   0.00076   0.57939   0.00000  Uiso   1.00
O635   O     0.69762   0.03704   0.58031   0.00000  Uiso   1.00
O636   O     0.72904   0.31049   0.51266   0.00000  Uiso   1.00
O637   O     0.87025   0.08714   0.74701   0.00000  Uiso   1.00
O638   O     0.89280   0.23721   0.74518   0.00000  Uiso   1.00
O639   O     0.77387   0.09613   0.75482   0.00000  Uiso   1.00
O640   O     0.78514   0.17117   0.81997   0.00000  Uiso   1.00
O641   O     0.88153   0.16216   0.68002   0.00000  Uiso   1.00
O642   O     0.88152   0.16219   0.81217   0.00000  Uiso   1.00
O643   O     0.78515   0.17115   0.68782   0.00000  Uiso   1.00
O644   O     0.93607   0.01787   0.98271   0.00000  Uiso   1.00
S645   S     0.91814   0.31004   0.94886   0.00000  Uiso   1.00
S646   S     0.74948   0.02277   0.55080   0.00000  Uiso   1.00
Zn647  Zn    0.76898   0.17266   0.75521   0.00000  Uiso   1.00
Zn648  Zn    0.89769   0.16067   0.74479   0.00000  Uiso   1.00
C649   C     0.18192   0.59823   0.74886   0.00000  Uiso   1.00
C650   C     0.19585   0.54187   0.90572   0.00000  Uiso   1.00
C651   C     0.16429   0.50039   0.61610   0.00000  Uiso   1.00
C652   C     0.16905   0.49961   0.88389   0.00000  Uiso   1.00
C653   C     0.19140   0.54241   0.59295   0.00000  Uiso   1.00
C654   C     0.14188   0.45763   0.90705   0.00000  Uiso   1.00
C655   C     0.19189   0.54279   0.54649   0.00000  Uiso   1.00
C656   C     0.14155   0.45717   0.95349   0.00000  Uiso   1.00
C657   C     0.16599   0.49977   0.52343   0.00000  Uiso   1.00
C658   C     0.16751   0.50016   0.97656   0.00000  Uiso   1.00
C659   C     0.13891   0.45639   0.54735   0.00000  Uiso   1.00
C660   C     0.15142   0.40177   0.75118   0.00000  Uiso   1.00
C661   C     0.19469   0.54349   0.95262   0.00000  Uiso   1.00
C662   C     0.21806   0.58560   0.52313   0.00000  Uiso   1.00
C663   C     0.11558   0.41427   0.97685   0.00000  Uiso   1.00
C664   C     0.21942   0.58683   0.97627   0.00000  Uiso   1.00
C665   C     0.11439   0.41296   0.52367   0.00000  Uiso   1.00
C666   C     0.18997   0.65273   0.74821   0.00000  Uiso   1.00
C667   C     0.14337   0.34727   0.75188   0.00000  Uiso   1.00
C668   C     0.16748   0.50009   0.83638   0.00000  Uiso   1.00
C669   C     0.16585   0.49991   0.66362   0.00000  Uiso   1.00
C670   C     0.13769   0.45802   0.59426   0.00000  Uiso   1.00
H671   H     0.11736   0.42651   0.61442   0.00000  Uiso   1.00
H672   H     0.32879   0.53918   0.78403   0.00000  Uiso   1.00
H673   H     0.22443   0.36497   0.90164   0.00000  Uiso   1.00
H674   H     0.04597   0.61373   0.53070   0.00000  Uiso   1.00
H675   H     0.21628   0.57333   0.88555   0.00000  Uiso   1.00
H676   H     0.21170   0.57479   0.61131   0.00000  Uiso   1.00
H677   H     0.12150   0.42528   0.88869   0.00000  Uiso   1.00
H678   H     0.23728   0.61824   0.54170   0.00000  Uiso   1.00
H679   H     0.09645   0.38160   0.95828   0.00000  Uiso   1.00
H680   H     0.23398   0.33640   0.74470   0.00000  Uiso   1.00
H681   H     0.09935   0.66360   0.75540   0.00000  Uiso   1.00
H682   H     0.00454   0.46082   0.71597   0.00000  Uiso   1.00
N683   N     0.31678   0.48598   0.73783   0.00000  Uiso   1.00
N684   N     0.01656   0.51402   0.76217   0.00000  Uiso   1.00
O685   O     0.12975   0.57952   0.75298   0.00000  Uiso   1.00
O686   O     0.30357   0.62867   0.91984   0.00000  Uiso   1.00
O687   O     0.20369   0.33422   0.91624   0.00000  Uiso   1.00
O688   O     0.12591   0.33410   0.57939   0.00000  Uiso   1.00
O689   O     0.03096   0.37037   0.58031   0.00000  Uiso   1.00
O690   O     0.06237   0.64383   0.51266   0.00000  Uiso   1.00
O691   O     0.20358   0.42048   0.74701   0.00000  Uiso   1.00
O692   O     0.22613   0.57054   0.74518   0.00000  Uiso   1.00
O693   O     0.10720   0.42946   0.75482   0.00000  Uiso   1.00
O694   O     0.11847   0.50450   0.81997   0.00000  Uiso   1.00
O695   O     0.21486   0.49550   0.68002   0.00000  Uiso   1.00
O696   O     0.21485   0.49552   0.81217   0.00000  Uiso   1.00
O697   O     0.11848   0.50448   0.68782   0.00000  Uiso   1.00
O698   O     0.26941   0.35120   0.98271   0.00000  Uiso   1.00
S699   S     0.25147   0.64337   0.94886   0.00000  Uiso   1.00
S700   S     0.08282   0.35610   0.55080   0.00000  Uiso   1.00
Zn701  Zn    0.10231   0.50600   0.75521   0.00000  Uiso   1.00
Zn702  Zn    0.23102   0.49400   0.74479   0.00000  Uiso   1.00
C703   C     0.51525   0.59823   0.74886   0.00000  Uiso   1.00
C704   C     0.52918   0.54187   0.90572   0.00000  Uiso   1.00
C705   C     0.49762   0.50039   0.61610   0.00000  Uiso   1.00
C706   C     0.50238   0.49961   0.88389   0.00000  Uiso   1.00
C707   C     0.52473   0.54241   0.59295   0.00000  Uiso   1.00
C708   C     0.47521   0.45763   0.90705   0.00000  Uiso   1.00
C709   C     0.52523   0.54279   0.54649   0.00000  Uiso   1.00
C710   C     0.47488   0.45717   0.95349   0.00000  Uiso   1.00
C711   C     0.49933   0.49977   0.52343   0.00000  Uiso   1.00
C712   C     0.50085   0.50016   0.97656   0.00000  Uiso   1.00
C713   C     0.47224   0.45639   0.54735   0.00000  Uiso   1.00
C714   C     0.48475   0.40177   0.75118   0.00000  Uiso   1.00
C715   C     0.52803   0.54349   0.95262   0.00000  Uiso   1.00
C716   C     0.55139   0.58560   0.52313   0.00000  Uiso   1.00
C717   C     0.44891   0.41427   0.97685   0.00000  Uiso   1.00
C718   C     0.55276   0.58683   0.97627   0.00000  Uiso   1.00
C719   C     0.44772   0.41296   0.52367   0.00000  Uiso   1.00
C720   C     0.52330   0.65273   0.74821   0.00000  Uiso   1.00
C721   C     0.47670   0.34727   0.75188   0.00000  Uiso   1.00
C722   C     0.50081   0.50009   0.83638   0.00000  Uiso   1.00
C723   C     0.49919   0.49991   0.66362   0.00000  Uiso   1.00
C724   C     0.47102   0.45802   0.59426   0.00000  Uiso   1.00
H725   H     0.45069   0.42651   0.61442   0.00000  Uiso   1.00
H726   H     0.66213   0.53918   0.78403   0.00000  Uiso   1.00
H727   H     0.55776   0.36497   0.90164   0.00000  Uiso   1.00
H728   H     0.37930   0.61373   0.53070   0.00000  Uiso   1.00
H729   H     0.54962   0.57333   0.88555   0.00000  Uiso   1.00
H730   H     0.54503   0.57479   0.61131   0.00000  Uiso   1.00
H731   H     0.45483   0.42528   0.88869   0.00000  Uiso   1.00
H732   H     0.57061   0.61824   0.54170   0.00000  Uiso   1.00
H733   H     0.42978   0.38160   0.95828   0.00000  Uiso   1.00
H734   H     0.56732   0.33640   0.74470   0.00000  Uiso   1.00
H735   H     0.43269   0.66360   0.75540   0.00000  Uiso   1.00
H736   H     0.33787   0.46082   0.71597   0.00000  Uiso   1.00
N737   N     0.65011   0.48598   0.73783   0.00000  Uiso   1.00
N738   N     0.34989   0.51402   0.76217   0.00000  Uiso   1.00
O739   O     0.46308   0.57952   0.75298   0.00000  Uiso   1.00
O740   O     0.63690   0.62867   0.91984   0.00000  Uiso   1.00
O741   O     0.53702   0.33422   0.91624   0.00000  Uiso   1.00
O742   O     0.45924   0.33410   0.57939   0.00000  Uiso   1.00
O743   O     0.36429   0.37037   0.58031   0.00000  Uiso   1.00
O744   O     0.39571   0.64383   0.51266   0.00000  Uiso   1.00
O745   O     0.53692   0.42048   0.74701   0.00000  Uiso   1.00
O746   O     0.55946   0.57054   0.74518   0.00000  Uiso   1.00
O747   O     0.44054   0.42946   0.75482   0.00000  Uiso   1.00
O748   O     0.45181   0.50450   0.81997   0.00000  Uiso   1.00
O749   O     0.54819   0.49550   0.68002   0.00000  Uiso   1.00
O750   O     0.54819   0.49552   0.81217   0.00000  Uiso   1.00
O751   O     0.45181   0.50448   0.68782   0.00000  Uiso   1.00
O752   O     0.60274   0.35120   0.98271   0.00000  Uiso   1.00
S753   S     0.58481   0.64337   0.94886   0.00000  Uiso   1.00
S754   S     0.41615   0.35610   0.55080   0.00000  Uiso   1.00
Zn755  Zn    0.43565   0.50600   0.75521   0.00000  Uiso   1.00
Zn756  Zn    0.56435   0.49400   0.74479   0.00000  Uiso   1.00
C757   C     0.84858   0.59823   0.74886   0.00000  Uiso   1.00
C758   C     0.86252   0.54187   0.90572   0.00000  Uiso   1.00
C759   C     0.83096   0.50039   0.61610   0.00000  Uiso   1.00
C760   C     0.83572   0.49961   0.88389   0.00000  Uiso   1.00
C761   C     0.85806   0.54241   0.59295   0.00000  Uiso   1.00
C762   C     0.80855   0.45763   0.90705   0.00000  Uiso   1.00
C763   C     0.85856   0.54279   0.54649   0.00000  Uiso   1.00
C764   C     0.80822   0.45717   0.95349   0.00000  Uiso   1.00
C765   C     0.83266   0.49977   0.52343   0.00000  Uiso   1.00
C766   C     0.83418   0.50016   0.97656   0.00000  Uiso   1.00
C767   C     0.80557   0.45639   0.54735   0.00000  Uiso   1.00
C768   C     0.81809   0.40177   0.75118   0.00000  Uiso   1.00
C769   C     0.86136   0.54349   0.95262   0.00000  Uiso   1.00
C770   C     0.88473   0.58560   0.52313   0.00000  Uiso   1.00
C771   C     0.78225   0.41427   0.97685   0.00000  Uiso   1.00
C772   C     0.88609   0.58683   0.97627   0.00000  Uiso   1.00
C773   C     0.78105   0.41296   0.52367   0.00000  Uiso   1.00
C774   C     0.85663   0.65273   0.74821   0.00000  Uiso   1.00
C775   C     0.81004   0.34727   0.75188   0.00000  Uiso   1.00
C776   C     0.83415   0.50009   0.83638   0.00000  Uiso   1.00
C777   C     0.83252   0.49991   0.66362   0.00000  Uiso   1.00
C778   C     0.80436   0.45802   0.59426   0.00000  Uiso   1.00
H779   H     0.78402   0.42651   0.61442   0.00000  Uiso   1.00
H780   H     0.99546   0.53918   0.78403   0.00000  Uiso   1.00
H781   H     0.89110   0.36497   0.90164   0.00000  Uiso   1.00
H782   H     0.71264   0.61373   0.53070   0.00000  Uiso   1.00
H783   H     0.88295   0.57333   0.88555   0.00000  Uiso   1.00
H784   H     0.87837   0.57479   0.61131   0.00000  Uiso   1.00
H785   H     0.78817   0.42528   0.88869   0.00000  Uiso   1.00
H786   H     0.90394   0.61824   0.54170   0.00000  Uiso   1.00
H787   H     0.76311   0.38160   0.95828   0.00000  Uiso   1.00
H788   H     0.90065   0.33640   0.74470   0.00000  Uiso   1.00
H789   H     0.76602   0.66360   0.75540   0.00000  Uiso   1.00
H790   H     0.67121   0.46082   0.71597   0.00000  Uiso   1.00
N791   N     0.98344   0.48598   0.73783   0.00000  Uiso   1.00
N792   N     0.68322   0.51402   0.76217   0.00000  Uiso   1.00
O793   O     0.79642   0.57952   0.75298   0.00000  Uiso   1.00
O794   O     0.97024   0.62867   0.91984   0.00000  Uiso   1.00
O795   O     0.87035   0.33422   0.91624   0.00000  Uiso   1.00
O796   O     0.79258   0.33410   0.57939   0.00000  Uiso   1.00
O797   O     0.69762   0.37037   0.58031   0.00000  Uiso   1.00
O798   O     0.72904   0.64383   0.51266   0.00000  Uiso   1.00
O799   O     0.87025   0.42048   0.74701   0.00000  Uiso   1.00
O800   O     0.89280   0.57054   0.74518   0.00000  Uiso   1.00
O801   O     0.77387   0.42946   0.75482   0.00000  Uiso   1.00
O802   O     0.78514   0.50450   0.81997   0.00000  Uiso   1.00
O803   O     0.88153   0.49550   0.68002   0.00000  Uiso   1.00
O804   O     0.88152   0.49552   0.81217   0.00000  Uiso   1.00
O805   O     0.78515   0.50448   0.68782   0.00000  Uiso   1.00
O806   O     0.93607   0.35120   0.98271   0.00000  Uiso   1.00
S807   S     0.91814   0.64337   0.94886   0.00000  Uiso   1.00
S808   S     0.74948   0.35610   0.55080   0.00000  Uiso   1.00
Zn809  Zn    0.76898   0.50600   0.75521   0.00000  Uiso   1.00
Zn810  Zn    0.89769   0.49400   0.74479   0.00000  Uiso   1.00
C811   C     0.18192   0.93157   0.74886   0.00000  Uiso   1.00
C812   C     0.19585   0.87521   0.90572   0.00000  Uiso   1.00
C813   C     0.16429   0.83372   0.61610   0.00000  Uiso   1.00
C814   C     0.16905   0.83294   0.88389   0.00000  Uiso   1.00
C815   C     0.19140   0.87574   0.59295   0.00000  Uiso   1.00
C816   C     0.14188   0.79096   0.90705   0.00000  Uiso   1.00
C817   C     0.19189   0.87612   0.54649   0.00000  Uiso   1.00
C818   C     0.14155   0.79050   0.95349   0.00000  Uiso   1.00
C819   C     0.16599   0.83311   0.52343   0.00000  Uiso   1.00
C820   C     0.16751   0.83349   0.97656   0.00000  Uiso   1.00
C821   C     0.13891   0.78972   0.54735   0.00000  Uiso   1.00
C822   C     0.15142   0.73510   0.75118   0.00000  Uiso   1.00
C823   C     0.19469   0.87682   0.95262   0.00000  Uiso   1.00
C824   C     0.21806   0.91893   0.52313   0.00000  Uiso   1.00
C825   C     0.11558   0.74761   0.97685   0.00000  Uiso   1.00
C826   C     0.21942   0.92017   0.97627   0.00000  Uiso   1.00
C827   C     0.11439   0.74629   0.52367   0.00000  Uiso   1.00
C828   C     0.18997   0.98607   0.74821   0.00000  Uiso   1.00
C829   C     0.14337   0.68060   0.75188   0.00000  Uiso   1.00
C830   C     0.16748   0.83343   0.83638   0.00000  Uiso   1.00
C831   C     0.16585   0.83324   0.66362   0.00000  Uiso   1.00
C832   C     0.13769   0.79136   0.59426   0.00000  Uiso   1.00
H833   H     0.11736   0.75985   0.61442   0.00000  Uiso   1.00
H834   H     0.32879   0.87251   0.78403   0.00000  Uiso   1.00
H835   H     0.22443   0.69831   0.90164   0.00000  Uiso   1.00
H836   H     0.04597   0.94706   0.53070   0.00000  Uiso   1.00
H837   H     0.21628   0.90667   0.88555   0.00000  Uiso   1.00
H838   H     0.21170   0.90812   0.61131   0.00000  Uiso   1.00
H839   H     0.12150   0.75862   0.88869   0.00000  Uiso   1.00
H840   H     0.23728   0.95157   0.54170   0.00000  Uiso   1.00
H841   H     0.09645   0.71493   0.95828   0.00000  Uiso   1.00
H842   H     0.23398   0.66973   0.74470   0.00000  Uiso   1.00
H843   H     0.09935   0.99694   0.75540   0.00000  Uiso   1.00
H844   H     0.00454   0.79415   0.71597   0.00000  Uiso   1.00
N845   N     0.31678   0.81932   0.73783   0.00000  Uiso   1.00
N846   N     0.01656   0.84735   0.76217   0.00000  Uiso   1.00
O847   O     0.12975   0.91286   0.75298   0.00000  Uiso   1.00
O848   O     0.30357   0.96200   0.91984   0.00000  Uiso   1.00
O849   O     0.20369   0.66755   0.91624   0.00000  Uiso   1.00
O850   O     0.12591   0.66743   0.57939   0.00000  Uiso   1.00
O851   O     0.03096   0.70370   0.58031   0.00000  Uiso   1.00
O852   O     0.06237   0.97716   0.51266   0.00000  Uiso   1.00
O853   O     0.20358   0.75381   0.74701   0.00000  Uiso   1.00
O854   O     0.22613   0.90387   0.74518   0.00000  Uiso   1.00
O855   O     0.10720   0.76279   0.75482   0.00000  Uiso   1.00
O856   O     0.11847   0.83784   0.81997   0.00000  Uiso   1.00
O857   O     0.21486   0.82883   0.68002   0.00000  Uiso   1.00
O858   O     0.21485   0.82885   0.81217   0.00000  Uiso   1.00
O859   O     0.11848   0.83781   0.68782   0.00000  Uiso   1.00
O860   O     0.26941   0.68454   0.98271   0.00000  Uiso   1.00
S861   S     0.25147   0.97670   0.94886   0.00000  Uiso   1.00
S862   S     0.08282   0.68944   0.55080   0.00000  Uiso   1.00
Zn863  Zn    0.10231   0.83933   0.75521   0.00000  Uiso   1.00
Zn864  Zn    0.23102   0.82734   0.74479   0.00000  Uiso   1.00
C865   C     0.51525   0.93157   0.74886   0.00000  Uiso   1.00
C866   C     0.52918   0.87521   0.90572   0.00000  Uiso   1.00
C867   C     0.49762   0.83372   0.61610   0.00000  Uiso   1.00
C868   C     0.50238   0.83294   0.88389   0.00000  Uiso   1.00
C869   C     0.52473   0.87574   0.59295   0.00000  Uiso   1.00
C870   C     0.47521   0.79096   0.90705   0.00000  Uiso   1.00
C871   C     0.52523   0.87612   0.54649   0.00000  Uiso   1.00
C872   C     0.47488   0.79050   0.95349   0.00000  Uiso   1.00
C873   C     0.49933   0.83311   0.52343   0.00000  Uiso   1.00
C874   C     0.50085   0.83349   0.97656   0.00000  Uiso   1.00
C875   C     0.47224   0.78972   0.54735   0.00000  Uiso   1.00
C876   C     0.48475   0.73510   0.75118   0.00000  Uiso   1.00
C877   C     0.52803   0.87682   0.95262   0.00000  Uiso   1.00
C878   C     0.55139   0.91893   0.52313   0.00000  Uiso   1.00
C879   C     0.44891   0.74761   0.97685   0.00000  Uiso   1.00
C880   C     0.55276   0.92017   0.97627   0.00000  Uiso   1.00
C881   C     0.44772   0.74629   0.52367   0.00000  Uiso   1.00
C882   C     0.52330   0.98607   0.74821   0.00000  Uiso   1.00
C883   C     0.47670   0.68060   0.75188   0.00000  Uiso   1.00
C884   C     0.50081   0.83343   0.83638   0.00000  Uiso   1.00
C885   C     0.49919   0.83324   0.66362   0.00000  Uiso   1.00
C886   C     0.47102   0.79136   0.59426   0.00000  Uiso   1.00
H887   H     0.45069   0.75985   0.61442   0.00000  Uiso   1.00
H888   H     0.66213   0.87251   0.78403   0.00000  Uiso   1.00
H889   H     0.55776   0.69831   0.90164   0.00000  Uiso   1.00
H890   H     0.37930   0.94706   0.53070   0.00000  Uiso   1.00
H891   H     0.54962   0.90667   0.88555   0.00000  Uiso   1.00
H892   H     0.54503   0.90812   0.61131   0.00000  Uiso   1.00
H893   H     0.45483   0.75862   0.88869   0.00000  Uiso   1.00
H894   H     0.57061   0.95157   0.54170   0.00000  Uiso   1.00
H895   H     0.42978   0.71493   0.95828   0.00000  Uiso   1.00
H896   H     0.56732   0.66973   0.74470   0.00000  Uiso   1.00
H897   H     0.43269   0.99694   0.75540   0.00000  Uiso   1.00
H898   H     0.33787   0.79415   0.71597   0.00000  Uiso   1.00
N899   N     0.65011   0.81932   0.73783   0.00000  Uiso   1.00
N900   N     0.34989   0.84735   0.76217   0.00000  Uiso   1.00
O901   O     0.46308   0.91286   0.75298   0.00000  Uiso   1.00
O902   O     0.63690   0.96200   0.91984   0.00000  Uiso   1.00
O903   O     0.53702   0.66755   0.91624   0.00000  Uiso   1.00
O904   O     0.45924   0.66743   0.57939   0.00000  Uiso   1.00
O905   O     0.36429   0.70370   0.58031   0.00000  Uiso   1.00
O906   O     0.39571   0.97716   0.51266   0.00000  Uiso   1.00
O907   O     0.53692   0.75381   0.74701   0.00000  Uiso   1.00
O908   O     0.55946   0.90387   0.74518   0.00000  Uiso   1.00
O909   O     0.44054   0.76279   0.75482   0.00000  Uiso   1.00
O910   O     0.45181   0.83784   0.81997   0.00000  Uiso   1.00
O911   O     0.54819   0.82883   0.68002   0.00000  Uiso   1.00
O912   O     0.54819   0.82885   0.81217   0.00000  Uiso   1.00
O913   O     0.45181   0.83781   0.68782   0.00000  Uiso   1.00
O914   O     0.60274   0.68454   0.98271   0.00000  Uiso   1.00
S915   S     0.58481   0.97670   0.94886   0.00000  Uiso   1.00
S916   S     0.41615   0.68944   0.55080   0.00000  Uiso   1.00
Zn917  Zn    0.43565   0.83933   0.75521   0.00000  Uiso   1.00
Zn918  Zn    0.56435   0.82734   0.74479   0.00000  Uiso   1.00
C919   C     0.84858   0.93157   0.74886   0.00000  Uiso   1.00
C920   C     0.86252   0.87521   0.90572   0.00000  Uiso   1.00
C921   C     0.83096   0.83372   0.61610   0.00000  Uiso   1.00
C922   C     0.83572   0.83294   0.88389   0.00000  Uiso   1.00
C923   C     0.85806   0.87574   0.59295   0.00000  Uiso   1.00
C924   C     0.80855   0.79096   0.90705   0.00000  Uiso   1.00
C925   C     0.85856   0.87612   0.54649   0.00000  Uiso   1.00
C926   C     0.80822   0.79050   0.95349   0.00000  Uiso   1.00
C927   C     0.83266   0.83311   0.52343   0.00000  Uiso   1.00
C928   C     0.83418   0.83349   0.97656   0.00000  Uiso   1.00
C929   C     0.80557   0.78972   0.54735   0.00000  Uiso   1.00
C930   C     0.81809   0.73510   0.75118   0.00000  Uiso   1.00
C931   C     0.86136   0.87682   0.95262   0.00000  Uiso   1.00
C932   C     0.88473   0.91893   0.52313   0.00000  Uiso   1.00
C933   C     0.78225   0.74761   0.97685   0.00000  Uiso   1.00
C934   C     0.88609   0.92017   0.97627   0.00000  Uiso   1.00
C935   C     0.78105   0.74629   0.52367   0.00000  Uiso   1.00
C936   C     0.85663   0.98607   0.74821   0.00000  Uiso   1.00
C937   C     0.81004   0.68060   0.75188   0.00000  Uiso   1.00
C938   C     0.83415   0.83343   0.83638   0.00000  Uiso   1.00
C939   C     0.83252   0.83324   0.66362   0.00000  Uiso   1.00
C940   C     0.80436   0.79136   0.59426   0.00000  Uiso   1.00
H941   H     0.78402   0.75985   0.61442   0.00000  Uiso   1.00
H942   H     0.99546   0.87251   0.78403   0.00000  Uiso   1.00
H943   H     0.89110   0.69831   0.90164   0.00000  Uiso   1.00
H944   H     0.71264   0.94706   0.53070   0.00000  Uiso   1.00
H945   H     0.88295   0.90667   0.88555   0.00000  Uiso   1.00
H946   H     0.87837   0.90812   0.61131   0.00000  Uiso   1.00
H947   H     0.78817   0.75862   0.88869   0.00000  Uiso   1.00
H948   H     0.90394   0.95157   0.54170   0.00000  Uiso   1.00
H949   H     0.76311   0.71493   0.95828   0.00000  Uiso   1.00
H950   H     0.90065   0.66973   0.74470   0.00000  Uiso   1.00
H951   H     0.76602   0.99694   0.75540   0.00000  Uiso   1.00
H952   H     0.67121   0.79415   0.71597   0.00000  Uiso   1.00
N953   N     0.98344   0.81932   0.73783   0.00000  Uiso   1.00
N954   N     0.68322   0.84735   0.76217   0.00000  Uiso   1.00
O955   O     0.79642   0.91286   0.75298   0.00000  Uiso   1.00
O956   O     0.97024   0.96200   0.91984   0.00000  Uiso   1.00
O957   O     0.87035   0.66755   0.91624   0.00000  Uiso   1.00
O958   O     0.79258   0.66743   0.57939   0.00000  Uiso   1.00
O959   O     0.69762   0.70370   0.58031   0.00000  Uiso   1.00
O960   O     0.72904   0.97716   0.51266   0.00000  Uiso   1.00
O961   O     0.87025   0.75381   0.74701   0.00000  Uiso   1.00
O962   O     0.89280   0.90387   0.74518   0.00000  Uiso   1.00
O963   O     0.77387   0.76279   0.75482   0.00000  Uiso   1.00
O964   O     0.78514   0.83784   0.81997   0.00000  Uiso   1.00
O965   O     0.88153   0.82883   0.68002   0.00000  Uiso   1.00
O966   O     0.88152   0.82885   0.81217   0.00000  Uiso   1.00
O967   O     0.78515   0.83781   0.68782   0.00000  Uiso   1.00
O968   O     0.93607   0.68454   0.98271   0.00000  Uiso   1.00
S969   S     0.91814   0.97670   0.94886   0.00000  Uiso   1.00
S970   S     0.74948   0.68944   0.55080   0.00000  Uiso   1.00
Zn971  Zn    0.76898   0.83933   0.75521   0.00000  Uiso   1.00
Zn972  Zn    0.89769   0.82734   0.74479   0.00000  Uiso   1.00
loop_
_geom_bond_atom_site_label_1
_geom_bond_atom_site_label_2
_geom_bond_distance
_geom_bond_site_symmetry_2
_ccdc_geom_bond_type
C1     O37     1.277   .     A
C1     O44     1.285   .     A
C1     C18     1.399   .     S
C2     H27     1.081   .     S
C2     C4      1.389   .     A
C2     C13     1.393   .     A
C3     C21     1.416   .     S
C3     C22     1.389   .     A
C3     C5      1.385   .     A
C4     C6      1.385   .     A
C4     C20     1.416   .     S
C5     H28     1.086   .     S
C5     C7      1.381   .     A
C6     H29     1.086   .     S
C6     C8      1.381   .     A
C7     C9      1.412   .     A
C7     C14     1.396   .     A
C8     C15     1.396   .     A
C8     C10     1.412   .     A
C9     C11     1.423   .     A
C9     C496    1.392   1_554 S
C10    C13     1.423   .     A
C10    C495    1.392   .     S
C11    C22     1.393   .     A
C11    C17     1.417   .     A
C12    C19     1.399   .     S
C12    O43     1.277   .     A
C12    O45     1.285   .     A
C13    C16     1.416   .     A
C14    H30     1.084   .     S
C14    C502    1.393   1_554 S
C15    H31     1.083   .     S
C15    C503    1.392   .     S
C16    S51     1.776   .     S
C16    C500    1.393   .     S
C17    S52     1.775   .     S
C17    C501    1.392   1_554 S
C18    C181    1.334   .     S
C18    H194    1.088   .     S
C19    C342    1.334   1_545 S
C19    H357    1.088   1_545 S
C20    O48     1.286   .     A
C20    O46     1.285   .     A
C21    O49     1.286   .     A
C21    O47     1.285   .     A
C22    H23     1.081   .     S
H24    N90     1.029   .     S
H25    O39     0.991   .     S
H26    O42     0.991   .     S
H32    C342    1.088   1_545 S
H33    C181    1.088   .     S
H34    N143    1.029   1_455 S
N35    Zn54    2.018   .     S
N35    H88     1.029   .     S
N35    N90     1.274   .     S
N36    Zn53    2.018   .     S
N36    H132    1.029   1_455 S
N36    N143    1.274   1_455 S
O37    Zn53    1.954   .     S
O38    S51     1.503   .     D
O39    S375    1.682   1_545 S
O40    S52     1.503   .     D
O41    S52     1.503   .     D
O42    S214    1.683   .     S
O43    Zn54    1.954   .     S
O44    Zn54    1.974   .     S
O45    Zn53    1.974   .     S
O46    Zn53    1.990   .     S
O47    Zn54    1.990   .     S
O48    Zn54    2.013   .     S
O49    Zn53    2.013   .     S
O50    S375    1.504   1_545 S
S51    O201    1.682   .     S
S51    O212    1.504   .     S
S52    O366    1.683   1_545 S
C55    O91     1.277   .     A
C55    O98     1.285   .     A
C55    C72     1.399   .     S
C56    H81     1.081   .     S
C56    C58     1.389   .     A
C56    C67     1.393   .     A
C57    C75     1.416   .     S
C57    C76     1.389   .     A
C57    C59     1.385   .     A
C58    C60     1.385   .     A
C58    C74     1.416   .     S
C59    H82     1.086   .     S
C59    C61     1.381   .     A
C60    H83     1.086   .     S
C60    C62     1.381   .     A
C61    C63     1.412   .     A
C61    C68     1.396   .     A
C62    C69     1.396   .     A
C62    C64     1.412   .     A
C63    C65     1.423   .     A
C63    C550    1.392   1_554 S
C64    C67     1.423   .     A
C64    C549    1.392   .     S
C65    C76     1.393   .     A
C65    C71     1.417   .     A
C66    C73     1.399   .     S
C66    O97     1.277   .     A
C66    O99     1.285   .     A
C67    C70     1.416   .     A
C68    H84     1.084   .     S
C68    C556    1.393   1_554 S
C69    H85     1.083   .     S
C69    C557    1.392   .     S
C70    S105    1.776   .     S
C70    C554    1.393   .     S
C71    S106    1.775   .     S
C71    C555    1.392   1_554 S
C72    C235    1.334   .     S
C72    H248    1.088   .     S
C73    C396    1.334   1_545 S
C73    H411    1.088   1_545 S
C74    O102    1.286   .     A
C74    O100    1.285   .     A
C75    O103    1.286   .     A
C75    O101    1.285   .     A
C76    H77     1.081   .     S
H78    N144    1.029   .     S
H79    O93     0.991   .     S
H80    O96     0.991   .     S
H86    C396    1.088   1_545 S
H87    C235    1.088   .     S
N89    Zn108   2.018   .     S
N89    H142    1.029   .     S
N89    N144    1.274   .     S
N90    Zn107   2.018   .     S
O91    Zn107   1.954   .     S
O92    S105    1.503   .     D
O93    S429    1.682   1_545 S
O94    S106    1.503   .     D
O95    S106    1.503   .     D
O96    S268    1.683   .     S
O97    Zn108   1.954   .     S
O98    Zn108   1.974   .     S
O99    Zn107   1.974   .     S
O100   Zn107   1.990   .     S
O101   Zn108   1.990   .     S
O102   Zn108   2.013   .     S
O103   Zn107   2.013   .     S
O104   S429    1.504   1_545 S
S105   O255    1.682   .     S
S105   O266    1.504   .     S
S106   O420    1.683   1_545 S
C109   O145    1.277   .     A
C109   O152    1.285   .     A
C109   C126    1.399   .     S
C110   H135    1.081   .     S
C110   C112    1.389   .     A
C110   C121    1.393   .     A
C111   C129    1.416   .     S
C111   C130    1.389   .     A
C111   C113    1.385   .     A
C112   C114    1.385   .     A
C112   C128    1.416   .     S
C113   H136    1.086   .     S
C113   C115    1.381   .     A
C114   H137    1.086   .     S
C114   C116    1.381   .     A
C115   C117    1.412   .     A
C115   C122    1.396   .     A
C116   C123    1.396   .     A
C116   C118    1.412   .     A
C117   C119    1.423   .     A
C117   C604    1.392   1_554 S
C118   C121    1.423   .     A
C118   C603    1.392   .     S
C119   C130    1.393   .     A
C119   C125    1.417   .     A
C120   C127    1.399   .     S
C120   O151    1.277   .     A
C120   O153    1.285   .     A
C121   C124    1.416   .     A
C122   H138    1.084   .     S
C122   C610    1.393   1_554 S
C123   H139    1.083   .     S
C123   C611    1.392   .     S
C124   S159    1.776   .     S
C124   C608    1.393   .     S
C125   S160    1.775   .     S
C125   C609    1.392   1_554 S
C126   C289    1.334   .     S
C126   H302    1.088   .     S
C127   C450    1.334   1_545 S
C127   H465    1.088   1_545 S
C128   O156    1.286   .     A
C128   O154    1.285   .     A
C129   O157    1.286   .     A
C129   O155    1.285   .     A
C130   H131    1.081   .     S
H132   N36     1.029   1_655 S
H133   O147    0.991   .     S
H134   O150    0.991   .     S
H140   C450    1.088   1_545 S
H141   C289    1.088   .     S
N143   Zn162   2.018   .     S
N143   H34     1.029   1_655 S
N143   N36     1.274   1_655 S
N144   Zn161   2.018   .     S
O145   Zn161   1.954   .     S
O146   S159    1.503   .     D
O147   S483    1.682   1_545 S
O148   S160    1.503   .     D
O149   S160    1.503   .     D
O150   S322    1.683   .     S
O151   Zn162   1.954   .     S
O152   Zn162   1.974   .     S
O153   Zn161   1.974   .     S
O154   Zn161   1.990   .     S
O155   Zn162   1.990   .     S
O156   Zn162   2.013   .     S
O157   Zn161   2.013   .     S
O158   S483    1.504   1_545 S
S159   O309    1.682   .     S
S159   O320    1.504   .     S
S160   O474    1.683   1_545 S
C163   O199    1.277   .     A
C163   O206    1.285   .     A
C163   C180    1.399   .     S
C164   H189    1.081   .     S
C164   C166    1.389   .     A
C164   C175    1.393   .     A
C165   C183    1.416   .     S
C165   C184    1.389   .     A
C165   C167    1.385   .     A
C166   C168    1.385   .     A
C166   C182    1.416   .     S
C167   H190    1.086   .     S
C167   C169    1.381   .     A
C168   H191    1.086   .     S
C168   C170    1.381   .     A
C169   C171    1.412   .     A
C169   C176    1.396   .     A
C170   C177    1.396   .     A
C170   C172    1.412   .     A
C171   C173    1.423   .     A
C171   C658    1.392   1_554 S
C172   C175    1.423   .     A
C172   C657    1.392   .     S
C173   C184    1.393   .     A
C173   C179    1.417   .     A
C174   C181    1.399   .     S
C174   O205    1.277   .     A
C174   O207    1.285   .     A
C175   C178    1.416   .     A
C176   H192    1.084   .     S
C176   C664    1.393   1_554 S
C177   H193    1.083   .     S
C177   C665    1.392   .     S
C178   S213    1.776   .     S
C178   C662    1.393   .     S
C179   S214    1.775   .     S
C179   C663    1.392   1_554 S
C180   C343    1.334   .     S
C180   H356    1.088   .     S
C182   O210    1.286   .     A
C182   O208    1.285   .     A
C183   O211    1.286   .     A
C183   O209    1.285   .     A
C184   H185    1.081   .     S
H186   N252    1.029   .     S
H187   O201    0.991   .     S
H188   O204    0.991   .     S
H195   C343    1.088   .     S
H196   N305    1.029   1_455 S
N197   Zn216   2.018   .     S
N197   H250    1.029   .     S
N197   N252    1.274   .     S
N198   Zn215   2.018   .     S
N198   H294    1.029   1_455 S
N198   N305    1.274   1_455 S
O199   Zn215   1.954   .     S
O200   S213    1.503   .     D
O202   S214    1.503   .     D
O203   S214    1.503   .     D
O204   S376    1.683   .     S
O205   Zn216   1.954   .     S
O206   Zn216   1.974   .     S
O207   Zn215   1.974   .     S
O208   Zn215   1.990   .     S
O209   Zn216   1.990   .     S
O210   Zn216   2.013   .     S
O211   Zn215   2.013   .     S
S213   O363    1.682   .     S
S213   O374    1.504   .     S
C217   O253    1.277   .     A
C217   O260    1.285   .     A
C217   C234    1.399   .     S
C218   H243    1.081   .     S
C218   C220    1.389   .     A
C218   C229    1.393   .     A
C219   C237    1.416   .     S
C219   C238    1.389   .     A
C219   C221    1.385   .     A
C220   C222    1.385   .     A
C220   C236    1.416   .     S
C221   H244    1.086   .     S
C221   C223    1.381   .     A
C222   H245    1.086   .     S
C222   C224    1.381   .     A
C223   C225    1.412   .     A
C223   C230    1.396   .     A
C224   C231    1.396   .     A
C224   C226    1.412   .     A
C225   C227    1.423   .     A
C225   C712    1.392   1_554 S
C226   C229    1.423   .     A
C226   C711    1.392   .     S
C227   C238    1.393   .     A
C227   C233    1.417   .     A
C228   C235    1.399   .     S
C228   O259    1.277   .     A
C228   O261    1.285   .     A
C229   C232    1.416   .     A
C230   H246    1.084   .     S
C230   C718    1.393   1_554 S
C231   H247    1.083   .     S
C231   C719    1.392   .     S
C232   S267    1.776   .     S
C232   C716    1.393   .     S
C233   S268    1.775   .     S
C233   C717    1.392   1_554 S
C234   C397    1.334   .     S
C234   H410    1.088   .     S
C236   O264    1.286   .     A
C236   O262    1.285   .     A
C237   O265    1.286   .     A
C237   O263    1.285   .     A
C238   H239    1.081   .     S
H240   N306    1.029   .     S
H241   O255    0.991   .     S
H242   O258    0.991   .     S
H249   C397    1.088   .     S
N251   Zn270   2.018   .     S
N251   H304    1.029   .     S
N251   N306    1.274   .     S
N252   Zn269   2.018   .     S
O253   Zn269   1.954   .     S
O254   S267    1.503   .     D
O256   S268    1.503   .     D
O257   S268    1.503   .     D
O258   S430    1.683   .     S
O259   Zn270   1.954   .     S
O260   Zn270   1.974   .     S
O261   Zn269   1.974   .     S
O262   Zn269   1.990   .     S
O263   Zn270   1.990   .     S
O264   Zn270   2.013   .     S
O265   Zn269   2.013   .     S
S267   O417    1.682   .     S
S267   O428    1.504   .     S
C271   O307    1.277   .     A
C271   O314    1.285   .     A
C271   C288    1.399   .     S
C272   H297    1.081   .     S
C272   C274    1.389   .     A
C272   C283    1.393   .     A
C273   C291    1.416   .     S
C273   C292    1.389   .     A
C273   C275    1.385   .     A
C274   C276    1.385   .     A
C274   C290    1.416   .     S
C275   H298    1.086   .     S
C275   C277    1.381   .     A
C276   H299    1.086   .     S
C276   C278    1.381   .     A
C277   C279    1.412   .     A
C277   C284    1.396   .     A
C278   C285    1.396   .     A
C278   C280    1.412   .     A
C279   C281    1.423   .     A
C279   C766    1.392   1_554 S
C280   C283    1.423   .     A
C280   C765    1.392   .     S
C281   C292    1.393   .     A
C281   C287    1.417   .     A
C282   C289    1.399   .     S
C282   O313    1.277   .     A
C282   O315    1.285   .     A
C283   C286    1.416   .     A
C284   H300    1.084   .     S
C284   C772    1.393   1_554 S
C285   H301    1.083   .     S
C285   C773    1.392   .     S
C286   S321    1.776   .     S
C286   C770    1.393   .     S
C287   S322    1.775   .     S
C287   C771    1.392   1_554 S
C288   C451    1.334   .     S
C288   H464    1.088   .     S
C290   O318    1.286   .     A
C290   O316    1.285   .     A
C291   O319    1.286   .     A
C291   O317    1.285   .     A
C292   H293    1.081   .     S
H294   N198    1.029   1_655 S
H295   O309    0.991   .     S
H296   O312    0.991   .     S
H303   C451    1.088   .     S
N305   Zn324   2.018   .     S
N305   H196    1.029   1_655 S
N305   N198    1.274   1_655 S
N306   Zn323   2.018   .     S
O307   Zn323   1.954   .     S
O308   S321    1.503   .     D
O310   S322    1.503   .     D
O311   S322    1.503   .     D
O312   S484    1.683   .     S
O313   Zn324   1.954   .     S
O314   Zn324   1.974   .     S
O315   Zn323   1.974   .     S
O316   Zn323   1.990   .     S
O317   Zn324   1.990   .     S
O318   Zn324   2.013   .     S
O319   Zn323   2.013   .     S
S321   O471    1.682   .     S
S321   O482    1.504   .     S
C325   O361    1.277   .     A
C325   O368    1.285   .     A
C325   C342    1.399   .     S
C326   H351    1.081   .     S
C326   C328    1.389   .     A
C326   C337    1.393   .     A
C327   C345    1.416   .     S
C327   C346    1.389   .     A
C327   C329    1.385   .     A
C328   C330    1.385   .     A
C328   C344    1.416   .     S
C329   H352    1.086   .     S
C329   C331    1.381   .     A
C330   H353    1.086   .     S
C330   C332    1.381   .     A
C331   C333    1.412   .     A
C331   C338    1.396   .     A
C332   C339    1.396   .     A
C332   C334    1.412   .     A
C333   C335    1.423   .     A
C333   C820    1.392   1_554 S
C334   C337    1.423   .     A
C334   C819    1.392   .     S
C335   C346    1.393   .     A
C335   C341    1.417   .     A
C336   C343    1.399   .     S
C336   O367    1.277   .     A
C336   O369    1.285   .     A
C337   C340    1.416   .     A
C338   H354    1.084   .     S
C338   C826    1.393   1_554 S
C339   H355    1.083   .     S
C339   C827    1.392   .     S
C340   S375    1.776   .     S
C340   C824    1.393   .     S
C341   S376    1.775   .     S
C341   C825    1.392   1_554 S
C342   C19     1.334   1_565 S
C342   H32     1.088   1_565 S
C344   O372    1.286   .     A
C344   O370    1.285   .     A
C345   O373    1.286   .     A
C345   O371    1.285   .     A
C346   H347    1.081   .     S
H348   N414    1.029   .     S
H349   O363    0.991   .     S
H350   O366    0.991   .     S
H357   C19     1.088   1_565 S
H358   N467    1.029   1_455 S
N359   Zn378   2.018   .     S
N359   H412    1.029   .     S
N359   N414    1.274   .     S
N360   Zn377   2.018   .     S
N360   H456    1.029   1_455 S
N360   N467    1.274   1_455 S
O361   Zn377   1.954   .     S
O362   S375    1.503   .     D
O364   S376    1.503   .     D
O365   S376    1.503   .     D
O366   S52     1.683   1_565 S
O367   Zn378   1.954   .     S
O368   Zn378   1.974   .     S
O369   Zn377   1.974   .     S
O370   Zn377   1.990   .     S
O371   Zn378   1.990   .     S
O372   Zn378   2.013   .     S
O373   Zn377   2.013   .     S
S375   O39     1.682   1_565 S
S375   O50     1.504   1_565 S
C379   O415    1.277   .     A
C379   O422    1.285   .     A
C379   C396    1.399   .     S
C380   H405    1.081   .     S
C380   C382    1.389   .     A
C380   C391    1.393   .     A
C381   C399    1.416   .     S
C381   C400    1.389   .     A
C381   C383    1.385   .     A
C382   C384    1.385   .     A
C382   C398    1.416   .     S
C383   H406    1.086   .     S
C383   C385    1.381   .     A
C384   H407    1.086   .     S
C384   C386    1.381   .     A
C385   C387    1.412   .     A
C385   C392    1.396   .     A
C386   C393    1.396   .     A
C386   C388    1.412   .     A
C387   C389    1.423   .     A
C387   C874    1.392   1_554 S
C388   C391    1.423   .     A
C388   C873    1.392   .     S
C389   C400    1.393   .     A
C389   C395    1.417   .     A
C390   C397    1.399   .     S
C390   O421    1.277   .     A
C390   O423    1.285   .     A
C391   C394    1.416   .     A
C392   H408    1.084   .     S
C392   C880    1.393   1_554 S
C393   H409    1.083   .     S
C393   C881    1.392   .     S
C394   S429    1.776   .     S
C394   C878    1.393   .     S
C395   S430    1.775   .     S
C395   C879    1.392   1_554 S
C396   C73     1.334   1_565 S
C396   H86     1.088   1_565 S
C398   O426    1.286   .     A
C398   O424    1.285   .     A
C399   O427    1.286   .     A
C399   O425    1.285   .     A
C400   H401    1.081   .     S
H402   N468    1.029   .     S
H403   O417    0.991   .     S
H404   O420    0.991   .     S
H411   C73     1.088   1_565 S
N413   Zn432   2.018   .     S
N413   H466    1.029   .     S
N413   N468    1.274   .     S
N414   Zn431   2.018   .     S
O415   Zn431   1.954   .     S
O416   S429    1.503   .     D
O418   S430    1.503   .     D
O419   S430    1.503   .     D
O420   S106    1.683   1_565 S
O421   Zn432   1.954   .     S
O422   Zn432   1.974   .     S
O423   Zn431   1.974   .     S
O424   Zn431   1.990   .     S
O425   Zn432   1.990   .     S
O426   Zn432   2.013   .     S
O427   Zn431   2.013   .     S
S429   O93     1.682   1_565 S
S429   O104    1.504   1_565 S
C433   O469    1.277   .     A
C433   O476    1.285   .     A
C433   C450    1.399   .     S
C434   H459    1.081   .     S
C434   C436    1.389   .     A
C434   C445    1.393   .     A
C435   C453    1.416   .     S
C435   C454    1.389   .     A
C435   C437    1.385   .     A
C436   C438    1.385   .     A
C436   C452    1.416   .     S
C437   H460    1.086   .     S
C437   C439    1.381   .     A
C438   H461    1.086   .     S
C438   C440    1.381   .     A
C439   C441    1.412   .     A
C439   C446    1.396   .     A
C440   C447    1.396   .     A
C440   C442    1.412   .     A
C441   C443    1.423   .     A
C441   C928    1.392   1_554 S
C442   C445    1.423   .     A
C442   C927    1.392   .     S
C443   C454    1.393   .     A
C443   C449    1.417   .     A
C444   C451    1.399   .     S
C444   O475    1.277   .     A
C444   O477    1.285   .     A
C445   C448    1.416   .     A
C446   H462    1.084   .     S
C446   C934    1.393   1_554 S
C447   H463    1.083   .     S
C447   C935    1.392   .     S
C448   S483    1.776   .     S
C448   C932    1.393   .     S
C449   S484    1.775   .     S
C449   C933    1.392   1_554 S
C450   C127    1.334   1_565 S
C450   H140    1.088   1_565 S
C452   O480    1.286   .     A
C452   O478    1.285   .     A
C453   O481    1.286   .     A
C453   O479    1.285   .     A
C454   H455    1.081   .     S
H456   N360    1.029   1_655 S
H457   O471    0.991   .     S
H458   O474    0.991   .     S
H465   C127    1.088   1_565 S
N467   Zn486   2.018   .     S
N467   H358    1.029   1_655 S
N467   N360    1.274   1_655 S
N468   Zn485   2.018   .     S
O469   Zn485   1.954   .     S
O470   S483    1.503   .     D
O472   S484    1.503   .     D
O473   S484    1.503   .     D
O474   S160    1.683   1_565 S
O475   Zn486   1.954   .     S
O476   Zn486   1.974   .     S
O477   Zn485   1.974   .     S
O478   Zn485   1.990   .     S
O479   Zn486   1.990   .     S
O480   Zn486   2.013   .     S
O481   Zn485   2.013   .     S
S483   O147    1.682   1_565 S
S483   O158    1.504   1_565 S
C487   O523    1.277   .     A
C487   O530    1.285   .     A
C487   C504    1.399   .     S
C488   H513    1.081   .     S
C488   C490    1.389   .     A
C488   C499    1.393   .     A
C489   C507    1.416   .     S
C489   C508    1.389   .     A
C489   C491    1.385   .     A
C490   C492    1.385   .     A
C490   C506    1.416   .     S
C491   H514    1.086   .     S
C491   C493    1.381   .     A
C492   H515    1.086   .     S
C492   C494    1.381   .     A
C493   C495    1.412   .     A
C493   C500    1.396   .     A
C494   C501    1.396   .     A
C494   C496    1.412   .     A
C495   C497    1.423   .     A
C496   C499    1.423   .     A
C496   C9      1.392   1_556 S
C497   C508    1.393   .     A
C497   C503    1.417   .     A
C498   C505    1.399   .     S
C498   O529    1.277   .     A
C498   O531    1.285   .     A
C499   C502    1.416   .     A
C500   H516    1.084   .     S
C501   H517    1.083   .     S
C501   C17     1.392   1_556 S
C502   S537    1.776   .     S
C502   C14     1.393   1_556 S
C503   S538    1.775   .     S
C504   C667    1.334   .     S
C504   H680    1.088   .     S
C505   C828    1.334   1_545 S
C505   H843    1.088   1_545 S
C506   O534    1.286   .     A
C506   O532    1.285   .     A
C507   O535    1.286   .     A
C507   O533    1.285   .     A
C508   H509    1.081   .     S
H510   N576    1.029   .     S
H511   O525    0.991   .     S
H512   O528    0.991   .     S
H518   C828    1.088   1_545 S
H519   C667    1.088   .     S
H520   N629    1.029   1_455 S
N521   Zn540   2.018   .     S
N521   H574    1.029   .     S
N521   N576    1.274   .     S
N522   Zn539   2.018   .     S
N522   H618    1.029   1_455 S
N522   N629    1.274   1_455 S
O523   Zn539   1.954   .     S
O524   S537    1.503   .     D
O525   S861    1.682   1_545 S
O526   S538    1.503   .     D
O527   S538    1.503   .     D
O528   S700    1.683   .     S
O529   Zn540   1.954   .     S
O530   Zn540   1.974   .     S
O531   Zn539   1.974   .     S
O532   Zn539   1.990   .     S
O533   Zn540   1.990   .     S
O534   Zn540   2.013   .     S
O535   Zn539   2.013   .     S
O536   S861    1.504   1_545 S
S537   O687    1.682   .     S
S537   O698    1.504   .     S
S538   O852    1.683   1_545 S
C541   O577    1.277   .     A
C541   O584    1.285   .     A
C541   C558    1.399   .     S
C542   H567    1.081   .     S
C542   C544    1.389   .     A
C542   C553    1.393   .     A
C543   C561    1.416   .     S
C543   C562    1.389   .     A
C543   C545    1.385   .     A
C544   C546    1.385   .     A
C544   C560    1.416   .     S
C545   H568    1.086   .     S
C545   C547    1.381   .     A
C546   H569    1.086   .     S
C546   C548    1.381   .     A
C547   C549    1.412   .     A
C547   C554    1.396   .     A
C548   C555    1.396   .     A
C548   C550    1.412   .     A
C549   C551    1.423   .     A
C550   C553    1.423   .     A
C550   C63     1.392   1_556 S
C551   C562    1.393   .     A
C551   C557    1.417   .     A
C552   C559    1.399   .     S
C552   O583    1.277   .     A
C552   O585    1.285   .     A
C553   C556    1.416   .     A
C554   H570    1.084   .     S
C555   H571    1.083   .     S
C555   C71     1.392   1_556 S
C556   S591    1.776   .     S
C556   C68     1.393   1_556 S
C557   S592    1.775   .     S
C558   C721    1.334   .     S
C558   H734    1.088   .     S
C559   C882    1.334   1_545 S
C559   H897    1.088   1_545 S
C560   O588    1.286   .     A
C560   O586    1.285   .     A
C561   O589    1.286   .     A
C561   O587    1.285   .     A
C562   H563    1.081   .     S
H564   N630    1.029   .     S
H565   O579    0.991   .     S
H566   O582    0.991   .     S
H572   C882    1.088   1_545 S
H573   C721    1.088   .     S
N575   Zn594   2.018   .     S
N575   H628    1.029   .     S
N575   N630    1.274   .     S
N576   Zn593   2.018   .     S
O577   Zn593   1.954   .     S
O578   S591    1.503   .     D
O579   S915    1.682   1_545 S
O580   S592    1.503   .     D
O581   S592    1.503   .     D
O582   S754    1.683   .     S
O583   Zn594   1.954   .     S
O584   Zn594   1.974   .     S
O585   Zn593   1.974   .     S
O586   Zn593   1.990   .     S
O587   Zn594   1.990   .     S
O588   Zn594   2.013   .     S
O589   Zn593   2.013   .     S
O590   S915    1.504   1_545 S
S591   O741    1.682   .     S
S591   O752    1.504   .     S
S592   O906    1.683   1_545 S
C595   O631    1.277   .     A
C595   O638    1.285   .     A
C595   C612    1.399   .     S
C596   H621    1.081   .     S
C596   C598    1.389   .     A
C596   C607    1.393   .     A
C597   C615    1.416   .     S
C597   C616    1.389   .     A
C597   C599    1.385   .     A
C598   C600    1.385   .     A
C598   C614    1.416   .     S
C599   H622    1.086   .     S
C599   C601    1.381   .     A
C600   H623    1.086   .     S
C600   C602    1.381   .     A
C601   C603    1.412   .     A
C601   C608    1.396   .     A
C602   C609    1.396   .     A
C602   C604    1.412   .     A
C603   C605    1.423   .     A
C604   C607    1.423   .     A
C604   C117    1.392   1_556 S
C605   C616    1.393   .     A
C605   C611    1.417   .     A
C606   C613    1.399   .     S
C606   O637    1.277   .     A
C606   O639    1.285   .     A
C607   C610    1.416   .     A
C608   H624    1.084   .     S
C609   H625    1.083   .     S
C609   C125    1.392   1_556 S
C610   S645    1.776   .     S
C610   C122    1.393   1_556 S
C611   S646    1.775   .     S
C612   C775    1.334   .     S
C612   H788    1.088   .     S
C613   C936    1.334   1_545 S
C613   H951    1.088   1_545 S
C614   O642    1.286   .     A
C614   O640    1.285   .     A
C615   O643    1.286   .     A
C615   O641    1.285   .     A
C616   H617    1.081   .     S
H618   N522    1.029   1_655 S
H619   O633    0.991   .     S
H620   O636    0.991   .     S
H626   C936    1.088   1_545 S
H627   C775    1.088   .     S
N629   Zn648   2.018   .     S
N629   H520    1.029   1_655 S
N629   N522    1.274   1_655 S
N630   Zn647   2.018   .     S
O631   Zn647   1.954   .     S
O632   S645    1.503   .     D
O633   S969    1.682   1_545 S
O634   S646    1.503   .     D
O635   S646    1.503   .     D
O636   S808    1.683   .     S
O637   Zn648   1.954   .     S
O638   Zn648   1.974   .     S
O639   Zn647   1.974   .     S
O640   Zn647   1.990   .     S
O641   Zn648   1.990   .     S
O642   Zn648   2.013   .     S
O643   Zn647   2.013   .     S
O644   S969    1.504   1_545 S
S645   O795    1.682   .     S
S645   O806    1.504   .     S
S646   O960    1.683   1_545 S
C649   O685    1.277   .     A
C649   O692    1.285   .     A
C649   C666    1.399   .     S
C650   H675    1.081   .     S
C650   C652    1.389   .     A
C650   C661    1.393   .     A
C651   C669    1.416   .     S
C651   C670    1.389   .     A
C651   C653    1.385   .     A
C652   C654    1.385   .     A
C652   C668    1.416   .     S
C653   H676    1.086   .     S
C653   C655    1.381   .     A
C654   H677    1.086   .     S
C654   C656    1.381   .     A
C655   C657    1.412   .     A
C655   C662    1.396   .     A
C656   C663    1.396   .     A
C656   C658    1.412   .     A
C657   C659    1.423   .     A
C658   C661    1.423   .     A
C658   C171    1.392   1_556 S
C659   C670    1.393   .     A
C659   C665    1.417   .     A
C660   C667    1.399   .     S
C660   O691    1.277   .     A
C660   O693    1.285   .     A
C661   C664    1.416   .     A
C662   H678    1.084   .     S
C663   H679    1.083   .     S
C663   C179    1.392   1_556 S
C664   S699    1.776   .     S
C664   C176    1.393   1_556 S
C665   S700    1.775   .     S
C666   C829    1.334   .     S
C666   H842    1.088   .     S
C668   O696    1.286   .     A
C668   O694    1.285   .     A
C669   O697    1.286   .     A
C669   O695    1.285   .     A
C670   H671    1.081   .     S
H672   N738    1.029   .     S
H673   O687    0.991   .     S
H674   O690    0.991   .     S
H681   C829    1.088   .     S
H682   N791    1.029   1_455 S
N683   Zn702   2.018   .     S
N683   H736    1.029   .     S
N683   N738    1.274   .     S
N684   Zn701   2.018   .     S
N684   H780    1.029   1_455 S
N684   N791    1.274   1_455 S
O685   Zn701   1.954   .     S
O686   S699    1.503   .     D
O688   S700    1.503   .     D
O689   S700    1.503   .     D
O690   S862    1.683   .     S
O691   Zn702   1.954   .     S
O692   Zn702   1.974   .     S
O693   Zn701   1.974   .     S
O694   Zn701   1.990   .     S
O695   Zn702   1.990   .     S
O696   Zn702   2.013   .     S
O697   Zn701   2.013   .     S
S699   O849    1.682   .     S
S699   O860    1.504   .     S
C703   O739    1.277   .     A
C703   O746    1.285   .     A
C703   C720    1.399   .     S
C704   H729    1.081   .     S
C704   C706    1.389   .     A
C704   C715    1.393   .     A
C705   C723    1.416   .     S
C705   C724    1.389   .     A
C705   C707    1.385   .     A
C706   C708    1.385   .     A
C706   C722    1.416   .     S
C707   H730    1.086   .     S
C707   C709    1.381   .     A
C708   H731    1.086   .     S
C708   C710    1.381   .     A
C709   C711    1.412   .     A
C709   C716    1.396   .     A
C710   C717    1.396   .     A
C710   C712    1.412   .     A
C711   C713    1.423   .     A
C712   C715    1.423   .     A
C712   C225    1.392   1_556 S
C713   C724    1.393   .     A
C713   C719    1.417   .     A
C714   C721    1.399   .     S
C714   O745    1.277   .     A
C714   O747    1.285   .     A
C715   C718    1.416   .     A
C716   H732    1.084   .     S
C717   H733    1.083   .     S
C717   C233    1.392   1_556 S
C718   S753    1.776   .     S
C718   C230    1.393   1_556 S
C719   S754    1.775   .     S
C720   C883    1.334   .     S
C720   H896    1.088   .     S
C722   O750    1.286   .     A
C722   O748    1.285   .     A
C723   O751    1.286   .     A
C723   O749    1.285   .     A
C724   H725    1.081   .     S
H726   N792    1.029   .     S
H727   O741    0.991   .     S
H728   O744    0.991   .     S
H735   C883    1.088   .     S
N737   Zn756   2.018   .     S
N737   H790    1.029   .     S
N737   N792    1.274   .     S
N738   Zn755   2.018   .     S
O739   Zn755   1.954   .     S
O740   S753    1.503   .     D
O742   S754    1.503   .     D
O743   S754    1.503   .     D
O744   S916    1.683   .     S
O745   Zn756   1.954   .     S
O746   Zn756   1.974   .     S
O747   Zn755   1.974   .     S
O748   Zn755   1.990   .     S
O749   Zn756   1.990   .     S
O750   Zn756   2.013   .     S
O751   Zn755   2.013   .     S
S753   O903    1.682   .     S
S753   O914    1.504   .     S
C757   O793    1.277   .     A
C757   O800    1.285   .     A
C757   C774    1.399   .     S
C758   H783    1.081   .     S
C758   C760    1.389   .     A
C758   C769    1.393   .     A
C759   C777    1.416   .     S
C759   C778    1.389   .     A
C759   C761    1.385   .     A
C760   C762    1.385   .     A
C760   C776    1.416   .     S
C761   H784    1.086   .     S
C761   C763    1.381   .     A
C762   H785    1.086   .     S
C762   C764    1.381   .     A
C763   C765    1.412   .     A
C763   C770    1.396   .     A
C764   C771    1.396   .     A
C764   C766    1.412   .     A
C765   C767    1.423   .     A
C766   C769    1.423   .     A
C766   C279    1.392   1_556 S
C767   C778    1.393   .     A
C767   C773    1.417   .     A
C768   C775    1.399   .     S
C768   O799    1.277   .     A
C768   O801    1.285   .     A
C769   C772    1.416   .     A
C770   H786    1.084   .     S
C771   H787    1.083   .     S
C771   C287    1.392   1_556 S
C772   S807    1.776   .     S
C772   C284    1.393   1_556 S
C773   S808    1.775   .     S
C774   C937    1.334   .     S
C774   H950    1.088   .     S
C776   O804    1.286   .     A
C776   O802    1.285   .     A
C777   O805    1.286   .     A
C777   O803    1.285   .     A
C778   H779    1.081   .     S
H780   N684    1.029   1_655 S
H781   O795    0.991   .     S
H782   O798    0.991   .     S
H789   C937    1.088   .     S
N791   Zn810   2.018   .     S
N791   H682    1.029   1_655 S
N791   N684    1.274   1_655 S
N792   Zn809   2.018   .     S
O793   Zn809   1.954   .     S
O794   S807    1.503   .     D
O796   S808    1.503   .     D
O797   S808    1.503   .     D
O798   S970    1.683   .     S
O799   Zn810   1.954   .     S
O800   Zn810   1.974   .     S
O801   Zn809   1.974   .     S
O802   Zn809   1.990   .     S
O803   Zn810   1.990   .     S
O804   Zn810   2.013   .     S
O805   Zn809   2.013   .     S
S807   O957    1.682   .     S
S807   O968    1.504   .     S
C811   O847    1.277   .     A
C811   O854    1.285   .     A
C811   C828    1.399   .     S
C812   H837    1.081   .     S
C812   C814    1.389   .     A
C812   C823    1.393   .     A
C813   C831    1.416   .     S
C813   C832    1.389   .     A
C813   C815    1.385   .     A
C814   C816    1.385   .     A
C814   C830    1.416   .     S
C815   H838    1.086   .     S
C815   C817    1.381   .     A
C816   H839    1.086   .     S
C816   C818    1.381   .     A
C817   C819    1.412   .     A
C817   C824    1.396   .     A
C818   C825    1.396   .     A
C818   C820    1.412   .     A
C819   C821    1.423   .     A
C820   C823    1.423   .     A
C820   C333    1.392   1_556 S
C821   C832    1.393   .     A
C821   C827    1.417   .     A
C822   C829    1.399   .     S
C822   O853    1.277   .     A
C822   O855    1.285   .     A
C823   C826    1.416   .     A
C824   H840    1.084   .     S
C825   H841    1.083   .     S
C825   C341    1.392   1_556 S
C826   S861    1.776   .     S
C826   C338    1.393   1_556 S
C827   S862    1.775   .     S
C828   C505    1.334   1_565 S
C828   H518    1.088   1_565 S
C830   O858    1.286   .     A
C830   O856    1.285   .     A
C831   O859    1.286   .     A
C831   O857    1.285   .     A
C832   H833    1.081   .     S
H834   N900    1.029   .     S
H835   O849    0.991   .     S
H836   O852    0.991   .     S
H843   C505    1.088   1_565 S
H844   N953    1.029   1_455 S
N845   Zn864   2.018   .     S
N845   H898    1.029   .     S
N845   N900    1.274   .     S
N846   Zn863   2.018   .     S
N846   H942    1.029   1_455 S
N846   N953    1.274   1_455 S
O847   Zn863   1.954   .     S
O848   S861    1.503   .     D
O850   S862    1.503   .     D
O851   S862    1.503   .     D
O852   S538    1.683   1_565 S
O853   Zn864   1.954   .     S
O854   Zn864   1.974   .     S
O855   Zn863   1.974   .     S
O856   Zn863   1.990   .     S
O857   Zn864   1.990   .     S
O858   Zn864   2.013   .     S
O859   Zn863   2.013   .     S
S861   O525    1.682   1_565 S
S861   O536    1.504   1_565 S
C865   O901    1.277   .     A
C865   O908    1.285   .     A
C865   C882    1.399   .     S
C866   H891    1.081   .     S
C866   C868    1.389   .     A
C866   C877    1.393   .     A
C867   C885    1.416   .     S
C867   C886    1.389   .     A
C867   C869    1.385   .     A
C868   C870    1.385   .     A
C868   C884    1.416   .     S
C869   H892    1.086   .     S
C869   C871    1.381   .     A
C870   H893    1.086   .     S
C870   C872    1.381   .     A
C871   C873    1.412   .     A
C871   C878    1.396   .     A
C872   C879    1.396   .     A
C872   C874    1.412   .     A
C873   C875    1.423   .     A
C874   C877    1.423   .     A
C874   C387    1.392   1_556 S
C875   C886    1.393   .     A
C875   C881    1.417   .     A
C876   C883    1.399   .     S
C876   O907    1.277   .     A
C876   O909    1.285   .     A
C877   C880    1.416   .     A
C878   H894    1.084   .     S
C879   H895    1.083   .     S
C879   C395    1.392   1_556 S
C880   S915    1.776   .     S
C880   C392    1.393   1_556 S
C881   S916    1.775   .     S
C882   C559    1.334   1_565 S
C882   H572    1.088   1_565 S
C884   O912    1.286   .     A
C884   O910    1.285   .     A
C885   O913    1.286   .     A
C885   O911    1.285   .     A
C886   H887    1.081   .     S
H888   N954    1.029   .     S
H889   O903    0.991   .     S
H890   O906    0.991   .     S
H897   C559    1.088   1_565 S
N899   Zn918   2.018   .     S
N899   H952    1.029   .     S
N899   N954    1.274   .     S
N900   Zn917   2.018   .     S
O901   Zn917   1.954   .     S
O902   S915    1.503   .     D
O904   S916    1.503   .     D
O905   S916    1.503   .     D
O906   S592    1.683   1_565 S
O907   Zn918   1.954   .     S
O908   Zn918   1.974   .     S
O909   Zn917   1.974   .     S
O910   Zn917   1.990   .     S
O911   Zn918   1.990   .     S
O912   Zn918   2.013   .     S
O913   Zn917   2.013   .     S
S915   O579    1.682   1_565 S
S915   O590    1.504   1_565 S
C919   O955    1.277   .     A
C919   O962    1.285   .     A
C919   C936    1.399   .     S
C920   H945    1.081   .     S
C920   C922    1.389   .     A
C920   C931    1.393   .     A
C921   C939    1.416   .     S
C921   C940    1.389   .     A
C921   C923    1.385   .     A
C922   C924    1.385   .     A
C922   C938    1.416   .     S
C923   H946    1.086   .     S
C923   C925    1.381   .     A
C924   H947    1.086   .     S
C924   C926    1.381   .     A
C925   C927    1.412   .     A
C925   C932    1.396   .     A
C926   C933    1.396   .     A
C926   C928    1.412   .     A
C927   C929    1.423   .     A
C928   C931    1.423   .     A
C928   C441    1.392   1_556 S
C929   C940    1.393   .     A
C929   C935    1.417   .     A
C930   C937    1.399   .     S
C930   O961    1.277   .     A
C930   O963    1.285   .     A
C931   C934    1.416   .     A
C932   H948    1.084   .     S
C933   H949    1.083   .     S
C933   C449    1.392   1_556 S
C934   S969    1.776   .     S
C934   C446    1.393   1_556 S
C935   S970    1.775   .     S
C936   C613    1.334   1_565 S
C936   H626    1.088   1_565 S
C938   O966    1.286   .     A
C938   O964    1.285   .     A
C939   O967    1.286   .     A
C939   O965    1.285   .     A
C940   H941    1.081   .     S
H942   N846    1.029   1_655 S
H943   O957    0.991   .     S
H944   O960    0.991   .     S
H951   C613    1.088   1_565 S
N953   Zn972   2.018   .     S
N953   H844    1.029   1_655 S
N953   N846    1.274   1_655 S
N954   Zn971   2.018   .     S
O955   Zn971   1.954   .     S
O956   S969    1.503   .     D
O958   S970    1.503   .     D
O959   S970    1.503   .     D
O960   S646    1.683   1_565 S
O961   Zn972   1.954   .     S
O962   Zn972   1.974   .     S
O963   Zn971   1.974   .     S
O964   Zn971   1.990   .     S
O965   Zn972   1.990   .     S
O966   Zn972   2.013   .     S
O967   Zn971   2.013   .     S
S969   O633    1.682   1_565 S
S969   O644    1.504   1_565 S
