data_str_m3_o2_o10_pcu_sym.41
_audit_creation_date              2020-01-03
_audit_creation_method            'Materials Studio'
_symmetry_space_group_name_H-M    'P1'
_symmetry_Int_Tables_number       1
_symmetry_cell_setting            triclinic
loop_
_symmetry_equiv_pos_as_xyz
  x,y,z
_cell_length_a                    25.7820
_cell_length_b                    30.0540
_cell_length_c                    28.6299
_cell_angle_alpha                 88.4232
_cell_angle_beta                  97.4787
_cell_angle_gamma                 91.8827
loop_
_atom_site_label
_atom_site_type_symbol
_atom_site_fract_x
_atom_site_fract_y
_atom_site_fract_z
_atom_site_U_iso_or_equiv
_atom_site_adp_type
_atom_site_occupancy
C1     C     0.16594   0.16424   0.25036   0.00000  Uiso   1.00
C2     C     0.12113   0.24251   0.44338   0.00000  Uiso   1.00
C3     C     0.16720   0.24804   0.02710   0.00000  Uiso   1.00
C4     C     0.16734   0.24820   0.47412   0.00000  Uiso   1.00
C5     C     0.06722   0.25032   0.23780   0.00000  Uiso   1.00
C6     C     0.26604   0.25156   0.26195   0.00000  Uiso   1.00
C7     C     0.01229   0.24951   0.23101   0.00000  Uiso   1.00
C8     C     0.32073   0.25631   0.26761   0.00000  Uiso   1.00
C9     C     0.12070   0.04620   0.24350   0.00000  Uiso   1.00
C10    C     0.19640   0.45403   0.21857   0.00000  Uiso   1.00
C11    C     0.12014   0.09126   0.25160   0.00000  Uiso   1.00
C12    C     0.16651   0.33593   0.24958   0.00000  Uiso   1.00
C13    C     0.19978   0.40826   0.22204   0.00000  Uiso   1.00
C14    C     0.16675   0.11658   0.25061   0.00000  Uiso   1.00
C15    C     0.16659   0.38395   0.24920   0.00000  Uiso   1.00
C16    C     0.21439   0.09628   0.24720   0.00000  Uiso   1.00
C17    C     0.13425   0.40564   0.27694   0.00000  Uiso   1.00
C18    C     0.21596   0.04956   0.24906   0.00000  Uiso   1.00
C19    C     0.13651   0.45226   0.27819   0.00000  Uiso   1.00
C20    C     0.16811   0.02478   0.24567   0.00000  Uiso   1.00
C21    C     0.16662   0.47624   0.24740   0.00000  Uiso   1.00
C22    C     0.06112   0.09016   0.30971   0.00000  Uiso   1.00
C23    C     0.13094   0.22218   0.04967   0.00000  Uiso   1.00
C24    C     0.28562   0.37814   0.23456   0.00000  Uiso   1.00
C25    C     0.27518   0.13266   0.19978   0.00000  Uiso   1.00
C26    C     0.11500   0.37266   0.35201   0.00000  Uiso   1.00
C27    C     0.28119   0.01095   0.30234   0.00000  Uiso   1.00
C28    C     0.14203   0.49134   0.35178   0.00000  Uiso   1.00
C29    C     0.04043   0.20803   0.10914   0.00000  Uiso   1.00
C30    C     0.27201   0.31473   0.38107   0.00000  Uiso   1.00
C31    C     0.28720   0.32051   0.11395   0.00000  Uiso   1.00
C32    C     0.05924   0.18896   0.35939   0.00000  Uiso   1.00
C33    C     0.21335   0.25536   0.45333   0.00000  Uiso   1.00
C34    C     0.13062   0.22394   0.09905   0.00000  Uiso   1.00
C35    C     0.21245   0.25744   0.40373   0.00000  Uiso   1.00
C36    C     0.20448   0.27388   0.10545   0.00000  Uiso   1.00
C37    C     0.12125   0.24281   0.39400   0.00000  Uiso   1.00
C38    C     0.20370   0.27405   0.05580   0.00000  Uiso   1.00
H39    H     0.32571   0.24175   0.19620   0.00000  Uiso   1.00
H40    H     0.09520   0.09335   0.33764   0.00000  Uiso   1.00
H41    H     0.04963   0.05449   0.30590   0.00000  Uiso   1.00
H42    H     0.02803   0.10736   0.32139   0.00000  Uiso   1.00
H43    H     0.24902   0.40301   0.17102   0.00000  Uiso   1.00
H44    H     0.30433   0.40982   0.24834   0.00000  Uiso   1.00
H45    H     0.31431   0.36031   0.21690   0.00000  Uiso   1.00
H46    H     0.27522   0.35677   0.26444   0.00000  Uiso   1.00
H47    H     0.29159   0.11303   0.26996   0.00000  Uiso   1.00
H48    H     0.28466   0.10155   0.18308   0.00000  Uiso   1.00
H49    H     0.31019   0.15539   0.20267   0.00000  Uiso   1.00
H50    H     0.00703   0.26591   0.30163   0.00000  Uiso   1.00
H51    H     0.24295   0.14912   0.17693   0.00000  Uiso   1.00
H52    H     0.05997   0.38838   0.29412   0.00000  Uiso   1.00
H53    H     0.10046   0.33918   0.36249   0.00000  Uiso   1.00
H54    H     0.15834   0.37404   0.36041   0.00000  Uiso   1.00
H55    H     0.09813   0.39781   0.37290   0.00000  Uiso   1.00
H56    H     0.29463   0.04337   0.23989   0.00000  Uiso   1.00
H57    H     0.25130   0.48748   0.31436   0.00000  Uiso   1.00
H58    H     0.31790   0.49255   0.30292   0.00000  Uiso   1.00
H59    H     0.28823   0.03906   0.32700   0.00000  Uiso   1.00
H60    H     0.07498   0.45994   0.31807   0.00000  Uiso   1.00
H61    H     0.08404   0.02712   0.23994   0.00000  Uiso   1.00
H62    H     0.16217   0.46341   0.37202   0.00000  Uiso   1.00
H63    H     0.11739   0.00796   0.37474   0.00000  Uiso   1.00
H64    H     0.17160   0.01618   0.34170   0.00000  Uiso   1.00
H65    H     0.09997   0.16298   0.11671   0.00000  Uiso   1.00
H66    H     0.01588   0.18760   0.13114   0.00000  Uiso   1.00
H67    H     0.02667   0.20157   0.07146   0.00000  Uiso   1.00
H68    H     0.03556   0.24367   0.11617   0.00000  Uiso   1.00
H69    H     0.29133   0.25077   0.40337   0.00000  Uiso   1.00
H70    H     0.27817   0.33013   0.41630   0.00000  Uiso   1.00
H71    H     0.23978   0.33149   0.35858   0.00000  Uiso   1.00
H72    H     0.21960   0.47253   0.19525   0.00000  Uiso   1.00
H73    H     0.30828   0.31979   0.36424   0.00000  Uiso   1.00
H74    H     0.23387   0.31237   0.16258   0.00000  Uiso   1.00
H75    H     0.30593   0.29823   0.09126   0.00000  Uiso   1.00
H76    H     0.31789   0.33170   0.14231   0.00000  Uiso   1.00
H77    H     0.27178   0.35018   0.09336   0.00000  Uiso   1.00
H78    H     0.04296   0.25230   0.37747   0.00000  Uiso   1.00
H79    H     0.05259   0.17253   0.39346   0.00000  Uiso   1.00
H80    H     0.09122   0.17239   0.34490   0.00000  Uiso   1.00
H81    H     0.02283   0.18560   0.33425   0.00000  Uiso   1.00
H82    H     0.10319   0.20015   0.02934   0.00000  Uiso   1.00
H83    H     0.25055   0.25976   0.47529   0.00000  Uiso   1.00
H84    H     0.23107   0.29499   0.03913   0.00000  Uiso   1.00
H85    H     0.08423   0.23781   0.45737   0.00000  Uiso   1.00
H86    H     0.07167   0.14335   0.26321   0.00000  Uiso   1.00
N87    N     0.16667   0.24999   0.12624   0.00000  Uiso   1.00
N88    N     0.26015   0.26756   0.38570   0.00000  Uiso   1.00
N89    N     0.24542   0.29693   0.13448   0.00000  Uiso   1.00
N90    N     0.07287   0.23547   0.36584   0.00000  Uiso   1.00
N91    N     0.16667   0.25001   0.37377   0.00000  Uiso   1.00
N92    N     0.07408   0.10919   0.26537   0.00000  Uiso   1.00
N93    N     0.23959   0.38725   0.20139   0.00000  Uiso   1.00
N94    N     0.26073   0.12322   0.24628   0.00000  Uiso   1.00
N95    N     0.09870   0.38030   0.30216   0.00000  Uiso   1.00
N96    N     0.26471   0.02752   0.25498   0.00000  Uiso   1.00
N97    N     0.10942   0.47500   0.31044   0.00000  Uiso   1.00
N98    N     0.09464   0.19641   0.12099   0.00000  Uiso   1.00
O99    O     0.16667   0.18453   0.28974   0.00000  Uiso   1.00
O100   O     0.16666   0.31546   0.21026   0.00000  Uiso   1.00
O101   O     0.16667   0.18453   0.21026   0.00000  Uiso   1.00
O102   O     0.16666   0.31547   0.28974   0.00000  Uiso   1.00
O103   O     0.09058   0.25000   0.28045   0.00000  Uiso   1.00
O104   O     0.24275   0.25000   0.21956   0.00000  Uiso   1.00
O105   O     0.09058   0.24999   0.20097   0.00000  Uiso   1.00
O106   O     0.24275   0.25000   0.29904   0.00000  Uiso   1.00
Zn107  Zn    0.16667   0.25000   0.30307   0.00000  Uiso   1.00
Zn108  Zn    0.16667   0.24999   0.19693   0.00000  Uiso   1.00
C109   C     0.49927   0.16424   0.25036   0.00000  Uiso   1.00
C110   C     0.45446   0.24251   0.44338   0.00000  Uiso   1.00
C111   C     0.50053   0.24804   0.02710   0.00000  Uiso   1.00
C112   C     0.50068   0.24820   0.47412   0.00000  Uiso   1.00
C113   C     0.40056   0.25032   0.23780   0.00000  Uiso   1.00
C114   C     0.59937   0.25156   0.26195   0.00000  Uiso   1.00
C115   C     0.34562   0.24951   0.23101   0.00000  Uiso   1.00
C116   C     0.65407   0.25631   0.26761   0.00000  Uiso   1.00
C117   C     0.45403   0.04620   0.24350   0.00000  Uiso   1.00
C118   C     0.52973   0.45403   0.21857   0.00000  Uiso   1.00
C119   C     0.45348   0.09126   0.25160   0.00000  Uiso   1.00
C120   C     0.49984   0.33593   0.24958   0.00000  Uiso   1.00
C121   C     0.53312   0.40826   0.22204   0.00000  Uiso   1.00
C122   C     0.50009   0.11658   0.25061   0.00000  Uiso   1.00
C123   C     0.49992   0.38395   0.24920   0.00000  Uiso   1.00
C124   C     0.54772   0.09628   0.24720   0.00000  Uiso   1.00
C125   C     0.46758   0.40564   0.27694   0.00000  Uiso   1.00
C126   C     0.54930   0.04956   0.24906   0.00000  Uiso   1.00
C127   C     0.46984   0.45226   0.27819   0.00000  Uiso   1.00
C128   C     0.50144   0.02478   0.24567   0.00000  Uiso   1.00
C129   C     0.49995   0.47624   0.24740   0.00000  Uiso   1.00
C130   C     0.39445   0.09016   0.30971   0.00000  Uiso   1.00
C131   C     0.46428   0.22218   0.04967   0.00000  Uiso   1.00
C132   C     0.61895   0.37814   0.23456   0.00000  Uiso   1.00
C133   C     0.60852   0.13266   0.19978   0.00000  Uiso   1.00
C134   C     0.44834   0.37266   0.35201   0.00000  Uiso   1.00
C135   C     0.61453   0.01095   0.30234   0.00000  Uiso   1.00
C136   C     0.47536   0.49134   0.35178   0.00000  Uiso   1.00
C137   C     0.37376   0.20803   0.10914   0.00000  Uiso   1.00
C138   C     0.60535   0.31473   0.38107   0.00000  Uiso   1.00
C139   C     0.62053   0.32051   0.11395   0.00000  Uiso   1.00
C140   C     0.39258   0.18896   0.35939   0.00000  Uiso   1.00
C141   C     0.54668   0.25536   0.45333   0.00000  Uiso   1.00
C142   C     0.46395   0.22394   0.09905   0.00000  Uiso   1.00
C143   C     0.54578   0.25744   0.40373   0.00000  Uiso   1.00
C144   C     0.53781   0.27388   0.10545   0.00000  Uiso   1.00
C145   C     0.45458   0.24281   0.39400   0.00000  Uiso   1.00
C146   C     0.53703   0.27405   0.05580   0.00000  Uiso   1.00
H147   H     0.65905   0.24175   0.19620   0.00000  Uiso   1.00
H148   H     0.42853   0.09335   0.33764   0.00000  Uiso   1.00
H149   H     0.38296   0.05449   0.30590   0.00000  Uiso   1.00
H150   H     0.36137   0.10736   0.32139   0.00000  Uiso   1.00
H151   H     0.58236   0.40301   0.17102   0.00000  Uiso   1.00
H152   H     0.63767   0.40982   0.24834   0.00000  Uiso   1.00
H153   H     0.64764   0.36031   0.21690   0.00000  Uiso   1.00
H154   H     0.60856   0.35677   0.26444   0.00000  Uiso   1.00
H155   H     0.62492   0.11303   0.26996   0.00000  Uiso   1.00
H156   H     0.61799   0.10155   0.18308   0.00000  Uiso   1.00
H157   H     0.64352   0.15539   0.20267   0.00000  Uiso   1.00
H158   H     0.34036   0.26591   0.30163   0.00000  Uiso   1.00
H159   H     0.57628   0.14912   0.17693   0.00000  Uiso   1.00
H160   H     0.39330   0.38838   0.29412   0.00000  Uiso   1.00
H161   H     0.43379   0.33918   0.36249   0.00000  Uiso   1.00
H162   H     0.49168   0.37404   0.36041   0.00000  Uiso   1.00
H163   H     0.43146   0.39781   0.37290   0.00000  Uiso   1.00
H164   H     0.62796   0.04337   0.23989   0.00000  Uiso   1.00
H165   H     0.58463   0.48748   0.31436   0.00000  Uiso   1.00
H166   H     0.65123   0.49255   0.30292   0.00000  Uiso   1.00
H167   H     0.62156   0.03906   0.32700   0.00000  Uiso   1.00
H168   H     0.40831   0.45994   0.31807   0.00000  Uiso   1.00
H169   H     0.41737   0.02712   0.23994   0.00000  Uiso   1.00
H170   H     0.49550   0.46341   0.37202   0.00000  Uiso   1.00
H171   H     0.45072   0.00796   0.37474   0.00000  Uiso   1.00
H172   H     0.50493   0.01618   0.34170   0.00000  Uiso   1.00
H173   H     0.43331   0.16298   0.11671   0.00000  Uiso   1.00
H174   H     0.34921   0.18760   0.13114   0.00000  Uiso   1.00
H175   H     0.36000   0.20157   0.07146   0.00000  Uiso   1.00
H176   H     0.36889   0.24367   0.11617   0.00000  Uiso   1.00
H177   H     0.62466   0.25077   0.40337   0.00000  Uiso   1.00
H178   H     0.61150   0.33013   0.41630   0.00000  Uiso   1.00
H179   H     0.57312   0.33149   0.35858   0.00000  Uiso   1.00
H180   H     0.55293   0.47253   0.19525   0.00000  Uiso   1.00
H181   H     0.64161   0.31979   0.36424   0.00000  Uiso   1.00
H182   H     0.56720   0.31237   0.16258   0.00000  Uiso   1.00
H183   H     0.63927   0.29823   0.09126   0.00000  Uiso   1.00
H184   H     0.65122   0.33170   0.14231   0.00000  Uiso   1.00
H185   H     0.60512   0.35018   0.09336   0.00000  Uiso   1.00
H186   H     0.37630   0.25230   0.37747   0.00000  Uiso   1.00
H187   H     0.38592   0.17253   0.39346   0.00000  Uiso   1.00
H188   H     0.42456   0.17239   0.34490   0.00000  Uiso   1.00
H189   H     0.35617   0.18560   0.33425   0.00000  Uiso   1.00
H190   H     0.43652   0.20015   0.02934   0.00000  Uiso   1.00
H191   H     0.58388   0.25976   0.47529   0.00000  Uiso   1.00
H192   H     0.56440   0.29499   0.03913   0.00000  Uiso   1.00
H193   H     0.41756   0.23781   0.45737   0.00000  Uiso   1.00
H194   H     0.40501   0.14335   0.26321   0.00000  Uiso   1.00
N195   N     0.50000   0.24999   0.12624   0.00000  Uiso   1.00
N196   N     0.59348   0.26756   0.38570   0.00000  Uiso   1.00
N197   N     0.57875   0.29693   0.13448   0.00000  Uiso   1.00
N198   N     0.40620   0.23547   0.36584   0.00000  Uiso   1.00
N199   N     0.50000   0.25001   0.37377   0.00000  Uiso   1.00
N200   N     0.40741   0.10919   0.26537   0.00000  Uiso   1.00
N201   N     0.57292   0.38725   0.20139   0.00000  Uiso   1.00
N202   N     0.59406   0.12322   0.24628   0.00000  Uiso   1.00
N203   N     0.43204   0.38030   0.30216   0.00000  Uiso   1.00
N204   N     0.59804   0.02752   0.25498   0.00000  Uiso   1.00
N205   N     0.44275   0.47500   0.31044   0.00000  Uiso   1.00
N206   N     0.42798   0.19641   0.12099   0.00000  Uiso   1.00
O207   O     0.50000   0.18453   0.28974   0.00000  Uiso   1.00
O208   O     0.50000   0.31546   0.21026   0.00000  Uiso   1.00
O209   O     0.50000   0.18453   0.21026   0.00000  Uiso   1.00
O210   O     0.50000   0.31547   0.28974   0.00000  Uiso   1.00
O211   O     0.42392   0.25000   0.28045   0.00000  Uiso   1.00
O212   O     0.57608   0.25000   0.21956   0.00000  Uiso   1.00
O213   O     0.42392   0.24999   0.20097   0.00000  Uiso   1.00
O214   O     0.57608   0.25000   0.29904   0.00000  Uiso   1.00
Zn215  Zn    0.50000   0.25000   0.30307   0.00000  Uiso   1.00
Zn216  Zn    0.50000   0.24999   0.19693   0.00000  Uiso   1.00
C217   C     0.83261   0.16424   0.25036   0.00000  Uiso   1.00
C218   C     0.78780   0.24251   0.44338   0.00000  Uiso   1.00
C219   C     0.83386   0.24804   0.02710   0.00000  Uiso   1.00
C220   C     0.83401   0.24820   0.47412   0.00000  Uiso   1.00
C221   C     0.73389   0.25032   0.23780   0.00000  Uiso   1.00
C222   C     0.93271   0.25156   0.26195   0.00000  Uiso   1.00
C223   C     0.67896   0.24951   0.23101   0.00000  Uiso   1.00
C224   C     0.98740   0.25631   0.26761   0.00000  Uiso   1.00
C225   C     0.78736   0.04620   0.24350   0.00000  Uiso   1.00
C226   C     0.86307   0.45403   0.21857   0.00000  Uiso   1.00
C227   C     0.78681   0.09126   0.25160   0.00000  Uiso   1.00
C228   C     0.83318   0.33593   0.24958   0.00000  Uiso   1.00
C229   C     0.86645   0.40826   0.22204   0.00000  Uiso   1.00
C230   C     0.83342   0.11658   0.25061   0.00000  Uiso   1.00
C231   C     0.83325   0.38395   0.24920   0.00000  Uiso   1.00
C232   C     0.88106   0.09628   0.24720   0.00000  Uiso   1.00
C233   C     0.80092   0.40564   0.27694   0.00000  Uiso   1.00
C234   C     0.88263   0.04956   0.24906   0.00000  Uiso   1.00
C235   C     0.80318   0.45226   0.27819   0.00000  Uiso   1.00
C236   C     0.83478   0.02478   0.24567   0.00000  Uiso   1.00
C237   C     0.83328   0.47624   0.24740   0.00000  Uiso   1.00
C238   C     0.72779   0.09016   0.30971   0.00000  Uiso   1.00
C239   C     0.79761   0.22218   0.04967   0.00000  Uiso   1.00
C240   C     0.95229   0.37814   0.23456   0.00000  Uiso   1.00
C241   C     0.94185   0.13266   0.19978   0.00000  Uiso   1.00
C242   C     0.78167   0.37266   0.35201   0.00000  Uiso   1.00
C243   C     0.94786   0.01095   0.30234   0.00000  Uiso   1.00
C244   C     0.80869   0.49134   0.35178   0.00000  Uiso   1.00
C245   C     0.70709   0.20803   0.10914   0.00000  Uiso   1.00
C246   C     0.93868   0.31473   0.38107   0.00000  Uiso   1.00
C247   C     0.95386   0.32051   0.11395   0.00000  Uiso   1.00
C248   C     0.72591   0.18896   0.35939   0.00000  Uiso   1.00
C249   C     0.88002   0.25536   0.45333   0.00000  Uiso   1.00
C250   C     0.79729   0.22394   0.09905   0.00000  Uiso   1.00
C251   C     0.87911   0.25744   0.40373   0.00000  Uiso   1.00
C252   C     0.87114   0.27388   0.10545   0.00000  Uiso   1.00
C253   C     0.78791   0.24281   0.39400   0.00000  Uiso   1.00
C254   C     0.87036   0.27405   0.05580   0.00000  Uiso   1.00
H255   H     0.99238   0.24175   0.19620   0.00000  Uiso   1.00
H256   H     0.76187   0.09335   0.33764   0.00000  Uiso   1.00
H257   H     0.71630   0.05449   0.30590   0.00000  Uiso   1.00
H258   H     0.69470   0.10736   0.32139   0.00000  Uiso   1.00
H259   H     0.91569   0.40301   0.17102   0.00000  Uiso   1.00
H260   H     0.97100   0.40982   0.24834   0.00000  Uiso   1.00
H261   H     0.98097   0.36031   0.21690   0.00000  Uiso   1.00
H262   H     0.94189   0.35677   0.26444   0.00000  Uiso   1.00
H263   H     0.95826   0.11303   0.26996   0.00000  Uiso   1.00
H264   H     0.95133   0.10155   0.18308   0.00000  Uiso   1.00
H265   H     0.97686   0.15539   0.20267   0.00000  Uiso   1.00
H266   H     0.67369   0.26591   0.30163   0.00000  Uiso   1.00
H267   H     0.90962   0.14912   0.17693   0.00000  Uiso   1.00
H268   H     0.72664   0.38838   0.29412   0.00000  Uiso   1.00
H269   H     0.76712   0.33918   0.36249   0.00000  Uiso   1.00
H270   H     0.82501   0.37404   0.36041   0.00000  Uiso   1.00
H271   H     0.76480   0.39781   0.37290   0.00000  Uiso   1.00
H272   H     0.96130   0.04337   0.23989   0.00000  Uiso   1.00
H273   H     0.91797   0.48748   0.31436   0.00000  Uiso   1.00
H274   H     0.98457   0.49255   0.30292   0.00000  Uiso   1.00
H275   H     0.95489   0.03906   0.32700   0.00000  Uiso   1.00
H276   H     0.74164   0.45994   0.31807   0.00000  Uiso   1.00
H277   H     0.75070   0.02712   0.23994   0.00000  Uiso   1.00
H278   H     0.82883   0.46341   0.37202   0.00000  Uiso   1.00
H279   H     0.78406   0.00796   0.37474   0.00000  Uiso   1.00
H280   H     0.83827   0.01618   0.34170   0.00000  Uiso   1.00
H281   H     0.76664   0.16298   0.11671   0.00000  Uiso   1.00
H282   H     0.68254   0.18760   0.13114   0.00000  Uiso   1.00
H283   H     0.69333   0.20157   0.07146   0.00000  Uiso   1.00
H284   H     0.70222   0.24367   0.11617   0.00000  Uiso   1.00
H285   H     0.95800   0.25077   0.40337   0.00000  Uiso   1.00
H286   H     0.94484   0.33013   0.41630   0.00000  Uiso   1.00
H287   H     0.90645   0.33149   0.35858   0.00000  Uiso   1.00
H288   H     0.88626   0.47253   0.19525   0.00000  Uiso   1.00
H289   H     0.97494   0.31979   0.36424   0.00000  Uiso   1.00
H290   H     0.90054   0.31237   0.16258   0.00000  Uiso   1.00
H291   H     0.97260   0.29823   0.09126   0.00000  Uiso   1.00
H292   H     0.98455   0.33170   0.14231   0.00000  Uiso   1.00
H293   H     0.93845   0.35018   0.09336   0.00000  Uiso   1.00
H294   H     0.70963   0.25230   0.37747   0.00000  Uiso   1.00
H295   H     0.71925   0.17253   0.39346   0.00000  Uiso   1.00
H296   H     0.75789   0.17239   0.34490   0.00000  Uiso   1.00
H297   H     0.68950   0.18560   0.33425   0.00000  Uiso   1.00
H298   H     0.76985   0.20015   0.02934   0.00000  Uiso   1.00
H299   H     0.91721   0.25976   0.47529   0.00000  Uiso   1.00
H300   H     0.89773   0.29499   0.03913   0.00000  Uiso   1.00
H301   H     0.75089   0.23781   0.45737   0.00000  Uiso   1.00
H302   H     0.73834   0.14335   0.26321   0.00000  Uiso   1.00
N303   N     0.83333   0.24999   0.12624   0.00000  Uiso   1.00
N304   N     0.92682   0.26756   0.38570   0.00000  Uiso   1.00
N305   N     0.91209   0.29693   0.13448   0.00000  Uiso   1.00
N306   N     0.73954   0.23547   0.36584   0.00000  Uiso   1.00
N307   N     0.83333   0.25001   0.37377   0.00000  Uiso   1.00
N308   N     0.74074   0.10919   0.26537   0.00000  Uiso   1.00
N309   N     0.90625   0.38725   0.20139   0.00000  Uiso   1.00
N310   N     0.92740   0.12322   0.24628   0.00000  Uiso   1.00
N311   N     0.76537   0.38030   0.30216   0.00000  Uiso   1.00
N312   N     0.93137   0.02752   0.25498   0.00000  Uiso   1.00
N313   N     0.77608   0.47500   0.31044   0.00000  Uiso   1.00
N314   N     0.76131   0.19641   0.12099   0.00000  Uiso   1.00
O315   O     0.83334   0.18453   0.28974   0.00000  Uiso   1.00
O316   O     0.83333   0.31546   0.21026   0.00000  Uiso   1.00
O317   O     0.83334   0.18453   0.21026   0.00000  Uiso   1.00
O318   O     0.83333   0.31547   0.28974   0.00000  Uiso   1.00
O319   O     0.75725   0.25000   0.28045   0.00000  Uiso   1.00
O320   O     0.90942   0.25000   0.21956   0.00000  Uiso   1.00
O321   O     0.75725   0.24999   0.20097   0.00000  Uiso   1.00
O322   O     0.90942   0.25000   0.29904   0.00000  Uiso   1.00
Zn323  Zn    0.83333   0.25000   0.30307   0.00000  Uiso   1.00
Zn324  Zn    0.83333   0.24999   0.19693   0.00000  Uiso   1.00
C325   C     0.16594   0.66424   0.25036   0.00000  Uiso   1.00
C326   C     0.12113   0.74251   0.44338   0.00000  Uiso   1.00
C327   C     0.16720   0.74804   0.02710   0.00000  Uiso   1.00
C328   C     0.16734   0.74820   0.47412   0.00000  Uiso   1.00
C329   C     0.06722   0.75032   0.23780   0.00000  Uiso   1.00
C330   C     0.26604   0.75156   0.26195   0.00000  Uiso   1.00
C331   C     0.01229   0.74951   0.23101   0.00000  Uiso   1.00
C332   C     0.32073   0.75631   0.26761   0.00000  Uiso   1.00
C333   C     0.12070   0.54620   0.24350   0.00000  Uiso   1.00
C334   C     0.19640   0.95403   0.21857   0.00000  Uiso   1.00
C335   C     0.12014   0.59126   0.25160   0.00000  Uiso   1.00
C336   C     0.16651   0.83593   0.24958   0.00000  Uiso   1.00
C337   C     0.19978   0.90826   0.22204   0.00000  Uiso   1.00
C338   C     0.16675   0.61658   0.25061   0.00000  Uiso   1.00
C339   C     0.16659   0.88395   0.24920   0.00000  Uiso   1.00
C340   C     0.21439   0.59628   0.24720   0.00000  Uiso   1.00
C341   C     0.13425   0.90564   0.27694   0.00000  Uiso   1.00
C342   C     0.21596   0.54956   0.24906   0.00000  Uiso   1.00
C343   C     0.13651   0.95226   0.27819   0.00000  Uiso   1.00
C344   C     0.16811   0.52478   0.24567   0.00000  Uiso   1.00
C345   C     0.16662   0.97624   0.24740   0.00000  Uiso   1.00
C346   C     0.06112   0.59016   0.30971   0.00000  Uiso   1.00
C347   C     0.13094   0.72218   0.04967   0.00000  Uiso   1.00
C348   C     0.28562   0.87814   0.23456   0.00000  Uiso   1.00
C349   C     0.27518   0.63266   0.19978   0.00000  Uiso   1.00
C350   C     0.11500   0.87266   0.35201   0.00000  Uiso   1.00
C351   C     0.28119   0.51095   0.30234   0.00000  Uiso   1.00
C352   C     0.14203   0.99134   0.35178   0.00000  Uiso   1.00
C353   C     0.04043   0.70803   0.10914   0.00000  Uiso   1.00
C354   C     0.27201   0.81473   0.38107   0.00000  Uiso   1.00
C355   C     0.28720   0.82051   0.11395   0.00000  Uiso   1.00
C356   C     0.05924   0.68896   0.35939   0.00000  Uiso   1.00
C357   C     0.21335   0.75536   0.45333   0.00000  Uiso   1.00
C358   C     0.13062   0.72394   0.09905   0.00000  Uiso   1.00
C359   C     0.21245   0.75744   0.40373   0.00000  Uiso   1.00
C360   C     0.20448   0.77388   0.10545   0.00000  Uiso   1.00
C361   C     0.12125   0.74281   0.39400   0.00000  Uiso   1.00
C362   C     0.20370   0.77405   0.05580   0.00000  Uiso   1.00
H363   H     0.32571   0.74175   0.19620   0.00000  Uiso   1.00
H364   H     0.09520   0.59335   0.33764   0.00000  Uiso   1.00
H365   H     0.04963   0.55449   0.30590   0.00000  Uiso   1.00
H366   H     0.02803   0.60736   0.32139   0.00000  Uiso   1.00
H367   H     0.24902   0.90301   0.17102   0.00000  Uiso   1.00
H368   H     0.30433   0.90982   0.24834   0.00000  Uiso   1.00
H369   H     0.31431   0.86031   0.21690   0.00000  Uiso   1.00
H370   H     0.27522   0.85677   0.26444   0.00000  Uiso   1.00
H371   H     0.29159   0.61303   0.26996   0.00000  Uiso   1.00
H372   H     0.28466   0.60155   0.18308   0.00000  Uiso   1.00
H373   H     0.31019   0.65539   0.20267   0.00000  Uiso   1.00
H374   H     0.00703   0.76591   0.30163   0.00000  Uiso   1.00
H375   H     0.24295   0.64912   0.17693   0.00000  Uiso   1.00
H376   H     0.05997   0.88838   0.29412   0.00000  Uiso   1.00
H377   H     0.10046   0.83918   0.36249   0.00000  Uiso   1.00
H378   H     0.15834   0.87404   0.36041   0.00000  Uiso   1.00
H379   H     0.09813   0.89781   0.37290   0.00000  Uiso   1.00
H380   H     0.29463   0.54337   0.23989   0.00000  Uiso   1.00
H381   H     0.25130   0.98748   0.31436   0.00000  Uiso   1.00
H382   H     0.31790   0.99255   0.30292   0.00000  Uiso   1.00
H383   H     0.28823   0.53906   0.32700   0.00000  Uiso   1.00
H384   H     0.07498   0.95994   0.31807   0.00000  Uiso   1.00
H385   H     0.08404   0.52712   0.23994   0.00000  Uiso   1.00
H386   H     0.16217   0.96341   0.37202   0.00000  Uiso   1.00
H387   H     0.11739   0.50796   0.37474   0.00000  Uiso   1.00
H388   H     0.17160   0.51618   0.34170   0.00000  Uiso   1.00
H389   H     0.09997   0.66298   0.11671   0.00000  Uiso   1.00
H390   H     0.01588   0.68760   0.13114   0.00000  Uiso   1.00
H391   H     0.02667   0.70157   0.07146   0.00000  Uiso   1.00
H392   H     0.03556   0.74367   0.11617   0.00000  Uiso   1.00
H393   H     0.29133   0.75077   0.40337   0.00000  Uiso   1.00
H394   H     0.27817   0.83013   0.41630   0.00000  Uiso   1.00
H395   H     0.23978   0.83149   0.35858   0.00000  Uiso   1.00
H396   H     0.21960   0.97253   0.19525   0.00000  Uiso   1.00
H397   H     0.30828   0.81979   0.36424   0.00000  Uiso   1.00
H398   H     0.23387   0.81237   0.16258   0.00000  Uiso   1.00
H399   H     0.30593   0.79823   0.09126   0.00000  Uiso   1.00
H400   H     0.31789   0.83170   0.14231   0.00000  Uiso   1.00
H401   H     0.27178   0.85018   0.09336   0.00000  Uiso   1.00
H402   H     0.04296   0.75230   0.37747   0.00000  Uiso   1.00
H403   H     0.05259   0.67253   0.39346   0.00000  Uiso   1.00
H404   H     0.09122   0.67239   0.34490   0.00000  Uiso   1.00
H405   H     0.02283   0.68560   0.33425   0.00000  Uiso   1.00
H406   H     0.10319   0.70015   0.02934   0.00000  Uiso   1.00
H407   H     0.25055   0.75976   0.47529   0.00000  Uiso   1.00
H408   H     0.23107   0.79499   0.03913   0.00000  Uiso   1.00
H409   H     0.08423   0.73781   0.45737   0.00000  Uiso   1.00
H410   H     0.07167   0.64335   0.26321   0.00000  Uiso   1.00
N411   N     0.16667   0.74999   0.12624   0.00000  Uiso   1.00
N412   N     0.26015   0.76756   0.38570   0.00000  Uiso   1.00
N413   N     0.24542   0.79693   0.13448   0.00000  Uiso   1.00
N414   N     0.07287   0.73547   0.36584   0.00000  Uiso   1.00
N415   N     0.16667   0.75001   0.37377   0.00000  Uiso   1.00
N416   N     0.07408   0.60919   0.26537   0.00000  Uiso   1.00
N417   N     0.23959   0.88725   0.20139   0.00000  Uiso   1.00
N418   N     0.26073   0.62322   0.24628   0.00000  Uiso   1.00
N419   N     0.09870   0.88030   0.30216   0.00000  Uiso   1.00
N420   N     0.26471   0.52752   0.25498   0.00000  Uiso   1.00
N421   N     0.10942   0.97500   0.31044   0.00000  Uiso   1.00
N422   N     0.09464   0.69641   0.12099   0.00000  Uiso   1.00
O423   O     0.16667   0.68453   0.28974   0.00000  Uiso   1.00
O424   O     0.16666   0.81546   0.21026   0.00000  Uiso   1.00
O425   O     0.16667   0.68453   0.21026   0.00000  Uiso   1.00
O426   O     0.16666   0.81547   0.28974   0.00000  Uiso   1.00
O427   O     0.09058   0.75000   0.28045   0.00000  Uiso   1.00
O428   O     0.24275   0.75000   0.21956   0.00000  Uiso   1.00
O429   O     0.09058   0.74999   0.20097   0.00000  Uiso   1.00
O430   O     0.24275   0.75000   0.29904   0.00000  Uiso   1.00
Zn431  Zn    0.16667   0.75000   0.30307   0.00000  Uiso   1.00
Zn432  Zn    0.16667   0.74999   0.19693   0.00000  Uiso   1.00
C433   C     0.49927   0.66424   0.25036   0.00000  Uiso   1.00
C434   C     0.45446   0.74251   0.44338   0.00000  Uiso   1.00
C435   C     0.50053   0.74804   0.02710   0.00000  Uiso   1.00
C436   C     0.50068   0.74820   0.47412   0.00000  Uiso   1.00
C437   C     0.40056   0.75032   0.23780   0.00000  Uiso   1.00
C438   C     0.59937   0.75156   0.26195   0.00000  Uiso   1.00
C439   C     0.34562   0.74951   0.23101   0.00000  Uiso   1.00
C440   C     0.65407   0.75631   0.26761   0.00000  Uiso   1.00
C441   C     0.45403   0.54620   0.24350   0.00000  Uiso   1.00
C442   C     0.52973   0.95403   0.21857   0.00000  Uiso   1.00
C443   C     0.45348   0.59126   0.25160   0.00000  Uiso   1.00
C444   C     0.49984   0.83593   0.24958   0.00000  Uiso   1.00
C445   C     0.53312   0.90826   0.22204   0.00000  Uiso   1.00
C446   C     0.50009   0.61658   0.25061   0.00000  Uiso   1.00
C447   C     0.49992   0.88395   0.24920   0.00000  Uiso   1.00
C448   C     0.54772   0.59628   0.24720   0.00000  Uiso   1.00
C449   C     0.46758   0.90564   0.27694   0.00000  Uiso   1.00
C450   C     0.54930   0.54956   0.24906   0.00000  Uiso   1.00
C451   C     0.46984   0.95226   0.27819   0.00000  Uiso   1.00
C452   C     0.50144   0.52478   0.24567   0.00000  Uiso   1.00
C453   C     0.49995   0.97624   0.24740   0.00000  Uiso   1.00
C454   C     0.39445   0.59016   0.30971   0.00000  Uiso   1.00
C455   C     0.46428   0.72218   0.04967   0.00000  Uiso   1.00
C456   C     0.61895   0.87814   0.23456   0.00000  Uiso   1.00
C457   C     0.60852   0.63266   0.19978   0.00000  Uiso   1.00
C458   C     0.44834   0.87266   0.35201   0.00000  Uiso   1.00
C459   C     0.61453   0.51095   0.30234   0.00000  Uiso   1.00
C460   C     0.47536   0.99134   0.35178   0.00000  Uiso   1.00
C461   C     0.37376   0.70803   0.10914   0.00000  Uiso   1.00
C462   C     0.60535   0.81473   0.38107   0.00000  Uiso   1.00
C463   C     0.62053   0.82051   0.11395   0.00000  Uiso   1.00
C464   C     0.39258   0.68896   0.35939   0.00000  Uiso   1.00
C465   C     0.54668   0.75536   0.45333   0.00000  Uiso   1.00
C466   C     0.46395   0.72394   0.09905   0.00000  Uiso   1.00
C467   C     0.54578   0.75744   0.40373   0.00000  Uiso   1.00
C468   C     0.53781   0.77388   0.10545   0.00000  Uiso   1.00
C469   C     0.45458   0.74281   0.39400   0.00000  Uiso   1.00
C470   C     0.53703   0.77405   0.05580   0.00000  Uiso   1.00
H471   H     0.65905   0.74175   0.19620   0.00000  Uiso   1.00
H472   H     0.42853   0.59335   0.33764   0.00000  Uiso   1.00
H473   H     0.38296   0.55449   0.30590   0.00000  Uiso   1.00
H474   H     0.36137   0.60736   0.32139   0.00000  Uiso   1.00
H475   H     0.58236   0.90301   0.17102   0.00000  Uiso   1.00
H476   H     0.63767   0.90982   0.24834   0.00000  Uiso   1.00
H477   H     0.64764   0.86031   0.21690   0.00000  Uiso   1.00
H478   H     0.60856   0.85677   0.26444   0.00000  Uiso   1.00
H479   H     0.62492   0.61303   0.26996   0.00000  Uiso   1.00
H480   H     0.61799   0.60155   0.18308   0.00000  Uiso   1.00
H481   H     0.64352   0.65539   0.20267   0.00000  Uiso   1.00
H482   H     0.34036   0.76591   0.30163   0.00000  Uiso   1.00
H483   H     0.57628   0.64912   0.17693   0.00000  Uiso   1.00
H484   H     0.39330   0.88838   0.29412   0.00000  Uiso   1.00
H485   H     0.43379   0.83918   0.36249   0.00000  Uiso   1.00
H486   H     0.49168   0.87404   0.36041   0.00000  Uiso   1.00
H487   H     0.43146   0.89781   0.37290   0.00000  Uiso   1.00
H488   H     0.62796   0.54337   0.23989   0.00000  Uiso   1.00
H489   H     0.58463   0.98748   0.31436   0.00000  Uiso   1.00
H490   H     0.65123   0.99255   0.30292   0.00000  Uiso   1.00
H491   H     0.62156   0.53906   0.32700   0.00000  Uiso   1.00
H492   H     0.40831   0.95994   0.31807   0.00000  Uiso   1.00
H493   H     0.41737   0.52712   0.23994   0.00000  Uiso   1.00
H494   H     0.49550   0.96341   0.37202   0.00000  Uiso   1.00
H495   H     0.45072   0.50796   0.37474   0.00000  Uiso   1.00
H496   H     0.50493   0.51618   0.34170   0.00000  Uiso   1.00
H497   H     0.43331   0.66298   0.11671   0.00000  Uiso   1.00
H498   H     0.34921   0.68760   0.13114   0.00000  Uiso   1.00
H499   H     0.36000   0.70157   0.07146   0.00000  Uiso   1.00
H500   H     0.36889   0.74367   0.11617   0.00000  Uiso   1.00
H501   H     0.62466   0.75077   0.40337   0.00000  Uiso   1.00
H502   H     0.61150   0.83013   0.41630   0.00000  Uiso   1.00
H503   H     0.57312   0.83149   0.35858   0.00000  Uiso   1.00
H504   H     0.55293   0.97253   0.19525   0.00000  Uiso   1.00
H505   H     0.64161   0.81979   0.36424   0.00000  Uiso   1.00
H506   H     0.56720   0.81237   0.16258   0.00000  Uiso   1.00
H507   H     0.63927   0.79823   0.09126   0.00000  Uiso   1.00
H508   H     0.65122   0.83170   0.14231   0.00000  Uiso   1.00
H509   H     0.60512   0.85018   0.09336   0.00000  Uiso   1.00
H510   H     0.37630   0.75230   0.37747   0.00000  Uiso   1.00
H511   H     0.38592   0.67253   0.39346   0.00000  Uiso   1.00
H512   H     0.42456   0.67239   0.34490   0.00000  Uiso   1.00
H513   H     0.35617   0.68560   0.33425   0.00000  Uiso   1.00
H514   H     0.43652   0.70015   0.02934   0.00000  Uiso   1.00
H515   H     0.58388   0.75976   0.47529   0.00000  Uiso   1.00
H516   H     0.56440   0.79499   0.03913   0.00000  Uiso   1.00
H517   H     0.41756   0.73781   0.45737   0.00000  Uiso   1.00
H518   H     0.40501   0.64335   0.26321   0.00000  Uiso   1.00
N519   N     0.50000   0.74999   0.12624   0.00000  Uiso   1.00
N520   N     0.59348   0.76756   0.38570   0.00000  Uiso   1.00
N521   N     0.57875   0.79693   0.13448   0.00000  Uiso   1.00
N522   N     0.40620   0.73547   0.36584   0.00000  Uiso   1.00
N523   N     0.50000   0.75001   0.37377   0.00000  Uiso   1.00
N524   N     0.40741   0.60919   0.26537   0.00000  Uiso   1.00
N525   N     0.57292   0.88725   0.20139   0.00000  Uiso   1.00
N526   N     0.59406   0.62322   0.24628   0.00000  Uiso   1.00
N527   N     0.43204   0.88030   0.30216   0.00000  Uiso   1.00
N528   N     0.59804   0.52752   0.25498   0.00000  Uiso   1.00
N529   N     0.44275   0.97500   0.31044   0.00000  Uiso   1.00
N530   N     0.42798   0.69641   0.12099   0.00000  Uiso   1.00
O531   O     0.50000   0.68453   0.28974   0.00000  Uiso   1.00
O532   O     0.50000   0.81546   0.21026   0.00000  Uiso   1.00
O533   O     0.50000   0.68453   0.21026   0.00000  Uiso   1.00
O534   O     0.50000   0.81547   0.28974   0.00000  Uiso   1.00
O535   O     0.42392   0.75000   0.28045   0.00000  Uiso   1.00
O536   O     0.57608   0.75000   0.21956   0.00000  Uiso   1.00
O537   O     0.42392   0.74999   0.20097   0.00000  Uiso   1.00
O538   O     0.57608   0.75000   0.29904   0.00000  Uiso   1.00
Zn539  Zn    0.50000   0.75000   0.30307   0.00000  Uiso   1.00
Zn540  Zn    0.50000   0.74999   0.19693   0.00000  Uiso   1.00
C541   C     0.83261   0.66424   0.25036   0.00000  Uiso   1.00
C542   C     0.78780   0.74251   0.44338   0.00000  Uiso   1.00
C543   C     0.83386   0.74804   0.02710   0.00000  Uiso   1.00
C544   C     0.83401   0.74820   0.47412   0.00000  Uiso   1.00
C545   C     0.73389   0.75032   0.23780   0.00000  Uiso   1.00
C546   C     0.93271   0.75156   0.26195   0.00000  Uiso   1.00
C547   C     0.67896   0.74951   0.23101   0.00000  Uiso   1.00
C548   C     0.98740   0.75631   0.26761   0.00000  Uiso   1.00
C549   C     0.78736   0.54620   0.24350   0.00000  Uiso   1.00
C550   C     0.86307   0.95403   0.21857   0.00000  Uiso   1.00
C551   C     0.78681   0.59126   0.25160   0.00000  Uiso   1.00
C552   C     0.83318   0.83593   0.24958   0.00000  Uiso   1.00
C553   C     0.86645   0.90826   0.22204   0.00000  Uiso   1.00
C554   C     0.83342   0.61658   0.25061   0.00000  Uiso   1.00
C555   C     0.83325   0.88395   0.24920   0.00000  Uiso   1.00
C556   C     0.88106   0.59628   0.24720   0.00000  Uiso   1.00
C557   C     0.80092   0.90564   0.27694   0.00000  Uiso   1.00
C558   C     0.88263   0.54956   0.24906   0.00000  Uiso   1.00
C559   C     0.80318   0.95226   0.27819   0.00000  Uiso   1.00
C560   C     0.83478   0.52478   0.24567   0.00000  Uiso   1.00
C561   C     0.83328   0.97624   0.24740   0.00000  Uiso   1.00
C562   C     0.72779   0.59016   0.30971   0.00000  Uiso   1.00
C563   C     0.79761   0.72218   0.04967   0.00000  Uiso   1.00
C564   C     0.95229   0.87814   0.23456   0.00000  Uiso   1.00
C565   C     0.94185   0.63266   0.19978   0.00000  Uiso   1.00
C566   C     0.78167   0.87266   0.35201   0.00000  Uiso   1.00
C567   C     0.94786   0.51095   0.30234   0.00000  Uiso   1.00
C568   C     0.80869   0.99134   0.35178   0.00000  Uiso   1.00
C569   C     0.70709   0.70803   0.10914   0.00000  Uiso   1.00
C570   C     0.93868   0.81473   0.38107   0.00000  Uiso   1.00
C571   C     0.95386   0.82051   0.11395   0.00000  Uiso   1.00
C572   C     0.72591   0.68896   0.35939   0.00000  Uiso   1.00
C573   C     0.88002   0.75536   0.45333   0.00000  Uiso   1.00
C574   C     0.79729   0.72394   0.09905   0.00000  Uiso   1.00
C575   C     0.87911   0.75744   0.40373   0.00000  Uiso   1.00
C576   C     0.87114   0.77388   0.10545   0.00000  Uiso   1.00
C577   C     0.78791   0.74281   0.39400   0.00000  Uiso   1.00
C578   C     0.87036   0.77405   0.05580   0.00000  Uiso   1.00
H579   H     0.99238   0.74175   0.19620   0.00000  Uiso   1.00
H580   H     0.76187   0.59335   0.33764   0.00000  Uiso   1.00
H581   H     0.71630   0.55449   0.30590   0.00000  Uiso   1.00
H582   H     0.69470   0.60736   0.32139   0.00000  Uiso   1.00
H583   H     0.91569   0.90301   0.17102   0.00000  Uiso   1.00
H584   H     0.97100   0.90982   0.24834   0.00000  Uiso   1.00
H585   H     0.98097   0.86031   0.21690   0.00000  Uiso   1.00
H586   H     0.94189   0.85677   0.26444   0.00000  Uiso   1.00
H587   H     0.95826   0.61303   0.26996   0.00000  Uiso   1.00
H588   H     0.95133   0.60155   0.18308   0.00000  Uiso   1.00
H589   H     0.97686   0.65539   0.20267   0.00000  Uiso   1.00
H590   H     0.67369   0.76591   0.30163   0.00000  Uiso   1.00
H591   H     0.90962   0.64912   0.17693   0.00000  Uiso   1.00
H592   H     0.72664   0.88838   0.29412   0.00000  Uiso   1.00
H593   H     0.76712   0.83918   0.36249   0.00000  Uiso   1.00
H594   H     0.82501   0.87404   0.36041   0.00000  Uiso   1.00
H595   H     0.76480   0.89781   0.37290   0.00000  Uiso   1.00
H596   H     0.96130   0.54337   0.23989   0.00000  Uiso   1.00
H597   H     0.91797   0.98748   0.31436   0.00000  Uiso   1.00
H598   H     0.98457   0.99255   0.30292   0.00000  Uiso   1.00
H599   H     0.95489   0.53906   0.32700   0.00000  Uiso   1.00
H600   H     0.74164   0.95994   0.31807   0.00000  Uiso   1.00
H601   H     0.75070   0.52712   0.23994   0.00000  Uiso   1.00
H602   H     0.82883   0.96341   0.37202   0.00000  Uiso   1.00
H603   H     0.78406   0.50796   0.37474   0.00000  Uiso   1.00
H604   H     0.83827   0.51618   0.34170   0.00000  Uiso   1.00
H605   H     0.76664   0.66298   0.11671   0.00000  Uiso   1.00
H606   H     0.68254   0.68760   0.13114   0.00000  Uiso   1.00
H607   H     0.69333   0.70157   0.07146   0.00000  Uiso   1.00
H608   H     0.70222   0.74367   0.11617   0.00000  Uiso   1.00
H609   H     0.95800   0.75077   0.40337   0.00000  Uiso   1.00
H610   H     0.94484   0.83013   0.41630   0.00000  Uiso   1.00
H611   H     0.90645   0.83149   0.35858   0.00000  Uiso   1.00
H612   H     0.88626   0.97253   0.19525   0.00000  Uiso   1.00
H613   H     0.97494   0.81979   0.36424   0.00000  Uiso   1.00
H614   H     0.90054   0.81237   0.16258   0.00000  Uiso   1.00
H615   H     0.97260   0.79823   0.09126   0.00000  Uiso   1.00
H616   H     0.98455   0.83170   0.14231   0.00000  Uiso   1.00
H617   H     0.93845   0.85018   0.09336   0.00000  Uiso   1.00
H618   H     0.70963   0.75230   0.37747   0.00000  Uiso   1.00
H619   H     0.71925   0.67253   0.39346   0.00000  Uiso   1.00
H620   H     0.75789   0.67239   0.34490   0.00000  Uiso   1.00
H621   H     0.68950   0.68560   0.33425   0.00000  Uiso   1.00
H622   H     0.76985   0.70015   0.02934   0.00000  Uiso   1.00
H623   H     0.91721   0.75976   0.47529   0.00000  Uiso   1.00
H624   H     0.89773   0.79499   0.03913   0.00000  Uiso   1.00
H625   H     0.75089   0.73781   0.45737   0.00000  Uiso   1.00
H626   H     0.73834   0.64335   0.26321   0.00000  Uiso   1.00
N627   N     0.83333   0.74999   0.12624   0.00000  Uiso   1.00
N628   N     0.92682   0.76756   0.38570   0.00000  Uiso   1.00
N629   N     0.91209   0.79693   0.13448   0.00000  Uiso   1.00
N630   N     0.73954   0.73547   0.36584   0.00000  Uiso   1.00
N631   N     0.83333   0.75001   0.37377   0.00000  Uiso   1.00
N632   N     0.74074   0.60919   0.26537   0.00000  Uiso   1.00
N633   N     0.90625   0.88725   0.20139   0.00000  Uiso   1.00
N634   N     0.92740   0.62322   0.24628   0.00000  Uiso   1.00
N635   N     0.76537   0.88030   0.30216   0.00000  Uiso   1.00
N636   N     0.93137   0.52752   0.25498   0.00000  Uiso   1.00
N637   N     0.77608   0.97500   0.31044   0.00000  Uiso   1.00
N638   N     0.76131   0.69641   0.12099   0.00000  Uiso   1.00
O639   O     0.83334   0.68453   0.28974   0.00000  Uiso   1.00
O640   O     0.83333   0.81546   0.21026   0.00000  Uiso   1.00
O641   O     0.83334   0.68453   0.21026   0.00000  Uiso   1.00
O642   O     0.83333   0.81547   0.28974   0.00000  Uiso   1.00
O643   O     0.75725   0.75000   0.28045   0.00000  Uiso   1.00
O644   O     0.90942   0.75000   0.21956   0.00000  Uiso   1.00
O645   O     0.75725   0.74999   0.20097   0.00000  Uiso   1.00
O646   O     0.90942   0.75000   0.29904   0.00000  Uiso   1.00
Zn647  Zn    0.83333   0.75000   0.30307   0.00000  Uiso   1.00
Zn648  Zn    0.83333   0.74999   0.19693   0.00000  Uiso   1.00
C649   C     0.16594   0.16424   0.75036   0.00000  Uiso   1.00
C650   C     0.12113   0.24251   0.94338   0.00000  Uiso   1.00
C651   C     0.16720   0.24804   0.52710   0.00000  Uiso   1.00
C652   C     0.16734   0.24820   0.97412   0.00000  Uiso   1.00
C653   C     0.06722   0.25032   0.73780   0.00000  Uiso   1.00
C654   C     0.26604   0.25156   0.76195   0.00000  Uiso   1.00
C655   C     0.01229   0.24951   0.73101   0.00000  Uiso   1.00
C656   C     0.32073   0.25631   0.76761   0.00000  Uiso   1.00
C657   C     0.12070   0.04620   0.74350   0.00000  Uiso   1.00
C658   C     0.19640   0.45403   0.71857   0.00000  Uiso   1.00
C659   C     0.12014   0.09126   0.75160   0.00000  Uiso   1.00
C660   C     0.16651   0.33593   0.74958   0.00000  Uiso   1.00
C661   C     0.19978   0.40826   0.72204   0.00000  Uiso   1.00
C662   C     0.16675   0.11658   0.75061   0.00000  Uiso   1.00
C663   C     0.16659   0.38395   0.74920   0.00000  Uiso   1.00
C664   C     0.21439   0.09628   0.74720   0.00000  Uiso   1.00
C665   C     0.13425   0.40564   0.77694   0.00000  Uiso   1.00
C666   C     0.21596   0.04956   0.74906   0.00000  Uiso   1.00
C667   C     0.13651   0.45226   0.77819   0.00000  Uiso   1.00
C668   C     0.16811   0.02478   0.74567   0.00000  Uiso   1.00
C669   C     0.16662   0.47624   0.74740   0.00000  Uiso   1.00
C670   C     0.06112   0.09016   0.80971   0.00000  Uiso   1.00
C671   C     0.13094   0.22218   0.54967   0.00000  Uiso   1.00
C672   C     0.28562   0.37814   0.73456   0.00000  Uiso   1.00
C673   C     0.27518   0.13266   0.69978   0.00000  Uiso   1.00
C674   C     0.11500   0.37266   0.85201   0.00000  Uiso   1.00
C675   C     0.28119   0.01095   0.80234   0.00000  Uiso   1.00
C676   C     0.14203   0.49134   0.85178   0.00000  Uiso   1.00
C677   C     0.04043   0.20803   0.60914   0.00000  Uiso   1.00
C678   C     0.27201   0.31473   0.88107   0.00000  Uiso   1.00
C679   C     0.28720   0.32051   0.61395   0.00000  Uiso   1.00
C680   C     0.05924   0.18896   0.85939   0.00000  Uiso   1.00
C681   C     0.21335   0.25536   0.95333   0.00000  Uiso   1.00
C682   C     0.13062   0.22394   0.59905   0.00000  Uiso   1.00
C683   C     0.21245   0.25744   0.90373   0.00000  Uiso   1.00
C684   C     0.20448   0.27388   0.60545   0.00000  Uiso   1.00
C685   C     0.12125   0.24281   0.89400   0.00000  Uiso   1.00
C686   C     0.20370   0.27405   0.55580   0.00000  Uiso   1.00
H687   H     0.32571   0.24175   0.69620   0.00000  Uiso   1.00
H688   H     0.09520   0.09335   0.83764   0.00000  Uiso   1.00
H689   H     0.04963   0.05449   0.80590   0.00000  Uiso   1.00
H690   H     0.02803   0.10736   0.82139   0.00000  Uiso   1.00
H691   H     0.24902   0.40301   0.67102   0.00000  Uiso   1.00
H692   H     0.30433   0.40982   0.74834   0.00000  Uiso   1.00
H693   H     0.31431   0.36031   0.71690   0.00000  Uiso   1.00
H694   H     0.27522   0.35677   0.76444   0.00000  Uiso   1.00
H695   H     0.29159   0.11303   0.76996   0.00000  Uiso   1.00
H696   H     0.28466   0.10155   0.68308   0.00000  Uiso   1.00
H697   H     0.31019   0.15539   0.70267   0.00000  Uiso   1.00
H698   H     0.00703   0.26591   0.80163   0.00000  Uiso   1.00
H699   H     0.24295   0.14912   0.67693   0.00000  Uiso   1.00
H700   H     0.05997   0.38838   0.79412   0.00000  Uiso   1.00
H701   H     0.10046   0.33918   0.86249   0.00000  Uiso   1.00
H702   H     0.15834   0.37404   0.86041   0.00000  Uiso   1.00
H703   H     0.09813   0.39781   0.87290   0.00000  Uiso   1.00
H704   H     0.29463   0.04337   0.73989   0.00000  Uiso   1.00
H705   H     0.25130   0.48748   0.81436   0.00000  Uiso   1.00
H706   H     0.31790   0.49255   0.80292   0.00000  Uiso   1.00
H707   H     0.28823   0.03906   0.82700   0.00000  Uiso   1.00
H708   H     0.07498   0.45994   0.81807   0.00000  Uiso   1.00
H709   H     0.08404   0.02712   0.73994   0.00000  Uiso   1.00
H710   H     0.16217   0.46341   0.87202   0.00000  Uiso   1.00
H711   H     0.11739   0.00796   0.87474   0.00000  Uiso   1.00
H712   H     0.17160   0.01618   0.84170   0.00000  Uiso   1.00
H713   H     0.09997   0.16298   0.61671   0.00000  Uiso   1.00
H714   H     0.01588   0.18760   0.63114   0.00000  Uiso   1.00
H715   H     0.02667   0.20157   0.57146   0.00000  Uiso   1.00
H716   H     0.03556   0.24367   0.61617   0.00000  Uiso   1.00
H717   H     0.29133   0.25077   0.90337   0.00000  Uiso   1.00
H718   H     0.27817   0.33013   0.91630   0.00000  Uiso   1.00
H719   H     0.23978   0.33149   0.85858   0.00000  Uiso   1.00
H720   H     0.21960   0.47253   0.69525   0.00000  Uiso   1.00
H721   H     0.30828   0.31979   0.86424   0.00000  Uiso   1.00
H722   H     0.23387   0.31237   0.66258   0.00000  Uiso   1.00
H723   H     0.30593   0.29823   0.59126   0.00000  Uiso   1.00
H724   H     0.31789   0.33170   0.64231   0.00000  Uiso   1.00
H725   H     0.27178   0.35018   0.59336   0.00000  Uiso   1.00
H726   H     0.04296   0.25230   0.87747   0.00000  Uiso   1.00
H727   H     0.05259   0.17253   0.89346   0.00000  Uiso   1.00
H728   H     0.09122   0.17239   0.84490   0.00000  Uiso   1.00
H729   H     0.02283   0.18560   0.83425   0.00000  Uiso   1.00
H730   H     0.10319   0.20015   0.52934   0.00000  Uiso   1.00
H731   H     0.25055   0.25976   0.97529   0.00000  Uiso   1.00
H732   H     0.23107   0.29499   0.53913   0.00000  Uiso   1.00
H733   H     0.08423   0.23781   0.95737   0.00000  Uiso   1.00
H734   H     0.07167   0.14335   0.76321   0.00000  Uiso   1.00
N735   N     0.16667   0.24999   0.62624   0.00000  Uiso   1.00
N736   N     0.26015   0.26756   0.88570   0.00000  Uiso   1.00
N737   N     0.24542   0.29693   0.63448   0.00000  Uiso   1.00
N738   N     0.07287   0.23547   0.86584   0.00000  Uiso   1.00
N739   N     0.16667   0.25001   0.87377   0.00000  Uiso   1.00
N740   N     0.07408   0.10919   0.76537   0.00000  Uiso   1.00
N741   N     0.23959   0.38725   0.70139   0.00000  Uiso   1.00
N742   N     0.26073   0.12322   0.74628   0.00000  Uiso   1.00
N743   N     0.09870   0.38030   0.80216   0.00000  Uiso   1.00
N744   N     0.26471   0.02752   0.75498   0.00000  Uiso   1.00
N745   N     0.10942   0.47500   0.81044   0.00000  Uiso   1.00
N746   N     0.09464   0.19641   0.62099   0.00000  Uiso   1.00
O747   O     0.16667   0.18453   0.78974   0.00000  Uiso   1.00
O748   O     0.16666   0.31546   0.71026   0.00000  Uiso   1.00
O749   O     0.16667   0.18453   0.71026   0.00000  Uiso   1.00
O750   O     0.16666   0.31547   0.78974   0.00000  Uiso   1.00
O751   O     0.09058   0.25000   0.78045   0.00000  Uiso   1.00
O752   O     0.24275   0.25000   0.71956   0.00000  Uiso   1.00
O753   O     0.09058   0.24999   0.70097   0.00000  Uiso   1.00
O754   O     0.24275   0.25000   0.79904   0.00000  Uiso   1.00
Zn755  Zn    0.16667   0.25000   0.80307   0.00000  Uiso   1.00
Zn756  Zn    0.16667   0.24999   0.69693   0.00000  Uiso   1.00
C757   C     0.49927   0.16424   0.75036   0.00000  Uiso   1.00
C758   C     0.45446   0.24251   0.94338   0.00000  Uiso   1.00
C759   C     0.50053   0.24804   0.52710   0.00000  Uiso   1.00
C760   C     0.50068   0.24820   0.97412   0.00000  Uiso   1.00
C761   C     0.40056   0.25032   0.73780   0.00000  Uiso   1.00
C762   C     0.59937   0.25156   0.76195   0.00000  Uiso   1.00
C763   C     0.34562   0.24951   0.73101   0.00000  Uiso   1.00
C764   C     0.65407   0.25631   0.76761   0.00000  Uiso   1.00
C765   C     0.45403   0.04620   0.74350   0.00000  Uiso   1.00
C766   C     0.52973   0.45403   0.71857   0.00000  Uiso   1.00
C767   C     0.45348   0.09126   0.75160   0.00000  Uiso   1.00
C768   C     0.49984   0.33593   0.74958   0.00000  Uiso   1.00
C769   C     0.53312   0.40826   0.72204   0.00000  Uiso   1.00
C770   C     0.50009   0.11658   0.75061   0.00000  Uiso   1.00
C771   C     0.49992   0.38395   0.74920   0.00000  Uiso   1.00
C772   C     0.54772   0.09628   0.74720   0.00000  Uiso   1.00
C773   C     0.46758   0.40564   0.77694   0.00000  Uiso   1.00
C774   C     0.54930   0.04956   0.74906   0.00000  Uiso   1.00
C775   C     0.46984   0.45226   0.77819   0.00000  Uiso   1.00
C776   C     0.50144   0.02478   0.74567   0.00000  Uiso   1.00
C777   C     0.49995   0.47624   0.74740   0.00000  Uiso   1.00
C778   C     0.39445   0.09016   0.80971   0.00000  Uiso   1.00
C779   C     0.46428   0.22218   0.54967   0.00000  Uiso   1.00
C780   C     0.61895   0.37814   0.73456   0.00000  Uiso   1.00
C781   C     0.60852   0.13266   0.69978   0.00000  Uiso   1.00
C782   C     0.44834   0.37266   0.85201   0.00000  Uiso   1.00
C783   C     0.61453   0.01095   0.80234   0.00000  Uiso   1.00
C784   C     0.47536   0.49134   0.85178   0.00000  Uiso   1.00
C785   C     0.37376   0.20803   0.60914   0.00000  Uiso   1.00
C786   C     0.60535   0.31473   0.88107   0.00000  Uiso   1.00
C787   C     0.62053   0.32051   0.61395   0.00000  Uiso   1.00
C788   C     0.39258   0.18896   0.85939   0.00000  Uiso   1.00
C789   C     0.54668   0.25536   0.95333   0.00000  Uiso   1.00
C790   C     0.46395   0.22394   0.59905   0.00000  Uiso   1.00
C791   C     0.54578   0.25744   0.90373   0.00000  Uiso   1.00
C792   C     0.53781   0.27388   0.60545   0.00000  Uiso   1.00
C793   C     0.45458   0.24281   0.89400   0.00000  Uiso   1.00
C794   C     0.53703   0.27405   0.55580   0.00000  Uiso   1.00
H795   H     0.65905   0.24175   0.69620   0.00000  Uiso   1.00
H796   H     0.42853   0.09335   0.83764   0.00000  Uiso   1.00
H797   H     0.38296   0.05449   0.80590   0.00000  Uiso   1.00
H798   H     0.36137   0.10736   0.82139   0.00000  Uiso   1.00
H799   H     0.58236   0.40301   0.67102   0.00000  Uiso   1.00
H800   H     0.63767   0.40982   0.74834   0.00000  Uiso   1.00
H801   H     0.64764   0.36031   0.71690   0.00000  Uiso   1.00
H802   H     0.60856   0.35677   0.76444   0.00000  Uiso   1.00
H803   H     0.62492   0.11303   0.76996   0.00000  Uiso   1.00
H804   H     0.61799   0.10155   0.68308   0.00000  Uiso   1.00
H805   H     0.64352   0.15539   0.70267   0.00000  Uiso   1.00
H806   H     0.34036   0.26591   0.80163   0.00000  Uiso   1.00
H807   H     0.57628   0.14912   0.67693   0.00000  Uiso   1.00
H808   H     0.39330   0.38838   0.79412   0.00000  Uiso   1.00
H809   H     0.43379   0.33918   0.86249   0.00000  Uiso   1.00
H810   H     0.49168   0.37404   0.86041   0.00000  Uiso   1.00
H811   H     0.43146   0.39781   0.87290   0.00000  Uiso   1.00
H812   H     0.62796   0.04337   0.73989   0.00000  Uiso   1.00
H813   H     0.58463   0.48748   0.81436   0.00000  Uiso   1.00
H814   H     0.65123   0.49255   0.80292   0.00000  Uiso   1.00
H815   H     0.62156   0.03906   0.82700   0.00000  Uiso   1.00
H816   H     0.40831   0.45994   0.81807   0.00000  Uiso   1.00
H817   H     0.41737   0.02712   0.73994   0.00000  Uiso   1.00
H818   H     0.49550   0.46341   0.87202   0.00000  Uiso   1.00
H819   H     0.45072   0.00796   0.87474   0.00000  Uiso   1.00
H820   H     0.50493   0.01618   0.84170   0.00000  Uiso   1.00
H821   H     0.43331   0.16298   0.61671   0.00000  Uiso   1.00
H822   H     0.34921   0.18760   0.63114   0.00000  Uiso   1.00
H823   H     0.36000   0.20157   0.57146   0.00000  Uiso   1.00
H824   H     0.36889   0.24367   0.61617   0.00000  Uiso   1.00
H825   H     0.62466   0.25077   0.90337   0.00000  Uiso   1.00
H826   H     0.61150   0.33013   0.91630   0.00000  Uiso   1.00
H827   H     0.57312   0.33149   0.85858   0.00000  Uiso   1.00
H828   H     0.55293   0.47253   0.69525   0.00000  Uiso   1.00
H829   H     0.64161   0.31979   0.86424   0.00000  Uiso   1.00
H830   H     0.56720   0.31237   0.66258   0.00000  Uiso   1.00
H831   H     0.63927   0.29823   0.59126   0.00000  Uiso   1.00
H832   H     0.65122   0.33170   0.64231   0.00000  Uiso   1.00
H833   H     0.60512   0.35018   0.59336   0.00000  Uiso   1.00
H834   H     0.37630   0.25230   0.87747   0.00000  Uiso   1.00
H835   H     0.38592   0.17253   0.89346   0.00000  Uiso   1.00
H836   H     0.42456   0.17239   0.84490   0.00000  Uiso   1.00
H837   H     0.35617   0.18560   0.83425   0.00000  Uiso   1.00
H838   H     0.43652   0.20015   0.52934   0.00000  Uiso   1.00
H839   H     0.58388   0.25976   0.97529   0.00000  Uiso   1.00
H840   H     0.56440   0.29499   0.53913   0.00000  Uiso   1.00
H841   H     0.41756   0.23781   0.95737   0.00000  Uiso   1.00
H842   H     0.40501   0.14335   0.76321   0.00000  Uiso   1.00
N843   N     0.50000   0.24999   0.62624   0.00000  Uiso   1.00
N844   N     0.59348   0.26756   0.88570   0.00000  Uiso   1.00
N845   N     0.57875   0.29693   0.63448   0.00000  Uiso   1.00
N846   N     0.40620   0.23547   0.86584   0.00000  Uiso   1.00
N847   N     0.50000   0.25001   0.87377   0.00000  Uiso   1.00
N848   N     0.40741   0.10919   0.76537   0.00000  Uiso   1.00
N849   N     0.57292   0.38725   0.70139   0.00000  Uiso   1.00
N850   N     0.59406   0.12322   0.74628   0.00000  Uiso   1.00
N851   N     0.43204   0.38030   0.80216   0.00000  Uiso   1.00
N852   N     0.59804   0.02752   0.75498   0.00000  Uiso   1.00
N853   N     0.44275   0.47500   0.81044   0.00000  Uiso   1.00
N854   N     0.42798   0.19641   0.62099   0.00000  Uiso   1.00
O855   O     0.50000   0.18453   0.78974   0.00000  Uiso   1.00
O856   O     0.50000   0.31546   0.71026   0.00000  Uiso   1.00
O857   O     0.50000   0.18453   0.71026   0.00000  Uiso   1.00
O858   O     0.50000   0.31547   0.78974   0.00000  Uiso   1.00
O859   O     0.42392   0.25000   0.78045   0.00000  Uiso   1.00
O860   O     0.57608   0.25000   0.71956   0.00000  Uiso   1.00
O861   O     0.42392   0.24999   0.70097   0.00000  Uiso   1.00
O862   O     0.57608   0.25000   0.79904   0.00000  Uiso   1.00
Zn863  Zn    0.50000   0.25000   0.80307   0.00000  Uiso   1.00
Zn864  Zn    0.50000   0.24999   0.69693   0.00000  Uiso   1.00
C865   C     0.83261   0.16424   0.75036   0.00000  Uiso   1.00
C866   C     0.78780   0.24251   0.94338   0.00000  Uiso   1.00
C867   C     0.83386   0.24804   0.52710   0.00000  Uiso   1.00
C868   C     0.83401   0.24820   0.97412   0.00000  Uiso   1.00
C869   C     0.73389   0.25032   0.73780   0.00000  Uiso   1.00
C870   C     0.93271   0.25156   0.76195   0.00000  Uiso   1.00
C871   C     0.67896   0.24951   0.73101   0.00000  Uiso   1.00
C872   C     0.98740   0.25631   0.76761   0.00000  Uiso   1.00
C873   C     0.78736   0.04620   0.74350   0.00000  Uiso   1.00
C874   C     0.86307   0.45403   0.71857   0.00000  Uiso   1.00
C875   C     0.78681   0.09126   0.75160   0.00000  Uiso   1.00
C876   C     0.83318   0.33593   0.74958   0.00000  Uiso   1.00
C877   C     0.86645   0.40826   0.72204   0.00000  Uiso   1.00
C878   C     0.83342   0.11658   0.75061   0.00000  Uiso   1.00
C879   C     0.83325   0.38395   0.74920   0.00000  Uiso   1.00
C880   C     0.88106   0.09628   0.74720   0.00000  Uiso   1.00
C881   C     0.80092   0.40564   0.77694   0.00000  Uiso   1.00
C882   C     0.88263   0.04956   0.74906   0.00000  Uiso   1.00
C883   C     0.80318   0.45226   0.77819   0.00000  Uiso   1.00
C884   C     0.83478   0.02478   0.74567   0.00000  Uiso   1.00
C885   C     0.83328   0.47624   0.74740   0.00000  Uiso   1.00
C886   C     0.72779   0.09016   0.80971   0.00000  Uiso   1.00
C887   C     0.79761   0.22218   0.54967   0.00000  Uiso   1.00
C888   C     0.95229   0.37814   0.73456   0.00000  Uiso   1.00
C889   C     0.94185   0.13266   0.69978   0.00000  Uiso   1.00
C890   C     0.78167   0.37266   0.85201   0.00000  Uiso   1.00
C891   C     0.94786   0.01095   0.80234   0.00000  Uiso   1.00
C892   C     0.80869   0.49134   0.85178   0.00000  Uiso   1.00
C893   C     0.70709   0.20803   0.60914   0.00000  Uiso   1.00
C894   C     0.93868   0.31473   0.88107   0.00000  Uiso   1.00
C895   C     0.95386   0.32051   0.61395   0.00000  Uiso   1.00
C896   C     0.72591   0.18896   0.85939   0.00000  Uiso   1.00
C897   C     0.88002   0.25536   0.95333   0.00000  Uiso   1.00
C898   C     0.79729   0.22394   0.59905   0.00000  Uiso   1.00
C899   C     0.87911   0.25744   0.90373   0.00000  Uiso   1.00
C900   C     0.87114   0.27388   0.60545   0.00000  Uiso   1.00
C901   C     0.78791   0.24281   0.89400   0.00000  Uiso   1.00
C902   C     0.87036   0.27405   0.55580   0.00000  Uiso   1.00
H903   H     0.99238   0.24175   0.69620   0.00000  Uiso   1.00
H904   H     0.76187   0.09335   0.83764   0.00000  Uiso   1.00
H905   H     0.71630   0.05449   0.80590   0.00000  Uiso   1.00
H906   H     0.69470   0.10736   0.82139   0.00000  Uiso   1.00
H907   H     0.91569   0.40301   0.67102   0.00000  Uiso   1.00
H908   H     0.97100   0.40982   0.74834   0.00000  Uiso   1.00
H909   H     0.98097   0.36031   0.71690   0.00000  Uiso   1.00
H910   H     0.94189   0.35677   0.76444   0.00000  Uiso   1.00
H911   H     0.95826   0.11303   0.76996   0.00000  Uiso   1.00
H912   H     0.95133   0.10155   0.68308   0.00000  Uiso   1.00
H913   H     0.97686   0.15539   0.70267   0.00000  Uiso   1.00
H914   H     0.67369   0.26591   0.80163   0.00000  Uiso   1.00
H915   H     0.90962   0.14912   0.67693   0.00000  Uiso   1.00
H916   H     0.72664   0.38838   0.79412   0.00000  Uiso   1.00
H917   H     0.76712   0.33918   0.86249   0.00000  Uiso   1.00
H918   H     0.82501   0.37404   0.86041   0.00000  Uiso   1.00
H919   H     0.76480   0.39781   0.87290   0.00000  Uiso   1.00
H920   H     0.96130   0.04337   0.73989   0.00000  Uiso   1.00
H921   H     0.91797   0.48748   0.81436   0.00000  Uiso   1.00
H922   H     0.98457   0.49255   0.80292   0.00000  Uiso   1.00
H923   H     0.95489   0.03906   0.82700   0.00000  Uiso   1.00
H924   H     0.74164   0.45994   0.81807   0.00000  Uiso   1.00
H925   H     0.75070   0.02712   0.73994   0.00000  Uiso   1.00
H926   H     0.82883   0.46341   0.87202   0.00000  Uiso   1.00
H927   H     0.78406   0.00796   0.87474   0.00000  Uiso   1.00
H928   H     0.83827   0.01618   0.84170   0.00000  Uiso   1.00
H929   H     0.76664   0.16298   0.61671   0.00000  Uiso   1.00
H930   H     0.68254   0.18760   0.63114   0.00000  Uiso   1.00
H931   H     0.69333   0.20157   0.57146   0.00000  Uiso   1.00
H932   H     0.70222   0.24367   0.61617   0.00000  Uiso   1.00
H933   H     0.95800   0.25077   0.90337   0.00000  Uiso   1.00
H934   H     0.94484   0.33013   0.91630   0.00000  Uiso   1.00
H935   H     0.90645   0.33149   0.85858   0.00000  Uiso   1.00
H936   H     0.88626   0.47253   0.69525   0.00000  Uiso   1.00
H937   H     0.97494   0.31979   0.86424   0.00000  Uiso   1.00
H938   H     0.90054   0.31237   0.66258   0.00000  Uiso   1.00
H939   H     0.97260   0.29823   0.59126   0.00000  Uiso   1.00
H940   H     0.98455   0.33170   0.64231   0.00000  Uiso   1.00
H941   H     0.93845   0.35018   0.59336   0.00000  Uiso   1.00
H942   H     0.70963   0.25230   0.87747   0.00000  Uiso   1.00
H943   H     0.71925   0.17253   0.89346   0.00000  Uiso   1.00
H944   H     0.75789   0.17239   0.84490   0.00000  Uiso   1.00
H945   H     0.68950   0.18560   0.83425   0.00000  Uiso   1.00
H946   H     0.76985   0.20015   0.52934   0.00000  Uiso   1.00
H947   H     0.91721   0.25976   0.97529   0.00000  Uiso   1.00
H948   H     0.89773   0.29499   0.53913   0.00000  Uiso   1.00
H949   H     0.75089   0.23781   0.95737   0.00000  Uiso   1.00
H950   H     0.73834   0.14335   0.76321   0.00000  Uiso   1.00
N951   N     0.83333   0.24999   0.62624   0.00000  Uiso   1.00
N952   N     0.92682   0.26756   0.88570   0.00000  Uiso   1.00
N953   N     0.91209   0.29693   0.63448   0.00000  Uiso   1.00
N954   N     0.73954   0.23547   0.86584   0.00000  Uiso   1.00
N955   N     0.83333   0.25001   0.87377   0.00000  Uiso   1.00
N956   N     0.74074   0.10919   0.76537   0.00000  Uiso   1.00
N957   N     0.90625   0.38725   0.70139   0.00000  Uiso   1.00
N958   N     0.92740   0.12322   0.74628   0.00000  Uiso   1.00
N959   N     0.76537   0.38030   0.80216   0.00000  Uiso   1.00
N960   N     0.93137   0.02752   0.75498   0.00000  Uiso   1.00
N961   N     0.77608   0.47500   0.81044   0.00000  Uiso   1.00
N962   N     0.76131   0.19641   0.62099   0.00000  Uiso   1.00
O963   O     0.83334   0.18453   0.78974   0.00000  Uiso   1.00
O964   O     0.83333   0.31546   0.71026   0.00000  Uiso   1.00
O965   O     0.83334   0.18453   0.71026   0.00000  Uiso   1.00
O966   O     0.83333   0.31547   0.78974   0.00000  Uiso   1.00
O967   O     0.75725   0.25000   0.78045   0.00000  Uiso   1.00
O968   O     0.90942   0.25000   0.71956   0.00000  Uiso   1.00
O969   O     0.75725   0.24999   0.70097   0.00000  Uiso   1.00
O970   O     0.90942   0.25000   0.79904   0.00000  Uiso   1.00
Zn971  Zn    0.83333   0.25000   0.80307   0.00000  Uiso   1.00
Zn972  Zn    0.83333   0.24999   0.69693   0.00000  Uiso   1.00
C973   C     0.16594   0.66424   0.75036   0.00000  Uiso   1.00
C974   C     0.12113   0.74251   0.94338   0.00000  Uiso   1.00
C975   C     0.16720   0.74804   0.52710   0.00000  Uiso   1.00
C976   C     0.16734   0.74820   0.97412   0.00000  Uiso   1.00
C977   C     0.06722   0.75032   0.73780   0.00000  Uiso   1.00
C978   C     0.26604   0.75156   0.76195   0.00000  Uiso   1.00
C979   C     0.01229   0.74951   0.73101   0.00000  Uiso   1.00
C980   C     0.32073   0.75631   0.76761   0.00000  Uiso   1.00
C981   C     0.12070   0.54620   0.74350   0.00000  Uiso   1.00
C982   C     0.19640   0.95403   0.71857   0.00000  Uiso   1.00
C983   C     0.12014   0.59126   0.75160   0.00000  Uiso   1.00
C984   C     0.16651   0.83593   0.74958   0.00000  Uiso   1.00
C985   C     0.19978   0.90826   0.72204   0.00000  Uiso   1.00
C986   C     0.16675   0.61658   0.75061   0.00000  Uiso   1.00
C987   C     0.16659   0.88395   0.74920   0.00000  Uiso   1.00
C988   C     0.21439   0.59628   0.74720   0.00000  Uiso   1.00
C989   C     0.13425   0.90564   0.77694   0.00000  Uiso   1.00
C990   C     0.21596   0.54956   0.74906   0.00000  Uiso   1.00
C991   C     0.13651   0.95226   0.77819   0.00000  Uiso   1.00
C992   C     0.16811   0.52478   0.74567   0.00000  Uiso   1.00
C993   C     0.16662   0.97624   0.74740   0.00000  Uiso   1.00
C994   C     0.06112   0.59016   0.80971   0.00000  Uiso   1.00
C995   C     0.13094   0.72218   0.54967   0.00000  Uiso   1.00
C996   C     0.28562   0.87814   0.73456   0.00000  Uiso   1.00
C997   C     0.27518   0.63266   0.69978   0.00000  Uiso   1.00
C998   C     0.11500   0.87266   0.85201   0.00000  Uiso   1.00
C999   C     0.28119   0.51095   0.80234   0.00000  Uiso   1.00
C1000  C     0.14203   0.99134   0.85178   0.00000  Uiso   1.00
C1001  C     0.04043   0.70803   0.60914   0.00000  Uiso   1.00
C1002  C     0.27201   0.81473   0.88107   0.00000  Uiso   1.00
C1003  C     0.28720   0.82051   0.61395   0.00000  Uiso   1.00
C1004  C     0.05924   0.68896   0.85939   0.00000  Uiso   1.00
C1005  C     0.21335   0.75536   0.95333   0.00000  Uiso   1.00
C1006  C     0.13062   0.72394   0.59905   0.00000  Uiso   1.00
C1007  C     0.21245   0.75744   0.90373   0.00000  Uiso   1.00
C1008  C     0.20448   0.77388   0.60545   0.00000  Uiso   1.00
C1009  C     0.12125   0.74281   0.89400   0.00000  Uiso   1.00
C1010  C     0.20370   0.77405   0.55580   0.00000  Uiso   1.00
H1011  H     0.32571   0.74175   0.69620   0.00000  Uiso   1.00
H1012  H     0.09520   0.59335   0.83764   0.00000  Uiso   1.00
H1013  H     0.04963   0.55449   0.80590   0.00000  Uiso   1.00
H1014  H     0.02803   0.60736   0.82139   0.00000  Uiso   1.00
H1015  H     0.24902   0.90301   0.67102   0.00000  Uiso   1.00
H1016  H     0.30433   0.90982   0.74834   0.00000  Uiso   1.00
H1017  H     0.31431   0.86031   0.71690   0.00000  Uiso   1.00
H1018  H     0.27522   0.85677   0.76444   0.00000  Uiso   1.00
H1019  H     0.29159   0.61303   0.76996   0.00000  Uiso   1.00
H1020  H     0.28466   0.60155   0.68308   0.00000  Uiso   1.00
H1021  H     0.31019   0.65539   0.70267   0.00000  Uiso   1.00
H1022  H     0.00703   0.76591   0.80163   0.00000  Uiso   1.00
H1023  H     0.24295   0.64912   0.67693   0.00000  Uiso   1.00
H1024  H     0.05997   0.88838   0.79412   0.00000  Uiso   1.00
H1025  H     0.10046   0.83918   0.86249   0.00000  Uiso   1.00
H1026  H     0.15834   0.87404   0.86041   0.00000  Uiso   1.00
H1027  H     0.09813   0.89781   0.87290   0.00000  Uiso   1.00
H1028  H     0.29463   0.54337   0.73989   0.00000  Uiso   1.00
H1029  H     0.25130   0.98748   0.81436   0.00000  Uiso   1.00
H1030  H     0.31790   0.99255   0.80292   0.00000  Uiso   1.00
H1031  H     0.28823   0.53906   0.82700   0.00000  Uiso   1.00
H1032  H     0.07498   0.95994   0.81807   0.00000  Uiso   1.00
H1033  H     0.08404   0.52712   0.73994   0.00000  Uiso   1.00
H1034  H     0.16217   0.96341   0.87202   0.00000  Uiso   1.00
H1035  H     0.11739   0.50796   0.87474   0.00000  Uiso   1.00
H1036  H     0.17160   0.51618   0.84170   0.00000  Uiso   1.00
H1037  H     0.09997   0.66298   0.61671   0.00000  Uiso   1.00
H1038  H     0.01588   0.68760   0.63114   0.00000  Uiso   1.00
H1039  H     0.02667   0.70157   0.57146   0.00000  Uiso   1.00
H1040  H     0.03556   0.74367   0.61617   0.00000  Uiso   1.00
H1041  H     0.29133   0.75077   0.90337   0.00000  Uiso   1.00
H1042  H     0.27817   0.83013   0.91630   0.00000  Uiso   1.00
H1043  H     0.23978   0.83149   0.85858   0.00000  Uiso   1.00
H1044  H     0.21960   0.97253   0.69525   0.00000  Uiso   1.00
H1045  H     0.30828   0.81979   0.86424   0.00000  Uiso   1.00
H1046  H     0.23387   0.81237   0.66258   0.00000  Uiso   1.00
H1047  H     0.30593   0.79823   0.59126   0.00000  Uiso   1.00
H1048  H     0.31789   0.83170   0.64231   0.00000  Uiso   1.00
H1049  H     0.27178   0.85018   0.59336   0.00000  Uiso   1.00
H1050  H     0.04296   0.75230   0.87747   0.00000  Uiso   1.00
H1051  H     0.05259   0.67253   0.89346   0.00000  Uiso   1.00
H1052  H     0.09122   0.67239   0.84490   0.00000  Uiso   1.00
H1053  H     0.02283   0.68560   0.83425   0.00000  Uiso   1.00
H1054  H     0.10319   0.70015   0.52934   0.00000  Uiso   1.00
H1055  H     0.25055   0.75976   0.97529   0.00000  Uiso   1.00
H1056  H     0.23107   0.79499   0.53913   0.00000  Uiso   1.00
H1057  H     0.08423   0.73781   0.95737   0.00000  Uiso   1.00
H1058  H     0.07167   0.64335   0.76321   0.00000  Uiso   1.00
N1059  N     0.16667   0.74999   0.62624   0.00000  Uiso   1.00
N1060  N     0.26015   0.76756   0.88570   0.00000  Uiso   1.00
N1061  N     0.24542   0.79693   0.63448   0.00000  Uiso   1.00
N1062  N     0.07287   0.73547   0.86584   0.00000  Uiso   1.00
N1063  N     0.16667   0.75001   0.87377   0.00000  Uiso   1.00
N1064  N     0.07408   0.60919   0.76537   0.00000  Uiso   1.00
N1065  N     0.23959   0.88725   0.70139   0.00000  Uiso   1.00
N1066  N     0.26073   0.62322   0.74628   0.00000  Uiso   1.00
N1067  N     0.09870   0.88030   0.80216   0.00000  Uiso   1.00
N1068  N     0.26471   0.52752   0.75498   0.00000  Uiso   1.00
N1069  N     0.10942   0.97500   0.81044   0.00000  Uiso   1.00
N1070  N     0.09464   0.69641   0.62099   0.00000  Uiso   1.00
O1071  O     0.16667   0.68453   0.78974   0.00000  Uiso   1.00
O1072  O     0.16666   0.81546   0.71026   0.00000  Uiso   1.00
O1073  O     0.16667   0.68453   0.71026   0.00000  Uiso   1.00
O1074  O     0.16666   0.81547   0.78974   0.00000  Uiso   1.00
O1075  O     0.09058   0.75000   0.78045   0.00000  Uiso   1.00
O1076  O     0.24275   0.75000   0.71956   0.00000  Uiso   1.00
O1077  O     0.09058   0.74999   0.70097   0.00000  Uiso   1.00
O1078  O     0.24275   0.75000   0.79904   0.00000  Uiso   1.00
Zn1079 Zn    0.16667   0.75000   0.80307   0.00000  Uiso   1.00
Zn1080 Zn    0.16667   0.74999   0.69693   0.00000  Uiso   1.00
C1081  C     0.49927   0.66424   0.75036   0.00000  Uiso   1.00
C1082  C     0.45446   0.74251   0.94338   0.00000  Uiso   1.00
C1083  C     0.50053   0.74804   0.52710   0.00000  Uiso   1.00
C1084  C     0.50068   0.74820   0.97412   0.00000  Uiso   1.00
C1085  C     0.40056   0.75032   0.73780   0.00000  Uiso   1.00
C1086  C     0.59937   0.75156   0.76195   0.00000  Uiso   1.00
C1087  C     0.34562   0.74951   0.73101   0.00000  Uiso   1.00
C1088  C     0.65407   0.75631   0.76761   0.00000  Uiso   1.00
C1089  C     0.45403   0.54620   0.74350   0.00000  Uiso   1.00
C1090  C     0.52973   0.95403   0.71857   0.00000  Uiso   1.00
C1091  C     0.45348   0.59126   0.75160   0.00000  Uiso   1.00
C1092  C     0.49984   0.83593   0.74958   0.00000  Uiso   1.00
C1093  C     0.53312   0.90826   0.72204   0.00000  Uiso   1.00
C1094  C     0.50009   0.61658   0.75061   0.00000  Uiso   1.00
C1095  C     0.49992   0.88395   0.74920   0.00000  Uiso   1.00
C1096  C     0.54772   0.59628   0.74720   0.00000  Uiso   1.00
C1097  C     0.46758   0.90564   0.77694   0.00000  Uiso   1.00
C1098  C     0.54930   0.54956   0.74906   0.00000  Uiso   1.00
C1099  C     0.46984   0.95226   0.77819   0.00000  Uiso   1.00
C1100  C     0.50144   0.52478   0.74567   0.00000  Uiso   1.00
C1101  C     0.49995   0.97624   0.74740   0.00000  Uiso   1.00
C1102  C     0.39445   0.59016   0.80971   0.00000  Uiso   1.00
C1103  C     0.46428   0.72218   0.54967   0.00000  Uiso   1.00
C1104  C     0.61895   0.87814   0.73456   0.00000  Uiso   1.00
C1105  C     0.60852   0.63266   0.69978   0.00000  Uiso   1.00
C1106  C     0.44834   0.87266   0.85201   0.00000  Uiso   1.00
C1107  C     0.61453   0.51095   0.80234   0.00000  Uiso   1.00
C1108  C     0.47536   0.99134   0.85178   0.00000  Uiso   1.00
C1109  C     0.37376   0.70803   0.60914   0.00000  Uiso   1.00
C1110  C     0.60535   0.81473   0.88107   0.00000  Uiso   1.00
C1111  C     0.62053   0.82051   0.61395   0.00000  Uiso   1.00
C1112  C     0.39258   0.68896   0.85939   0.00000  Uiso   1.00
C1113  C     0.54668   0.75536   0.95333   0.00000  Uiso   1.00
C1114  C     0.46395   0.72394   0.59905   0.00000  Uiso   1.00
C1115  C     0.54578   0.75744   0.90373   0.00000  Uiso   1.00
C1116  C     0.53781   0.77388   0.60545   0.00000  Uiso   1.00
C1117  C     0.45458   0.74281   0.89400   0.00000  Uiso   1.00
C1118  C     0.53703   0.77405   0.55580   0.00000  Uiso   1.00
H1119  H     0.65905   0.74175   0.69620   0.00000  Uiso   1.00
H1120  H     0.42853   0.59335   0.83764   0.00000  Uiso   1.00
H1121  H     0.38296   0.55449   0.80590   0.00000  Uiso   1.00
H1122  H     0.36137   0.60736   0.82139   0.00000  Uiso   1.00
H1123  H     0.58236   0.90301   0.67102   0.00000  Uiso   1.00
H1124  H     0.63767   0.90982   0.74834   0.00000  Uiso   1.00
H1125  H     0.64764   0.86031   0.71690   0.00000  Uiso   1.00
H1126  H     0.60856   0.85677   0.76444   0.00000  Uiso   1.00
H1127  H     0.62492   0.61303   0.76996   0.00000  Uiso   1.00
H1128  H     0.61799   0.60155   0.68308   0.00000  Uiso   1.00
H1129  H     0.64352   0.65539   0.70267   0.00000  Uiso   1.00
H1130  H     0.34036   0.76591   0.80163   0.00000  Uiso   1.00
H1131  H     0.57628   0.64912   0.67693   0.00000  Uiso   1.00
H1132  H     0.39330   0.88838   0.79412   0.00000  Uiso   1.00
H1133  H     0.43379   0.83918   0.86249   0.00000  Uiso   1.00
H1134  H     0.49168   0.87404   0.86041   0.00000  Uiso   1.00
H1135  H     0.43146   0.89781   0.87290   0.00000  Uiso   1.00
H1136  H     0.62796   0.54337   0.73989   0.00000  Uiso   1.00
H1137  H     0.58463   0.98748   0.81436   0.00000  Uiso   1.00
H1138  H     0.65123   0.99255   0.80292   0.00000  Uiso   1.00
H1139  H     0.62156   0.53906   0.82700   0.00000  Uiso   1.00
H1140  H     0.40831   0.95994   0.81807   0.00000  Uiso   1.00
H1141  H     0.41737   0.52712   0.73994   0.00000  Uiso   1.00
H1142  H     0.49550   0.96341   0.87202   0.00000  Uiso   1.00
H1143  H     0.45072   0.50796   0.87474   0.00000  Uiso   1.00
H1144  H     0.50493   0.51618   0.84170   0.00000  Uiso   1.00
H1145  H     0.43331   0.66298   0.61671   0.00000  Uiso   1.00
H1146  H     0.34921   0.68760   0.63114   0.00000  Uiso   1.00
H1147  H     0.36000   0.70157   0.57146   0.00000  Uiso   1.00
H1148  H     0.36889   0.74367   0.61617   0.00000  Uiso   1.00
H1149  H     0.62466   0.75077   0.90337   0.00000  Uiso   1.00
H1150  H     0.61150   0.83013   0.91630   0.00000  Uiso   1.00
H1151  H     0.57312   0.83149   0.85858   0.00000  Uiso   1.00
H1152  H     0.55293   0.97253   0.69525   0.00000  Uiso   1.00
H1153  H     0.64161   0.81979   0.86424   0.00000  Uiso   1.00
H1154  H     0.56720   0.81237   0.66258   0.00000  Uiso   1.00
H1155  H     0.63927   0.79823   0.59126   0.00000  Uiso   1.00
H1156  H     0.65122   0.83170   0.64231   0.00000  Uiso   1.00
H1157  H     0.60512   0.85018   0.59336   0.00000  Uiso   1.00
H1158  H     0.37630   0.75230   0.87747   0.00000  Uiso   1.00
H1159  H     0.38592   0.67253   0.89346   0.00000  Uiso   1.00
H1160  H     0.42456   0.67239   0.84490   0.00000  Uiso   1.00
H1161  H     0.35617   0.68560   0.83425   0.00000  Uiso   1.00
H1162  H     0.43652   0.70015   0.52934   0.00000  Uiso   1.00
H1163  H     0.58388   0.75976   0.97529   0.00000  Uiso   1.00
H1164  H     0.56440   0.79499   0.53913   0.00000  Uiso   1.00
H1165  H     0.41756   0.73781   0.95737   0.00000  Uiso   1.00
H1166  H     0.40501   0.64335   0.76321   0.00000  Uiso   1.00
N1167  N     0.50000   0.74999   0.62624   0.00000  Uiso   1.00
N1168  N     0.59348   0.76756   0.88570   0.00000  Uiso   1.00
N1169  N     0.57875   0.79693   0.63448   0.00000  Uiso   1.00
N1170  N     0.40620   0.73547   0.86584   0.00000  Uiso   1.00
N1171  N     0.50000   0.75001   0.87377   0.00000  Uiso   1.00
N1172  N     0.40741   0.60919   0.76537   0.00000  Uiso   1.00
N1173  N     0.57292   0.88725   0.70139   0.00000  Uiso   1.00
N1174  N     0.59406   0.62322   0.74628   0.00000  Uiso   1.00
N1175  N     0.43204   0.88030   0.80216   0.00000  Uiso   1.00
N1176  N     0.59804   0.52752   0.75498   0.00000  Uiso   1.00
N1177  N     0.44275   0.97500   0.81044   0.00000  Uiso   1.00
N1178  N     0.42798   0.69641   0.62099   0.00000  Uiso   1.00
O1179  O     0.50000   0.68453   0.78974   0.00000  Uiso   1.00
O1180  O     0.50000   0.81546   0.71026   0.00000  Uiso   1.00
O1181  O     0.50000   0.68453   0.71026   0.00000  Uiso   1.00
O1182  O     0.50000   0.81547   0.78974   0.00000  Uiso   1.00
O1183  O     0.42392   0.75000   0.78045   0.00000  Uiso   1.00
O1184  O     0.57608   0.75000   0.71956   0.00000  Uiso   1.00
O1185  O     0.42392   0.74999   0.70097   0.00000  Uiso   1.00
O1186  O     0.57608   0.75000   0.79904   0.00000  Uiso   1.00
Zn1187 Zn    0.50000   0.75000   0.80307   0.00000  Uiso   1.00
Zn1188 Zn    0.50000   0.74999   0.69693   0.00000  Uiso   1.00
C1189  C     0.83261   0.66424   0.75036   0.00000  Uiso   1.00
C1190  C     0.78780   0.74251   0.94338   0.00000  Uiso   1.00
C1191  C     0.83386   0.74804   0.52710   0.00000  Uiso   1.00
C1192  C     0.83401   0.74820   0.97412   0.00000  Uiso   1.00
C1193  C     0.73389   0.75032   0.73780   0.00000  Uiso   1.00
C1194  C     0.93271   0.75156   0.76195   0.00000  Uiso   1.00
C1195  C     0.67896   0.74951   0.73101   0.00000  Uiso   1.00
C1196  C     0.98740   0.75631   0.76761   0.00000  Uiso   1.00
C1197  C     0.78736   0.54620   0.74350   0.00000  Uiso   1.00
C1198  C     0.86307   0.95403   0.71857   0.00000  Uiso   1.00
C1199  C     0.78681   0.59126   0.75160   0.00000  Uiso   1.00
C1200  C     0.83318   0.83593   0.74958   0.00000  Uiso   1.00
C1201  C     0.86645   0.90826   0.72204   0.00000  Uiso   1.00
C1202  C     0.83342   0.61658   0.75061   0.00000  Uiso   1.00
C1203  C     0.83325   0.88395   0.74920   0.00000  Uiso   1.00
C1204  C     0.88106   0.59628   0.74720   0.00000  Uiso   1.00
C1205  C     0.80092   0.90564   0.77694   0.00000  Uiso   1.00
C1206  C     0.88263   0.54956   0.74906   0.00000  Uiso   1.00
C1207  C     0.80318   0.95226   0.77819   0.00000  Uiso   1.00
C1208  C     0.83478   0.52478   0.74567   0.00000  Uiso   1.00
C1209  C     0.83328   0.97624   0.74740   0.00000  Uiso   1.00
C1210  C     0.72779   0.59016   0.80971   0.00000  Uiso   1.00
C1211  C     0.79761   0.72218   0.54967   0.00000  Uiso   1.00
C1212  C     0.95229   0.87814   0.73456   0.00000  Uiso   1.00
C1213  C     0.94185   0.63266   0.69978   0.00000  Uiso   1.00
C1214  C     0.78167   0.87266   0.85201   0.00000  Uiso   1.00
C1215  C     0.94786   0.51095   0.80234   0.00000  Uiso   1.00
C1216  C     0.80869   0.99134   0.85178   0.00000  Uiso   1.00
C1217  C     0.70709   0.70803   0.60914   0.00000  Uiso   1.00
C1218  C     0.93868   0.81473   0.88107   0.00000  Uiso   1.00
C1219  C     0.95386   0.82051   0.61395   0.00000  Uiso   1.00
C1220  C     0.72591   0.68896   0.85939   0.00000  Uiso   1.00
C1221  C     0.88002   0.75536   0.95333   0.00000  Uiso   1.00
C1222  C     0.79729   0.72394   0.59905   0.00000  Uiso   1.00
C1223  C     0.87911   0.75744   0.90373   0.00000  Uiso   1.00
C1224  C     0.87114   0.77388   0.60545   0.00000  Uiso   1.00
C1225  C     0.78791   0.74281   0.89400   0.00000  Uiso   1.00
C1226  C     0.87036   0.77405   0.55580   0.00000  Uiso   1.00
H1227  H     0.99238   0.74175   0.69620   0.00000  Uiso   1.00
H1228  H     0.76187   0.59335   0.83764   0.00000  Uiso   1.00
H1229  H     0.71630   0.55449   0.80590   0.00000  Uiso   1.00
H1230  H     0.69470   0.60736   0.82139   0.00000  Uiso   1.00
H1231  H     0.91569   0.90301   0.67102   0.00000  Uiso   1.00
H1232  H     0.97100   0.90982   0.74834   0.00000  Uiso   1.00
H1233  H     0.98097   0.86031   0.71690   0.00000  Uiso   1.00
H1234  H     0.94189   0.85677   0.76444   0.00000  Uiso   1.00
H1235  H     0.95826   0.61303   0.76996   0.00000  Uiso   1.00
H1236  H     0.95133   0.60155   0.68308   0.00000  Uiso   1.00
H1237  H     0.97686   0.65539   0.70267   0.00000  Uiso   1.00
H1238  H     0.67369   0.76591   0.80163   0.00000  Uiso   1.00
H1239  H     0.90962   0.64912   0.67693   0.00000  Uiso   1.00
H1240  H     0.72664   0.88838   0.79412   0.00000  Uiso   1.00
H1241  H     0.76712   0.83918   0.86249   0.00000  Uiso   1.00
H1242  H     0.82501   0.87404   0.86041   0.00000  Uiso   1.00
H1243  H     0.76480   0.89781   0.87290   0.00000  Uiso   1.00
H1244  H     0.96130   0.54337   0.73989   0.00000  Uiso   1.00
H1245  H     0.91797   0.98748   0.81436   0.00000  Uiso   1.00
H1246  H     0.98457   0.99255   0.80292   0.00000  Uiso   1.00
H1247  H     0.95489   0.53906   0.82700   0.00000  Uiso   1.00
H1248  H     0.74164   0.95994   0.81807   0.00000  Uiso   1.00
H1249  H     0.75070   0.52712   0.73994   0.00000  Uiso   1.00
H1250  H     0.82883   0.96341   0.87202   0.00000  Uiso   1.00
H1251  H     0.78406   0.50796   0.87474   0.00000  Uiso   1.00
H1252  H     0.83827   0.51618   0.84170   0.00000  Uiso   1.00
H1253  H     0.76664   0.66298   0.61671   0.00000  Uiso   1.00
H1254  H     0.68254   0.68760   0.63114   0.00000  Uiso   1.00
H1255  H     0.69333   0.70157   0.57146   0.00000  Uiso   1.00
H1256  H     0.70222   0.74367   0.61617   0.00000  Uiso   1.00
H1257  H     0.95800   0.75077   0.90337   0.00000  Uiso   1.00
H1258  H     0.94484   0.83013   0.91630   0.00000  Uiso   1.00
H1259  H     0.90645   0.83149   0.85858   0.00000  Uiso   1.00
H1260  H     0.88626   0.97253   0.69525   0.00000  Uiso   1.00
H1261  H     0.97494   0.81979   0.86424   0.00000  Uiso   1.00
H1262  H     0.90054   0.81237   0.66258   0.00000  Uiso   1.00
H1263  H     0.97260   0.79823   0.59126   0.00000  Uiso   1.00
H1264  H     0.98455   0.83170   0.64231   0.00000  Uiso   1.00
H1265  H     0.93845   0.85018   0.59336   0.00000  Uiso   1.00
H1266  H     0.70963   0.75230   0.87747   0.00000  Uiso   1.00
H1267  H     0.71925   0.67253   0.89346   0.00000  Uiso   1.00
H1268  H     0.75789   0.67239   0.84490   0.00000  Uiso   1.00
H1269  H     0.68950   0.68560   0.83425   0.00000  Uiso   1.00
H1270  H     0.76985   0.70015   0.52934   0.00000  Uiso   1.00
H1271  H     0.91721   0.75976   0.97529   0.00000  Uiso   1.00
H1272  H     0.89773   0.79499   0.53913   0.00000  Uiso   1.00
H1273  H     0.75089   0.73781   0.95737   0.00000  Uiso   1.00
H1274  H     0.73834   0.64335   0.76321   0.00000  Uiso   1.00
N1275  N     0.83333   0.74999   0.62624   0.00000  Uiso   1.00
N1276  N     0.92682   0.76756   0.88570   0.00000  Uiso   1.00
N1277  N     0.91209   0.79693   0.63448   0.00000  Uiso   1.00
N1278  N     0.73954   0.73547   0.86584   0.00000  Uiso   1.00
N1279  N     0.83333   0.75001   0.87377   0.00000  Uiso   1.00
N1280  N     0.74074   0.60919   0.76537   0.00000  Uiso   1.00
N1281  N     0.90625   0.88725   0.70139   0.00000  Uiso   1.00
N1282  N     0.92740   0.62322   0.74628   0.00000  Uiso   1.00
N1283  N     0.76537   0.88030   0.80216   0.00000  Uiso   1.00
N1284  N     0.93137   0.52752   0.75498   0.00000  Uiso   1.00
N1285  N     0.77608   0.97500   0.81044   0.00000  Uiso   1.00
N1286  N     0.76131   0.69641   0.62099   0.00000  Uiso   1.00
O1287  O     0.83334   0.68453   0.78974   0.00000  Uiso   1.00
O1288  O     0.83333   0.81546   0.71026   0.00000  Uiso   1.00
O1289  O     0.83334   0.68453   0.71026   0.00000  Uiso   1.00
O1290  O     0.83333   0.81547   0.78974   0.00000  Uiso   1.00
O1291  O     0.75725   0.75000   0.78045   0.00000  Uiso   1.00
O1292  O     0.90942   0.75000   0.71956   0.00000  Uiso   1.00
O1293  O     0.75725   0.74999   0.70097   0.00000  Uiso   1.00
O1294  O     0.90942   0.75000   0.79904   0.00000  Uiso   1.00
Zn1295 Zn    0.83333   0.75000   0.80307   0.00000  Uiso   1.00
Zn1296 Zn    0.83333   0.74999   0.69693   0.00000  Uiso   1.00
loop_
_geom_bond_atom_site_label_1
_geom_bond_atom_site_label_2
_geom_bond_distance
_geom_bond_site_symmetry_2
_ccdc_geom_bond_type
C1     O101    1.287   .     A
C1     O99     1.294   .     A
C1     C14     1.433   .     S
C2     H85     1.083   .     S
C2     C4      1.395   .     A
C2     C37     1.414   .     A
C3     C23     1.406   .     A
C3     C38     1.399   .     A
C3     C652    1.517   1_554 S
C4     C33     1.403   .     A
C4     C651    1.517   .     S
C5     O103    1.289   .     A
C5     O105    1.281   .     A
C5     C7      1.404   .     S
C6     O104    1.284   .     A
C6     C8      1.401   .     S
C6     O106    1.285   .     A
C7     C224    1.322   1_455 S
C7     H255    1.088   1_455 S
C8     C115    1.322   .     S
C8     H158    1.079   .     S
C9     H61     1.084   .     S
C9     C20     1.394   .     A
C9     C11     1.381   .     A
C10    C21     1.395   .     A
C10    C13     1.381   .     A
C10    H72     1.084   .     S
C11    C14     1.404   .     A
C11    N92     1.426   .     S
C12    O102    1.289   .     A
C12    C15     1.443   .     S
C12    O100    1.298   .     A
C13    N93     1.422   .     S
C13    C15     1.404   .     A
C14    C16     1.405   .     A
C15    C17     1.410   .     A
C16    N94     1.424   .     S
C16    C18     1.405   .     A
C17    N95     1.427   .     S
C17    C19     1.402   .     A
C18    N96     1.428   .     S
C18    C20     1.414   .     A
C19    N97     1.429   .     S
C19    C21     1.416   .     A
C20    C345    1.458   1_545 S
C21    C344    1.458   .     S
C22    H41     1.107   .     S
C22    H40     1.112   .     S
C22    H42     1.104   .     S
C22    N92     1.452   .     S
C23    H82     1.082   .     S
C23    C34     1.417   .     A
C24    H45     1.108   .     S
C24    H44     1.112   .     S
C24    H46     1.111   .     S
C24    N93     1.449   .     S
C25    N94     1.447   .     S
C25    H51     1.109   .     S
C25    H48     1.110   .     S
C25    H49     1.110   .     S
C26    H55     1.110   .     S
C26    H54     1.112   .     S
C26    H53     1.110   .     S
C26    N95     1.449   .     S
C27    N96     1.447   .     S
C27    H59     1.111   .     S
C27    H381    1.109   1_545 S
C27    H382    1.110   1_545 S
C28    N97     1.447   .     S
C28    H62     1.111   .     S
C28    H387    1.110   .     S
C28    H388    1.109   .     S
C29    N98     1.447   .     S
C29    H67     1.111   .     S
C29    H68     1.109   .     S
C29    H66     1.110   .     S
C30    H71     1.109   .     S
C30    H70     1.112   .     S
C30    H73     1.111   .     S
C30    N88     1.446   .     S
C31    N89     1.449   .     S
C31    H77     1.111   .     S
C31    H75     1.109   .     S
C31    H76     1.109   .     S
C32    H81     1.110   .     S
C32    N90     1.441   .     S
C32    H80     1.108   .     S
C32    H79     1.112   .     S
C33    C35     1.417   .     A
C33    H83     1.082   .     S
C34    N98     1.419   .     S
C34    N87     1.371   .     A
C35    N88     1.416   .     S
C35    N91     1.382   .     A
C36    N89     1.428   .     S
C36    N87     1.379   .     A
C36    C38     1.419   .     A
C37    N91     1.381   .     A
C37    N90     1.409   .     S
C38    H84     1.079   .     S
H39    C115    1.088   .     S
H43    N93     1.032   .     S
H47    N94     1.025   .     S
H50    C224    1.079   1_455 S
H52    N95     1.031   .     S
H56    N96     1.030   .     S
H57    C351    1.109   .     S
H58    C351    1.110   .     S
H60    N97     1.029   .     S
H63    C352    1.110   1_545 S
H64    C352    1.109   1_545 S
H65    N98     1.031   .     S
H69    N88     1.031   .     S
H74    N89     1.021   .     S
H78    N90     1.031   .     S
H86    N92     1.030   .     S
N87    Zn108   2.024   .     S
N91    Zn107   2.024   .     S
O99    Zn107   2.015   .     S
O100   Zn108   2.015   .     S
O101   Zn108   1.994   .     S
O102   Zn107   1.994   .     S
O103   Zn107   1.984   .     S
O104   Zn108   1.984   .     S
O105   Zn108   1.980   .     S
O106   Zn107   1.980   .     S
C109   O209    1.287   .     A
C109   O207    1.294   .     A
C109   C122    1.433   .     S
C110   H193    1.083   .     S
C110   C112    1.395   .     A
C110   C145    1.414   .     A
C111   C131    1.406   .     A
C111   C146    1.399   .     A
C111   C760    1.517   1_554 S
C112   C141    1.403   .     A
C112   C759    1.517   .     S
C113   O211    1.289   .     A
C113   O213    1.281   .     A
C113   C115    1.404   .     S
C114   O212    1.284   .     A
C114   C116    1.401   .     S
C114   O214    1.285   .     A
C116   C223    1.322   .     S
C116   H266    1.079   .     S
C117   H169    1.084   .     S
C117   C128    1.394   .     A
C117   C119    1.381   .     A
C118   C129    1.395   .     A
C118   C121    1.381   .     A
C118   H180    1.084   .     S
C119   C122    1.404   .     A
C119   N200    1.426   .     S
C120   O210    1.289   .     A
C120   C123    1.443   .     S
C120   O208    1.298   .     A
C121   N201    1.422   .     S
C121   C123    1.404   .     A
C122   C124    1.405   .     A
C123   C125    1.410   .     A
C124   N202    1.424   .     S
C124   C126    1.405   .     A
C125   N203    1.427   .     S
C125   C127    1.402   .     A
C126   N204    1.428   .     S
C126   C128    1.414   .     A
C127   N205    1.429   .     S
C127   C129    1.416   .     A
C128   C453    1.458   1_545 S
C129   C452    1.458   .     S
C130   H149    1.107   .     S
C130   H148    1.112   .     S
C130   H150    1.104   .     S
C130   N200    1.452   .     S
C131   H190    1.082   .     S
C131   C142    1.417   .     A
C132   H153    1.108   .     S
C132   H152    1.112   .     S
C132   H154    1.111   .     S
C132   N201    1.449   .     S
C133   N202    1.447   .     S
C133   H159    1.109   .     S
C133   H156    1.110   .     S
C133   H157    1.110   .     S
C134   H163    1.110   .     S
C134   H162    1.112   .     S
C134   H161    1.110   .     S
C134   N203    1.449   .     S
C135   N204    1.447   .     S
C135   H167    1.111   .     S
C135   H489    1.109   1_545 S
C135   H490    1.110   1_545 S
C136   N205    1.447   .     S
C136   H170    1.111   .     S
C136   H495    1.110   .     S
C136   H496    1.109   .     S
C137   N206    1.447   .     S
C137   H175    1.111   .     S
C137   H176    1.109   .     S
C137   H174    1.110   .     S
C138   H179    1.109   .     S
C138   H178    1.112   .     S
C138   H181    1.111   .     S
C138   N196    1.446   .     S
C139   N197    1.449   .     S
C139   H185    1.111   .     S
C139   H183    1.109   .     S
C139   H184    1.109   .     S
C140   H189    1.110   .     S
C140   N198    1.441   .     S
C140   H188    1.108   .     S
C140   H187    1.112   .     S
C141   C143    1.417   .     A
C141   H191    1.082   .     S
C142   N206    1.419   .     S
C142   N195    1.371   .     A
C143   N196    1.416   .     S
C143   N199    1.382   .     A
C144   N197    1.428   .     S
C144   N195    1.379   .     A
C144   C146    1.419   .     A
C145   N199    1.381   .     A
C145   N198    1.409   .     S
C146   H192    1.079   .     S
H147   C223    1.088   .     S
H151   N201    1.032   .     S
H155   N202    1.025   .     S
H160   N203    1.031   .     S
H164   N204    1.030   .     S
H165   C459    1.109   .     S
H166   C459    1.110   .     S
H168   N205    1.029   .     S
H171   C460    1.110   1_545 S
H172   C460    1.109   1_545 S
H173   N206    1.031   .     S
H177   N196    1.031   .     S
H182   N197    1.021   .     S
H186   N198    1.031   .     S
H194   N200    1.030   .     S
N195   Zn216   2.024   .     S
N199   Zn215   2.024   .     S
O207   Zn215   2.015   .     S
O208   Zn216   2.015   .     S
O209   Zn216   1.994   .     S
O210   Zn215   1.994   .     S
O211   Zn215   1.984   .     S
O212   Zn216   1.984   .     S
O213   Zn216   1.980   .     S
O214   Zn215   1.980   .     S
C217   O317    1.287   .     A
C217   O315    1.294   .     A
C217   C230    1.433   .     S
C218   H301    1.083   .     S
C218   C220    1.395   .     A
C218   C253    1.414   .     A
C219   C239    1.406   .     A
C219   C254    1.399   .     A
C219   C868    1.517   1_554 S
C220   C249    1.403   .     A
C220   C867    1.517   .     S
C221   O319    1.289   .     A
C221   O321    1.281   .     A
C221   C223    1.404   .     S
C222   O320    1.284   .     A
C222   C224    1.401   .     S
C222   O322    1.285   .     A
C224   C7      1.322   1_655 S
C224   H50     1.079   1_655 S
C225   H277    1.084   .     S
C225   C236    1.394   .     A
C225   C227    1.381   .     A
C226   C237    1.395   .     A
C226   C229    1.381   .     A
C226   H288    1.084   .     S
C227   C230    1.404   .     A
C227   N308    1.426   .     S
C228   O318    1.289   .     A
C228   C231    1.443   .     S
C228   O316    1.298   .     A
C229   N309    1.422   .     S
C229   C231    1.404   .     A
C230   C232    1.405   .     A
C231   C233    1.410   .     A
C232   N310    1.424   .     S
C232   C234    1.405   .     A
C233   N311    1.427   .     S
C233   C235    1.402   .     A
C234   N312    1.428   .     S
C234   C236    1.414   .     A
C235   N313    1.429   .     S
C235   C237    1.416   .     A
C236   C561    1.458   1_545 S
C237   C560    1.458   .     S
C238   H257    1.107   .     S
C238   H256    1.112   .     S
C238   H258    1.104   .     S
C238   N308    1.452   .     S
C239   H298    1.082   .     S
C239   C250    1.417   .     A
C240   H261    1.108   .     S
C240   H260    1.112   .     S
C240   H262    1.111   .     S
C240   N309    1.449   .     S
C241   N310    1.447   .     S
C241   H267    1.109   .     S
C241   H264    1.110   .     S
C241   H265    1.110   .     S
C242   H271    1.110   .     S
C242   H270    1.112   .     S
C242   H269    1.110   .     S
C242   N311    1.449   .     S
C243   N312    1.447   .     S
C243   H275    1.111   .     S
C243   H597    1.109   1_545 S
C243   H598    1.110   1_545 S
C244   N313    1.447   .     S
C244   H278    1.111   .     S
C244   H603    1.110   .     S
C244   H604    1.109   .     S
C245   N314    1.447   .     S
C245   H283    1.111   .     S
C245   H284    1.109   .     S
C245   H282    1.110   .     S
C246   H287    1.109   .     S
C246   H286    1.112   .     S
C246   H289    1.111   .     S
C246   N304    1.446   .     S
C247   N305    1.449   .     S
C247   H293    1.111   .     S
C247   H291    1.109   .     S
C247   H292    1.109   .     S
C248   H297    1.110   .     S
C248   N306    1.441   .     S
C248   H296    1.108   .     S
C248   H295    1.112   .     S
C249   C251    1.417   .     A
C249   H299    1.082   .     S
C250   N314    1.419   .     S
C250   N303    1.371   .     A
C251   N304    1.416   .     S
C251   N307    1.382   .     A
C252   N305    1.428   .     S
C252   N303    1.379   .     A
C252   C254    1.419   .     A
C253   N307    1.381   .     A
C253   N306    1.409   .     S
C254   H300    1.079   .     S
H255   C7      1.088   1_655 S
H259   N309    1.032   .     S
H263   N310    1.025   .     S
H268   N311    1.031   .     S
H272   N312    1.030   .     S
H273   C567    1.109   .     S
H274   C567    1.110   .     S
H276   N313    1.029   .     S
H279   C568    1.110   1_545 S
H280   C568    1.109   1_545 S
H281   N314    1.031   .     S
H285   N304    1.031   .     S
H290   N305    1.021   .     S
H294   N306    1.031   .     S
H302   N308    1.030   .     S
N303   Zn324   2.024   .     S
N307   Zn323   2.024   .     S
O315   Zn323   2.015   .     S
O316   Zn324   2.015   .     S
O317   Zn324   1.994   .     S
O318   Zn323   1.994   .     S
O319   Zn323   1.984   .     S
O320   Zn324   1.984   .     S
O321   Zn324   1.980   .     S
O322   Zn323   1.980   .     S
C325   O425    1.287   .     A
C325   O423    1.294   .     A
C325   C338    1.433   .     S
C326   H409    1.083   .     S
C326   C328    1.395   .     A
C326   C361    1.414   .     A
C327   C347    1.406   .     A
C327   C362    1.399   .     A
C327   C976    1.517   1_554 S
C328   C357    1.403   .     A
C328   C975    1.517   .     S
C329   O427    1.289   .     A
C329   O429    1.281   .     A
C329   C331    1.404   .     S
C330   O428    1.284   .     A
C330   C332    1.401   .     S
C330   O430    1.285   .     A
C331   C548    1.322   1_455 S
C331   H579    1.088   1_455 S
C332   C439    1.322   .     S
C332   H482    1.079   .     S
C333   H385    1.084   .     S
C333   C344    1.394   .     A
C333   C335    1.381   .     A
C334   C345    1.395   .     A
C334   C337    1.381   .     A
C334   H396    1.084   .     S
C335   C338    1.404   .     A
C335   N416    1.426   .     S
C336   O426    1.289   .     A
C336   C339    1.443   .     S
C336   O424    1.298   .     A
C337   N417    1.422   .     S
C337   C339    1.404   .     A
C338   C340    1.405   .     A
C339   C341    1.410   .     A
C340   N418    1.424   .     S
C340   C342    1.405   .     A
C341   N419    1.427   .     S
C341   C343    1.402   .     A
C342   N420    1.428   .     S
C342   C344    1.414   .     A
C343   N421    1.429   .     S
C343   C345    1.416   .     A
C345   C20     1.458   1_565 S
C346   H365    1.107   .     S
C346   H364    1.112   .     S
C346   H366    1.104   .     S
C346   N416    1.452   .     S
C347   H406    1.082   .     S
C347   C358    1.417   .     A
C348   H369    1.108   .     S
C348   H368    1.112   .     S
C348   H370    1.111   .     S
C348   N417    1.449   .     S
C349   N418    1.447   .     S
C349   H375    1.109   .     S
C349   H372    1.110   .     S
C349   H373    1.110   .     S
C350   H379    1.110   .     S
C350   H378    1.112   .     S
C350   H377    1.110   .     S
C350   N419    1.449   .     S
C351   N420    1.447   .     S
C351   H383    1.111   .     S
C352   N421    1.447   .     S
C352   H386    1.111   .     S
C352   H63     1.110   1_565 S
C352   H64     1.109   1_565 S
C353   N422    1.447   .     S
C353   H391    1.111   .     S
C353   H392    1.109   .     S
C353   H390    1.110   .     S
C354   H395    1.109   .     S
C354   H394    1.112   .     S
C354   H397    1.111   .     S
C354   N412    1.446   .     S
C355   N413    1.449   .     S
C355   H401    1.111   .     S
C355   H399    1.109   .     S
C355   H400    1.109   .     S
C356   H405    1.110   .     S
C356   N414    1.441   .     S
C356   H404    1.108   .     S
C356   H403    1.112   .     S
C357   C359    1.417   .     A
C357   H407    1.082   .     S
C358   N422    1.419   .     S
C358   N411    1.371   .     A
C359   N412    1.416   .     S
C359   N415    1.382   .     A
C360   N413    1.428   .     S
C360   N411    1.379   .     A
C360   C362    1.419   .     A
C361   N415    1.381   .     A
C361   N414    1.409   .     S
C362   H408    1.079   .     S
H363   C439    1.088   .     S
H367   N417    1.032   .     S
H371   N418    1.025   .     S
H374   C548    1.079   1_455 S
H376   N419    1.031   .     S
H380   N420    1.030   .     S
H381   C27     1.109   1_565 S
H382   C27     1.110   1_565 S
H384   N421    1.029   .     S
H389   N422    1.031   .     S
H393   N412    1.031   .     S
H398   N413    1.021   .     S
H402   N414    1.031   .     S
H410   N416    1.030   .     S
N411   Zn432   2.024   .     S
N415   Zn431   2.024   .     S
O423   Zn431   2.015   .     S
O424   Zn432   2.015   .     S
O425   Zn432   1.994   .     S
O426   Zn431   1.994   .     S
O427   Zn431   1.984   .     S
O428   Zn432   1.984   .     S
O429   Zn432   1.980   .     S
O430   Zn431   1.980   .     S
C433   O533    1.287   .     A
C433   O531    1.294   .     A
C433   C446    1.433   .     S
C434   H517    1.083   .     S
C434   C436    1.395   .     A
C434   C469    1.414   .     A
C435   C455    1.406   .     A
C435   C470    1.399   .     A
C435   C1084   1.517   1_554 S
C436   C465    1.403   .     A
C436   C1083   1.517   .     S
C437   O535    1.289   .     A
C437   O537    1.281   .     A
C437   C439    1.404   .     S
C438   O536    1.284   .     A
C438   C440    1.401   .     S
C438   O538    1.285   .     A
C440   C547    1.322   .     S
C440   H590    1.079   .     S
C441   H493    1.084   .     S
C441   C452    1.394   .     A
C441   C443    1.381   .     A
C442   C453    1.395   .     A
C442   C445    1.381   .     A
C442   H504    1.084   .     S
C443   C446    1.404   .     A
C443   N524    1.426   .     S
C444   O534    1.289   .     A
C444   C447    1.443   .     S
C444   O532    1.298   .     A
C445   N525    1.422   .     S
C445   C447    1.404   .     A
C446   C448    1.405   .     A
C447   C449    1.410   .     A
C448   N526    1.424   .     S
C448   C450    1.405   .     A
C449   N527    1.427   .     S
C449   C451    1.402   .     A
C450   N528    1.428   .     S
C450   C452    1.414   .     A
C451   N529    1.429   .     S
C451   C453    1.416   .     A
C453   C128    1.458   1_565 S
C454   H473    1.107   .     S
C454   H472    1.112   .     S
C454   H474    1.104   .     S
C454   N524    1.452   .     S
C455   H514    1.082   .     S
C455   C466    1.417   .     A
C456   H477    1.108   .     S
C456   H476    1.112   .     S
C456   H478    1.111   .     S
C456   N525    1.449   .     S
C457   N526    1.447   .     S
C457   H483    1.109   .     S
C457   H480    1.110   .     S
C457   H481    1.110   .     S
C458   H487    1.110   .     S
C458   H486    1.112   .     S
C458   H485    1.110   .     S
C458   N527    1.449   .     S
C459   N528    1.447   .     S
C459   H491    1.111   .     S
C460   N529    1.447   .     S
C460   H494    1.111   .     S
C460   H171    1.110   1_565 S
C460   H172    1.109   1_565 S
C461   N530    1.447   .     S
C461   H499    1.111   .     S
C461   H500    1.109   .     S
C461   H498    1.110   .     S
C462   H503    1.109   .     S
C462   H502    1.112   .     S
C462   H505    1.111   .     S
C462   N520    1.446   .     S
C463   N521    1.449   .     S
C463   H509    1.111   .     S
C463   H507    1.109   .     S
C463   H508    1.109   .     S
C464   H513    1.110   .     S
C464   N522    1.441   .     S
C464   H512    1.108   .     S
C464   H511    1.112   .     S
C465   C467    1.417   .     A
C465   H515    1.082   .     S
C466   N530    1.419   .     S
C466   N519    1.371   .     A
C467   N520    1.416   .     S
C467   N523    1.382   .     A
C468   N521    1.428   .     S
C468   N519    1.379   .     A
C468   C470    1.419   .     A
C469   N523    1.381   .     A
C469   N522    1.409   .     S
C470   H516    1.079   .     S
H471   C547    1.088   .     S
H475   N525    1.032   .     S
H479   N526    1.025   .     S
H484   N527    1.031   .     S
H488   N528    1.030   .     S
H489   C135    1.109   1_565 S
H490   C135    1.110   1_565 S
H492   N529    1.029   .     S
H497   N530    1.031   .     S
H501   N520    1.031   .     S
H506   N521    1.021   .     S
H510   N522    1.031   .     S
H518   N524    1.030   .     S
N519   Zn540   2.024   .     S
N523   Zn539   2.024   .     S
O531   Zn539   2.015   .     S
O532   Zn540   2.015   .     S
O533   Zn540   1.994   .     S
O534   Zn539   1.994   .     S
O535   Zn539   1.984   .     S
O536   Zn540   1.984   .     S
O537   Zn540   1.980   .     S
O538   Zn539   1.980   .     S
C541   O641    1.287   .     A
C541   O639    1.294   .     A
C541   C554    1.433   .     S
C542   H625    1.083   .     S
C542   C544    1.395   .     A
C542   C577    1.414   .     A
C543   C563    1.406   .     A
C543   C578    1.399   .     A
C543   C1192   1.517   1_554 S
C544   C573    1.403   .     A
C544   C1191   1.517   .     S
C545   O643    1.289   .     A
C545   O645    1.281   .     A
C545   C547    1.404   .     S
C546   O644    1.284   .     A
C546   C548    1.401   .     S
C546   O646    1.285   .     A
C548   C331    1.322   1_655 S
C548   H374    1.079   1_655 S
C549   H601    1.084   .     S
C549   C560    1.394   .     A
C549   C551    1.381   .     A
C550   C561    1.395   .     A
C550   C553    1.381   .     A
C550   H612    1.084   .     S
C551   C554    1.404   .     A
C551   N632    1.426   .     S
C552   O642    1.289   .     A
C552   C555    1.443   .     S
C552   O640    1.298   .     A
C553   N633    1.422   .     S
C553   C555    1.404   .     A
C554   C556    1.405   .     A
C555   C557    1.410   .     A
C556   N634    1.424   .     S
C556   C558    1.405   .     A
C557   N635    1.427   .     S
C557   C559    1.402   .     A
C558   N636    1.428   .     S
C558   C560    1.414   .     A
C559   N637    1.429   .     S
C559   C561    1.416   .     A
C561   C236    1.458   1_565 S
C562   H581    1.107   .     S
C562   H580    1.112   .     S
C562   H582    1.104   .     S
C562   N632    1.452   .     S
C563   H622    1.082   .     S
C563   C574    1.417   .     A
C564   H585    1.108   .     S
C564   H584    1.112   .     S
C564   H586    1.111   .     S
C564   N633    1.449   .     S
C565   N634    1.447   .     S
C565   H591    1.109   .     S
C565   H588    1.110   .     S
C565   H589    1.110   .     S
C566   H595    1.110   .     S
C566   H594    1.112   .     S
C566   H593    1.110   .     S
C566   N635    1.449   .     S
C567   N636    1.447   .     S
C567   H599    1.111   .     S
C568   N637    1.447   .     S
C568   H602    1.111   .     S
C568   H279    1.110   1_565 S
C568   H280    1.109   1_565 S
C569   N638    1.447   .     S
C569   H607    1.111   .     S
C569   H608    1.109   .     S
C569   H606    1.110   .     S
C570   H611    1.109   .     S
C570   H610    1.112   .     S
C570   H613    1.111   .     S
C570   N628    1.446   .     S
C571   N629    1.449   .     S
C571   H617    1.111   .     S
C571   H615    1.109   .     S
C571   H616    1.109   .     S
C572   H621    1.110   .     S
C572   N630    1.441   .     S
C572   H620    1.108   .     S
C572   H619    1.112   .     S
C573   C575    1.417   .     A
C573   H623    1.082   .     S
C574   N638    1.419   .     S
C574   N627    1.371   .     A
C575   N628    1.416   .     S
C575   N631    1.382   .     A
C576   N629    1.428   .     S
C576   N627    1.379   .     A
C576   C578    1.419   .     A
C577   N631    1.381   .     A
C577   N630    1.409   .     S
C578   H624    1.079   .     S
H579   C331    1.088   1_655 S
H583   N633    1.032   .     S
H587   N634    1.025   .     S
H592   N635    1.031   .     S
H596   N636    1.030   .     S
H597   C243    1.109   1_565 S
H598   C243    1.110   1_565 S
H600   N637    1.029   .     S
H605   N638    1.031   .     S
H609   N628    1.031   .     S
H614   N629    1.021   .     S
H618   N630    1.031   .     S
H626   N632    1.030   .     S
N627   Zn648   2.024   .     S
N631   Zn647   2.024   .     S
O639   Zn647   2.015   .     S
O640   Zn648   2.015   .     S
O641   Zn648   1.994   .     S
O642   Zn647   1.994   .     S
O643   Zn647   1.984   .     S
O644   Zn648   1.984   .     S
O645   Zn648   1.980   .     S
O646   Zn647   1.980   .     S
C649   O749    1.287   .     A
C649   O747    1.294   .     A
C649   C662    1.433   .     S
C650   H733    1.083   .     S
C650   C652    1.395   .     A
C650   C685    1.414   .     A
C651   C671    1.406   .     A
C651   C686    1.399   .     A
C652   C681    1.403   .     A
C652   C3      1.517   1_556 S
C653   O751    1.289   .     A
C653   O753    1.281   .     A
C653   C655    1.404   .     S
C654   O752    1.284   .     A
C654   C656    1.401   .     S
C654   O754    1.285   .     A
C655   C872    1.322   1_455 S
C655   H903    1.088   1_455 S
C656   C763    1.322   .     S
C656   H806    1.079   .     S
C657   H709    1.084   .     S
C657   C668    1.394   .     A
C657   C659    1.381   .     A
C658   C669    1.395   .     A
C658   C661    1.381   .     A
C658   H720    1.084   .     S
C659   C662    1.404   .     A
C659   N740    1.426   .     S
C660   O750    1.289   .     A
C660   C663    1.443   .     S
C660   O748    1.298   .     A
C661   N741    1.422   .     S
C661   C663    1.404   .     A
C662   C664    1.405   .     A
C663   C665    1.410   .     A
C664   N742    1.424   .     S
C664   C666    1.405   .     A
C665   N743    1.427   .     S
C665   C667    1.402   .     A
C666   N744    1.428   .     S
C666   C668    1.414   .     A
C667   N745    1.429   .     S
C667   C669    1.416   .     A
C668   C993    1.458   1_545 S
C669   C992    1.458   .     S
C670   H689    1.107   .     S
C670   H688    1.112   .     S
C670   H690    1.104   .     S
C670   N740    1.452   .     S
C671   H730    1.082   .     S
C671   C682    1.417   .     A
C672   H693    1.108   .     S
C672   H692    1.112   .     S
C672   H694    1.111   .     S
C672   N741    1.449   .     S
C673   N742    1.447   .     S
C673   H699    1.109   .     S
C673   H696    1.110   .     S
C673   H697    1.110   .     S
C674   H703    1.110   .     S
C674   H702    1.112   .     S
C674   H701    1.110   .     S
C674   N743    1.449   .     S
C675   N744    1.447   .     S
C675   H707    1.111   .     S
C675   H1029   1.109   1_545 S
C675   H1030   1.110   1_545 S
C676   N745    1.447   .     S
C676   H710    1.111   .     S
C676   H1035   1.110   .     S
C676   H1036   1.109   .     S
C677   N746    1.447   .     S
C677   H715    1.111   .     S
C677   H716    1.109   .     S
C677   H714    1.110   .     S
C678   H719    1.109   .     S
C678   H718    1.112   .     S
C678   H721    1.111   .     S
C678   N736    1.446   .     S
C679   N737    1.449   .     S
C679   H725    1.111   .     S
C679   H723    1.109   .     S
C679   H724    1.109   .     S
C680   H729    1.110   .     S
C680   N738    1.441   .     S
C680   H728    1.108   .     S
C680   H727    1.112   .     S
C681   C683    1.417   .     A
C681   H731    1.082   .     S
C682   N746    1.419   .     S
C682   N735    1.371   .     A
C683   N736    1.416   .     S
C683   N739    1.382   .     A
C684   N737    1.428   .     S
C684   N735    1.379   .     A
C684   C686    1.419   .     A
C685   N739    1.381   .     A
C685   N738    1.409   .     S
C686   H732    1.079   .     S
H687   C763    1.088   .     S
H691   N741    1.032   .     S
H695   N742    1.025   .     S
H698   C872    1.079   1_455 S
H700   N743    1.031   .     S
H704   N744    1.030   .     S
H705   C999    1.109   .     S
H706   C999    1.110   .     S
H708   N745    1.029   .     S
H711   C1000   1.110   1_545 S
H712   C1000   1.109   1_545 S
H713   N746    1.031   .     S
H717   N736    1.031   .     S
H722   N737    1.021   .     S
H726   N738    1.031   .     S
H734   N740    1.030   .     S
N735   Zn756   2.024   .     S
N739   Zn755   2.024   .     S
O747   Zn755   2.015   .     S
O748   Zn756   2.015   .     S
O749   Zn756   1.994   .     S
O750   Zn755   1.994   .     S
O751   Zn755   1.984   .     S
O752   Zn756   1.984   .     S
O753   Zn756   1.980   .     S
O754   Zn755   1.980   .     S
C757   O857    1.287   .     A
C757   O855    1.294   .     A
C757   C770    1.433   .     S
C758   H841    1.083   .     S
C758   C760    1.395   .     A
C758   C793    1.414   .     A
C759   C779    1.406   .     A
C759   C794    1.399   .     A
C760   C789    1.403   .     A
C760   C111    1.517   1_556 S
C761   O859    1.289   .     A
C761   O861    1.281   .     A
C761   C763    1.404   .     S
C762   O860    1.284   .     A
C762   C764    1.401   .     S
C762   O862    1.285   .     A
C764   C871    1.322   .     S
C764   H914    1.079   .     S
C765   H817    1.084   .     S
C765   C776    1.394   .     A
C765   C767    1.381   .     A
C766   C777    1.395   .     A
C766   C769    1.381   .     A
C766   H828    1.084   .     S
C767   C770    1.404   .     A
C767   N848    1.426   .     S
C768   O858    1.289   .     A
C768   C771    1.443   .     S
C768   O856    1.298   .     A
C769   N849    1.422   .     S
C769   C771    1.404   .     A
C770   C772    1.405   .     A
C771   C773    1.410   .     A
C772   N850    1.424   .     S
C772   C774    1.405   .     A
C773   N851    1.427   .     S
C773   C775    1.402   .     A
C774   N852    1.428   .     S
C774   C776    1.414   .     A
C775   N853    1.429   .     S
C775   C777    1.416   .     A
C776   C1101   1.458   1_545 S
C777   C1100   1.458   .     S
C778   H797    1.107   .     S
C778   H796    1.112   .     S
C778   H798    1.104   .     S
C778   N848    1.452   .     S
C779   H838    1.082   .     S
C779   C790    1.417   .     A
C780   H801    1.108   .     S
C780   H800    1.112   .     S
C780   H802    1.111   .     S
C780   N849    1.449   .     S
C781   N850    1.447   .     S
C781   H807    1.109   .     S
C781   H804    1.110   .     S
C781   H805    1.110   .     S
C782   H811    1.110   .     S
C782   H810    1.112   .     S
C782   H809    1.110   .     S
C782   N851    1.449   .     S
C783   N852    1.447   .     S
C783   H815    1.111   .     S
C783   H1137   1.109   1_545 S
C783   H1138   1.110   1_545 S
C784   N853    1.447   .     S
C784   H818    1.111   .     S
C784   H1143   1.110   .     S
C784   H1144   1.109   .     S
C785   N854    1.447   .     S
C785   H823    1.111   .     S
C785   H824    1.109   .     S
C785   H822    1.110   .     S
C786   H827    1.109   .     S
C786   H826    1.112   .     S
C786   H829    1.111   .     S
C786   N844    1.446   .     S
C787   N845    1.449   .     S
C787   H833    1.111   .     S
C787   H831    1.109   .     S
C787   H832    1.109   .     S
C788   H837    1.110   .     S
C788   N846    1.441   .     S
C788   H836    1.108   .     S
C788   H835    1.112   .     S
C789   C791    1.417   .     A
C789   H839    1.082   .     S
C790   N854    1.419   .     S
C790   N843    1.371   .     A
C791   N844    1.416   .     S
C791   N847    1.382   .     A
C792   N845    1.428   .     S
C792   N843    1.379   .     A
C792   C794    1.419   .     A
C793   N847    1.381   .     A
C793   N846    1.409   .     S
C794   H840    1.079   .     S
H795   C871    1.088   .     S
H799   N849    1.032   .     S
H803   N850    1.025   .     S
H808   N851    1.031   .     S
H812   N852    1.030   .     S
H813   C1107   1.109   .     S
H814   C1107   1.110   .     S
H816   N853    1.029   .     S
H819   C1108   1.110   1_545 S
H820   C1108   1.109   1_545 S
H821   N854    1.031   .     S
H825   N844    1.031   .     S
H830   N845    1.021   .     S
H834   N846    1.031   .     S
H842   N848    1.030   .     S
N843   Zn864   2.024   .     S
N847   Zn863   2.024   .     S
O855   Zn863   2.015   .     S
O856   Zn864   2.015   .     S
O857   Zn864   1.994   .     S
O858   Zn863   1.994   .     S
O859   Zn863   1.984   .     S
O860   Zn864   1.984   .     S
O861   Zn864   1.980   .     S
O862   Zn863   1.980   .     S
C865   O965    1.287   .     A
C865   O963    1.294   .     A
C865   C878    1.433   .     S
C866   H949    1.083   .     S
C866   C868    1.395   .     A
C866   C901    1.414   .     A
C867   C887    1.406   .     A
C867   C902    1.399   .     A
C868   C897    1.403   .     A
C868   C219    1.517   1_556 S
C869   O967    1.289   .     A
C869   O969    1.281   .     A
C869   C871    1.404   .     S
C870   O968    1.284   .     A
C870   C872    1.401   .     S
C870   O970    1.285   .     A
C872   C655    1.322   1_655 S
C872   H698    1.079   1_655 S
C873   H925    1.084   .     S
C873   C884    1.394   .     A
C873   C875    1.381   .     A
C874   C885    1.395   .     A
C874   C877    1.381   .     A
C874   H936    1.084   .     S
C875   C878    1.404   .     A
C875   N956    1.426   .     S
C876   O966    1.289   .     A
C876   C879    1.443   .     S
C876   O964    1.298   .     A
C877   N957    1.422   .     S
C877   C879    1.404   .     A
C878   C880    1.405   .     A
C879   C881    1.410   .     A
C880   N958    1.424   .     S
C880   C882    1.405   .     A
C881   N959    1.427   .     S
C881   C883    1.402   .     A
C882   N960    1.428   .     S
C882   C884    1.414   .     A
C883   N961    1.429   .     S
C883   C885    1.416   .     A
C884   C1209   1.458   1_545 S
C885   C1208   1.458   .     S
C886   H905    1.107   .     S
C886   H904    1.112   .     S
C886   H906    1.104   .     S
C886   N956    1.452   .     S
C887   H946    1.082   .     S
C887   C898    1.417   .     A
C888   H909    1.108   .     S
C888   H908    1.112   .     S
C888   H910    1.111   .     S
C888   N957    1.449   .     S
C889   N958    1.447   .     S
C889   H915    1.109   .     S
C889   H912    1.110   .     S
C889   H913    1.110   .     S
C890   H919    1.110   .     S
C890   H918    1.112   .     S
C890   H917    1.110   .     S
C890   N959    1.449   .     S
C891   N960    1.447   .     S
C891   H923    1.111   .     S
C891   H1245   1.109   1_545 S
C891   H1246   1.110   1_545 S
C892   N961    1.447   .     S
C892   H926    1.111   .     S
C892   H1251   1.110   .     S
C892   H1252   1.109   .     S
C893   N962    1.447   .     S
C893   H931    1.111   .     S
C893   H932    1.109   .     S
C893   H930    1.110   .     S
C894   H935    1.109   .     S
C894   H934    1.112   .     S
C894   H937    1.111   .     S
C894   N952    1.446   .     S
C895   N953    1.449   .     S
C895   H941    1.111   .     S
C895   H939    1.109   .     S
C895   H940    1.109   .     S
C896   H945    1.110   .     S
C896   N954    1.441   .     S
C896   H944    1.108   .     S
C896   H943    1.112   .     S
C897   C899    1.417   .     A
C897   H947    1.082   .     S
C898   N962    1.419   .     S
C898   N951    1.371   .     A
C899   N952    1.416   .     S
C899   N955    1.382   .     A
C900   N953    1.428   .     S
C900   N951    1.379   .     A
C900   C902    1.419   .     A
C901   N955    1.381   .     A
C901   N954    1.409   .     S
C902   H948    1.079   .     S
H903   C655    1.088   1_655 S
H907   N957    1.032   .     S
H911   N958    1.025   .     S
H916   N959    1.031   .     S
H920   N960    1.030   .     S
H921   C1215   1.109   .     S
H922   C1215   1.110   .     S
H924   N961    1.029   .     S
H927   C1216   1.110   1_545 S
H928   C1216   1.109   1_545 S
H929   N962    1.031   .     S
H933   N952    1.031   .     S
H938   N953    1.021   .     S
H942   N954    1.031   .     S
H950   N956    1.030   .     S
N951   Zn972   2.024   .     S
N955   Zn971   2.024   .     S
O963   Zn971   2.015   .     S
O964   Zn972   2.015   .     S
O965   Zn972   1.994   .     S
O966   Zn971   1.994   .     S
O967   Zn971   1.984   .     S
O968   Zn972   1.984   .     S
O969   Zn972   1.980   .     S
O970   Zn971   1.980   .     S
C973   O1073   1.287   .     A
C973   O1071   1.294   .     A
C973   C986    1.433   .     S
C974   H1057   1.083   .     S
C974   C976    1.395   .     A
C974   C1009   1.414   .     A
C975   C995    1.406   .     A
C975   C1010   1.399   .     A
C976   C1005   1.403   .     A
C976   C327    1.517   1_556 S
C977   O1075   1.289   .     A
C977   O1077   1.281   .     A
C977   C979    1.404   .     S
C978   O1076   1.284   .     A
C978   C980    1.401   .     S
C978   O1078   1.285   .     A
C979   C1196   1.322   1_455 S
C979   H1227   1.088   1_455 S
C980   C1087   1.322   .     S
C980   H1130   1.079   .     S
C981   H1033   1.084   .     S
C981   C992    1.394   .     A
C981   C983    1.381   .     A
C982   C993    1.395   .     A
C982   C985    1.381   .     A
C982   H1044   1.084   .     S
C983   C986    1.404   .     A
C983   N1064   1.426   .     S
C984   O1074   1.289   .     A
C984   C987    1.443   .     S
C984   O1072   1.298   .     A
C985   N1065   1.422   .     S
C985   C987    1.404   .     A
C986   C988    1.405   .     A
C987   C989    1.410   .     A
C988   N1066   1.424   .     S
C988   C990    1.405   .     A
C989   N1067   1.427   .     S
C989   C991    1.402   .     A
C990   N1068   1.428   .     S
C990   C992    1.414   .     A
C991   N1069   1.429   .     S
C991   C993    1.416   .     A
C993   C668    1.458   1_565 S
C994   H1013   1.107   .     S
C994   H1012   1.112   .     S
C994   H1014   1.104   .     S
C994   N1064   1.452   .     S
C995   H1054   1.082   .     S
C995   C1006   1.417   .     A
C996   H1017   1.108   .     S
C996   H1016   1.112   .     S
C996   H1018   1.111   .     S
C996   N1065   1.449   .     S
C997   N1066   1.447   .     S
C997   H1023   1.109   .     S
C997   H1020   1.110   .     S
C997   H1021   1.110   .     S
C998   H1027   1.110   .     S
C998   H1026   1.112   .     S
C998   H1025   1.110   .     S
C998   N1067   1.449   .     S
C999   N1068   1.447   .     S
C999   H1031   1.111   .     S
C1000  N1069   1.447   .     S
C1000  H1034   1.111   .     S
C1000  H711    1.110   1_565 S
C1000  H712    1.109   1_565 S
C1001  N1070   1.447   .     S
C1001  H1039   1.111   .     S
C1001  H1040   1.109   .     S
C1001  H1038   1.110   .     S
C1002  H1043   1.109   .     S
C1002  H1042   1.112   .     S
C1002  H1045   1.111   .     S
C1002  N1060   1.446   .     S
C1003  N1061   1.449   .     S
C1003  H1049   1.111   .     S
C1003  H1047   1.109   .     S
C1003  H1048   1.109   .     S
C1004  H1053   1.110   .     S
C1004  N1062   1.441   .     S
C1004  H1052   1.108   .     S
C1004  H1051   1.112   .     S
C1005  C1007   1.417   .     A
C1005  H1055   1.082   .     S
C1006  N1070   1.419   .     S
C1006  N1059   1.371   .     A
C1007  N1060   1.416   .     S
C1007  N1063   1.382   .     A
C1008  N1061   1.428   .     S
C1008  N1059   1.379   .     A
C1008  C1010   1.419   .     A
C1009  N1063   1.381   .     A
C1009  N1062   1.409   .     S
C1010  H1056   1.079   .     S
H1011  C1087   1.088   .     S
H1015  N1065   1.032   .     S
H1019  N1066   1.025   .     S
H1022  C1196   1.079   1_455 S
H1024  N1067   1.031   .     S
H1028  N1068   1.030   .     S
H1029  C675    1.109   1_565 S
H1030  C675    1.110   1_565 S
H1032  N1069   1.029   .     S
H1037  N1070   1.031   .     S
H1041  N1060   1.031   .     S
H1046  N1061   1.021   .     S
H1050  N1062   1.031   .     S
H1058  N1064   1.030   .     S
N1059  Zn1080  2.024   .     S
N1063  Zn1079  2.024   .     S
O1071  Zn1079  2.015   .     S
O1072  Zn1080  2.015   .     S
O1073  Zn1080  1.994   .     S
O1074  Zn1079  1.994   .     S
O1075  Zn1079  1.984   .     S
O1076  Zn1080  1.984   .     S
O1077  Zn1080  1.980   .     S
O1078  Zn1079  1.980   .     S
C1081  O1181   1.287   .     A
C1081  O1179   1.294   .     A
C1081  C1094   1.433   .     S
C1082  H1165   1.083   .     S
C1082  C1084   1.395   .     A
C1082  C1117   1.414   .     A
C1083  C1103   1.406   .     A
C1083  C1118   1.399   .     A
C1084  C1113   1.403   .     A
C1084  C435    1.517   1_556 S
C1085  O1183   1.289   .     A
C1085  O1185   1.281   .     A
C1085  C1087   1.404   .     S
C1086  O1184   1.284   .     A
C1086  C1088   1.401   .     S
C1086  O1186   1.285   .     A
C1088  C1195   1.322   .     S
C1088  H1238   1.079   .     S
C1089  H1141   1.084   .     S
C1089  C1100   1.394   .     A
C1089  C1091   1.381   .     A
C1090  C1101   1.395   .     A
C1090  C1093   1.381   .     A
C1090  H1152   1.084   .     S
C1091  C1094   1.404   .     A
C1091  N1172   1.426   .     S
C1092  O1182   1.289   .     A
C1092  C1095   1.443   .     S
C1092  O1180   1.298   .     A
C1093  N1173   1.422   .     S
C1093  C1095   1.404   .     A
C1094  C1096   1.405   .     A
C1095  C1097   1.410   .     A
C1096  N1174   1.424   .     S
C1096  C1098   1.405   .     A
C1097  N1175   1.427   .     S
C1097  C1099   1.402   .     A
C1098  N1176   1.428   .     S
C1098  C1100   1.414   .     A
C1099  N1177   1.429   .     S
C1099  C1101   1.416   .     A
C1101  C776    1.458   1_565 S
C1102  H1121   1.107   .     S
C1102  H1120   1.112   .     S
C1102  H1122   1.104   .     S
C1102  N1172   1.452   .     S
C1103  H1162   1.082   .     S
C1103  C1114   1.417   .     A
C1104  H1125   1.108   .     S
C1104  H1124   1.112   .     S
C1104  H1126   1.111   .     S
C1104  N1173   1.449   .     S
C1105  N1174   1.447   .     S
C1105  H1131   1.109   .     S
C1105  H1128   1.110   .     S
C1105  H1129   1.110   .     S
C1106  H1135   1.110   .     S
C1106  H1134   1.112   .     S
C1106  H1133   1.110   .     S
C1106  N1175   1.449   .     S
C1107  N1176   1.447   .     S
C1107  H1139   1.111   .     S
C1108  N1177   1.447   .     S
C1108  H1142   1.111   .     S
C1108  H819    1.110   1_565 S
C1108  H820    1.109   1_565 S
C1109  N1178   1.447   .     S
C1109  H1147   1.111   .     S
C1109  H1148   1.109   .     S
C1109  H1146   1.110   .     S
C1110  H1151   1.109   .     S
C1110  H1150   1.112   .     S
C1110  H1153   1.111   .     S
C1110  N1168   1.446   .     S
C1111  N1169   1.449   .     S
C1111  H1157   1.111   .     S
C1111  H1155   1.109   .     S
C1111  H1156   1.109   .     S
C1112  H1161   1.110   .     S
C1112  N1170   1.441   .     S
C1112  H1160   1.108   .     S
C1112  H1159   1.112   .     S
C1113  C1115   1.417   .     A
C1113  H1163   1.082   .     S
C1114  N1178   1.419   .     S
C1114  N1167   1.371   .     A
C1115  N1168   1.416   .     S
C1115  N1171   1.382   .     A
C1116  N1169   1.428   .     S
C1116  N1167   1.379   .     A
C1116  C1118   1.419   .     A
C1117  N1171   1.381   .     A
C1117  N1170   1.409   .     S
C1118  H1164   1.079   .     S
H1119  C1195   1.088   .     S
H1123  N1173   1.032   .     S
H1127  N1174   1.025   .     S
H1132  N1175   1.031   .     S
H1136  N1176   1.030   .     S
H1137  C783    1.109   1_565 S
H1138  C783    1.110   1_565 S
H1140  N1177   1.029   .     S
H1145  N1178   1.031   .     S
H1149  N1168   1.031   .     S
H1154  N1169   1.021   .     S
H1158  N1170   1.031   .     S
H1166  N1172   1.030   .     S
N1167  Zn1188  2.024   .     S
N1171  Zn1187  2.024   .     S
O1179  Zn1187  2.015   .     S
O1180  Zn1188  2.015   .     S
O1181  Zn1188  1.994   .     S
O1182  Zn1187  1.994   .     S
O1183  Zn1187  1.984   .     S
O1184  Zn1188  1.984   .     S
O1185  Zn1188  1.980   .     S
O1186  Zn1187  1.980   .     S
C1189  O1289   1.287   .     A
C1189  O1287   1.294   .     A
C1189  C1202   1.433   .     S
C1190  H1273   1.083   .     S
C1190  C1192   1.395   .     A
C1190  C1225   1.414   .     A
C1191  C1211   1.406   .     A
C1191  C1226   1.399   .     A
C1192  C1221   1.403   .     A
C1192  C543    1.517   1_556 S
C1193  O1291   1.289   .     A
C1193  O1293   1.281   .     A
C1193  C1195   1.404   .     S
C1194  O1292   1.284   .     A
C1194  C1196   1.401   .     S
C1194  O1294   1.285   .     A
C1196  C979    1.322   1_655 S
C1196  H1022   1.079   1_655 S
C1197  H1249   1.084   .     S
C1197  C1208   1.394   .     A
C1197  C1199   1.381   .     A
C1198  C1209   1.395   .     A
C1198  C1201   1.381   .     A
C1198  H1260   1.084   .     S
C1199  C1202   1.404   .     A
C1199  N1280   1.426   .     S
C1200  O1290   1.289   .     A
C1200  C1203   1.443   .     S
C1200  O1288   1.298   .     A
C1201  N1281   1.422   .     S
C1201  C1203   1.404   .     A
C1202  C1204   1.405   .     A
C1203  C1205   1.410   .     A
C1204  N1282   1.424   .     S
C1204  C1206   1.405   .     A
C1205  N1283   1.427   .     S
C1205  C1207   1.402   .     A
C1206  N1284   1.428   .     S
C1206  C1208   1.414   .     A
C1207  N1285   1.429   .     S
C1207  C1209   1.416   .     A
C1209  C884    1.458   1_565 S
C1210  H1229   1.107   .     S
C1210  H1228   1.112   .     S
C1210  H1230   1.104   .     S
C1210  N1280   1.452   .     S
C1211  H1270   1.082   .     S
C1211  C1222   1.417   .     A
C1212  H1233   1.108   .     S
C1212  H1232   1.112   .     S
C1212  H1234   1.111   .     S
C1212  N1281   1.449   .     S
C1213  N1282   1.447   .     S
C1213  H1239   1.109   .     S
C1213  H1236   1.110   .     S
C1213  H1237   1.110   .     S
C1214  H1243   1.110   .     S
C1214  H1242   1.112   .     S
C1214  H1241   1.110   .     S
C1214  N1283   1.449   .     S
C1215  N1284   1.447   .     S
C1215  H1247   1.111   .     S
C1216  N1285   1.447   .     S
C1216  H1250   1.111   .     S
C1216  H927    1.110   1_565 S
C1216  H928    1.109   1_565 S
C1217  N1286   1.447   .     S
C1217  H1255   1.111   .     S
C1217  H1256   1.109   .     S
C1217  H1254   1.110   .     S
C1218  H1259   1.109   .     S
C1218  H1258   1.112   .     S
C1218  H1261   1.111   .     S
C1218  N1276   1.446   .     S
C1219  N1277   1.449   .     S
C1219  H1265   1.111   .     S
C1219  H1263   1.109   .     S
C1219  H1264   1.109   .     S
C1220  H1269   1.110   .     S
C1220  N1278   1.441   .     S
C1220  H1268   1.108   .     S
C1220  H1267   1.112   .     S
C1221  C1223   1.417   .     A
C1221  H1271   1.082   .     S
C1222  N1286   1.419   .     S
C1222  N1275   1.371   .     A
C1223  N1276   1.416   .     S
C1223  N1279   1.382   .     A
C1224  N1277   1.428   .     S
C1224  N1275   1.379   .     A
C1224  C1226   1.419   .     A
C1225  N1279   1.381   .     A
C1225  N1278   1.409   .     S
C1226  H1272   1.079   .     S
H1227  C979    1.088   1_655 S
H1231  N1281   1.032   .     S
H1235  N1282   1.025   .     S
H1240  N1283   1.031   .     S
H1244  N1284   1.030   .     S
H1245  C891    1.109   1_565 S
H1246  C891    1.110   1_565 S
H1248  N1285   1.029   .     S
H1253  N1286   1.031   .     S
H1257  N1276   1.031   .     S
H1262  N1277   1.021   .     S
H1266  N1278   1.031   .     S
H1274  N1280   1.030   .     S
N1275  Zn1296  2.024   .     S
N1279  Zn1295  2.024   .     S
O1287  Zn1295  2.015   .     S
O1288  Zn1296  2.015   .     S
O1289  Zn1296  1.994   .     S
O1290  Zn1295  1.994   .     S
O1291  Zn1295  1.984   .     S
O1292  Zn1296  1.984   .     S
O1293  Zn1296  1.980   .     S
O1294  Zn1295  1.980   .     S
