data_str_m3_o1_o16_pcu_sym.106
_audit_creation_date              2020-01-03
_audit_creation_method            'Materials Studio'
_symmetry_space_group_name_H-M    'P1'
_symmetry_Int_Tables_number       1
_symmetry_cell_setting            triclinic
loop_
_symmetry_equiv_pos_as_xyz
  x,y,z
_cell_length_a                    29.5345
_cell_length_b                    31.9804
_cell_length_c                    26.2323
_cell_angle_alpha                 90.4062
_cell_angle_beta                  70.0772
_cell_angle_gamma                 89.9636
loop_
_atom_site_label
_atom_site_type_symbol
_atom_site_fract_x
_atom_site_fract_y
_atom_site_fract_z
_atom_site_U_iso_or_equiv
_atom_site_adp_type
_atom_site_occupancy
C1     C     0.16652   0.24666   0.25051   0.00000  Uiso   1.00
C2     C     0.14307   0.15433   0.49231   0.00000  Uiso   1.00
C3     C     0.15372   0.14427   0.43721   0.00000  Uiso   1.00
C4     C     0.18010   0.15014   0.01465   0.00000  Uiso   1.00
C5     C     0.22352   0.12888   0.48555   0.00000  Uiso   1.00
C6     C     0.22993   0.11280   0.43406   0.00000  Uiso   1.00
C7     C     0.19551   0.12049   0.41000   0.00000  Uiso   1.00
C8     C     0.17559   0.16788   0.06459   0.00000  Uiso   1.00
C9     C     0.25202   0.13843   0.06128   0.00000  Uiso   1.00
C10    C     0.12255   0.15903   0.41075   0.00000  Uiso   1.00
C11    C     0.20869   0.31188   0.22463   0.00000  Uiso   1.00
C12    C     0.14003   0.16402   0.35201   0.00000  Uiso   1.00
C13    C     0.20847   0.02134   0.22502   0.00000  Uiso   1.00
C14    C     0.16599   0.04258   0.25353   0.00000  Uiso   1.00
C15    C     0.12380   0.02140   0.28411   0.00000  Uiso   1.00
C16    C     0.12385   0.31172   0.28160   0.00000  Uiso   1.00
C17    C     0.16623   0.29076   0.25208   0.00000  Uiso   1.00
C18    C     0.32040   0.14285   0.21349   0.00000  Uiso   1.00
C19    C     0.03502   0.14284   0.21351   0.00000  Uiso   1.00
C20    C     0.01290   0.19042   0.28660   0.00000  Uiso   1.00
C21    C     0.29829   0.19042   0.28657   0.00000  Uiso   1.00
C22    C     0.16646   0.08669   0.25073   0.00000  Uiso   1.00
C23    C     0.19333   0.16629   0.14778   0.00000  Uiso   1.00
C24    C     0.25955   0.12372   0.00878   0.00000  Uiso   1.00
C25    C     0.20924   0.15970   0.08950   0.00000  Uiso   1.00
C26    C     0.07636   0.17362   0.44121   0.00000  Uiso   1.00
C27    C     0.06261   0.17669   0.49725   0.00000  Uiso   1.00
C28    C     0.09595   0.16838   0.02271   0.00000  Uiso   1.00
H29    H     0.27836   0.13167   0.08046   0.00000  Uiso   1.00
H30    H     0.24103   0.03784   0.20208   0.00000  Uiso   1.00
H31    H     0.09135   0.29475   0.30354   0.00000  Uiso   1.00
H32    H     0.31108   0.12382   0.18427   0.00000  Uiso   1.00
H33    H     0.06199   0.12377   0.18431   0.00000  Uiso   1.00
H34    H     0.02222   0.20941   0.31583   0.00000  Uiso   1.00
H35    H     0.27131   0.20946   0.31580   0.00000  Uiso   1.00
H36    H     0.26206   0.09520   0.41184   0.00000  Uiso   1.00
H37    H     0.29263   0.10717   0.48714   0.00000  Uiso   1.00
H38    H     0.14503   0.18736   0.08591   0.00000  Uiso   1.00
H39    H     0.05137   0.18373   0.42161   0.00000  Uiso   1.00
H40    H     0.08367   0.17210   0.06624   0.00000  Uiso   1.00
H41    H     0.02673   0.18741   0.02080   0.00000  Uiso   1.00
H42    H     0.20171   0.10715   0.37019   0.00000  Uiso   1.00
H43    H     0.24145   0.29530   0.20183   0.00000  Uiso   1.00
N44    N     0.04760   0.16668   0.25002   0.00000  Uiso   1.00
N45    N     0.28573   0.16665   0.25001   0.00000  Uiso   1.00
O46    O     0.12846   0.22775   0.25001   0.00000  Uiso   1.00
O47    O     0.20490   0.22774   0.25001   0.00000  Uiso   1.00
O48    O     0.10947   0.16666   0.32681   0.00000  Uiso   1.00
O49    O     0.18591   0.16665   0.32681   0.00000  Uiso   1.00
O50    O     0.12843   0.10559   0.24999   0.00000  Uiso   1.00
O51    O     0.20488   0.10558   0.24999   0.00000  Uiso   1.00
O52    O     0.14742   0.16668   0.17319   0.00000  Uiso   1.00
O53    O     0.22387   0.16667   0.17319   0.00000  Uiso   1.00
Zn54   Zn    0.11562   0.16667   0.25000   0.00000  Uiso   1.00
Zn55   Zn    0.21771   0.16666   0.25000   0.00000  Uiso   1.00
O56    O     0.08164   0.04211   0.31358   0.00000  Uiso   1.00
C57    C     0.08574   0.05958   0.36163   0.00000  Uiso   1.00
H58    H     0.06498   0.08934   0.37014   0.00000  Uiso   1.00
H59    H     0.12338   0.06768   0.35838   0.00000  Uiso   1.00
C60    C     0.06396   0.03019   0.40948   0.00000  Uiso   1.00
H61    H     0.02585   0.02361   0.41396   0.00000  Uiso   1.00
H62    H     0.08423   0.00017   0.40170   0.00000  Uiso   1.00
C63    C     0.06588   0.04952   0.46210   0.00000  Uiso   1.00
H64    H     0.10381   0.05546   0.45892   0.00000  Uiso   1.00
H65    H     0.04955   0.02772   0.49616   0.00000  Uiso   1.00
H66    H     0.04550   0.07945   0.47104   0.00000  Uiso   1.00
C67    C     0.49986   0.24666   0.25051   0.00000  Uiso   1.00
C68    C     0.47640   0.15433   0.49231   0.00000  Uiso   1.00
C69    C     0.48705   0.14427   0.43721   0.00000  Uiso   1.00
C70    C     0.51343   0.15014   0.01465   0.00000  Uiso   1.00
C71    C     0.55685   0.12888   0.48555   0.00000  Uiso   1.00
C72    C     0.56326   0.11280   0.43406   0.00000  Uiso   1.00
C73    C     0.52885   0.12049   0.41000   0.00000  Uiso   1.00
C74    C     0.50892   0.16788   0.06459   0.00000  Uiso   1.00
C75    C     0.58535   0.13843   0.06128   0.00000  Uiso   1.00
C76    C     0.45588   0.15903   0.41075   0.00000  Uiso   1.00
C77    C     0.54202   0.31188   0.22463   0.00000  Uiso   1.00
C78    C     0.47336   0.16402   0.35201   0.00000  Uiso   1.00
C79    C     0.54181   0.02134   0.22502   0.00000  Uiso   1.00
C80    C     0.49933   0.04258   0.25353   0.00000  Uiso   1.00
C81    C     0.45713   0.02140   0.28411   0.00000  Uiso   1.00
C82    C     0.45718   0.31172   0.28160   0.00000  Uiso   1.00
C83    C     0.49957   0.29076   0.25208   0.00000  Uiso   1.00
C84    C     0.65374   0.14285   0.21349   0.00000  Uiso   1.00
C85    C     0.36835   0.14284   0.21351   0.00000  Uiso   1.00
C86    C     0.34624   0.19042   0.28660   0.00000  Uiso   1.00
C87    C     0.63162   0.19042   0.28657   0.00000  Uiso   1.00
C88    C     0.49980   0.08669   0.25073   0.00000  Uiso   1.00
C89    C     0.52667   0.16629   0.14778   0.00000  Uiso   1.00
C90    C     0.59288   0.12372   0.00878   0.00000  Uiso   1.00
C91    C     0.54258   0.15970   0.08950   0.00000  Uiso   1.00
C92    C     0.40969   0.17362   0.44121   0.00000  Uiso   1.00
C93    C     0.39594   0.17669   0.49725   0.00000  Uiso   1.00
C94    C     0.42929   0.16838   0.02271   0.00000  Uiso   1.00
H95    H     0.61170   0.13167   0.08046   0.00000  Uiso   1.00
H96    H     0.57436   0.03784   0.20208   0.00000  Uiso   1.00
H97    H     0.42468   0.29475   0.30354   0.00000  Uiso   1.00
H98    H     0.64441   0.12382   0.18427   0.00000  Uiso   1.00
H99    H     0.39533   0.12377   0.18431   0.00000  Uiso   1.00
H100   H     0.35555   0.20941   0.31583   0.00000  Uiso   1.00
H101   H     0.60464   0.20946   0.31580   0.00000  Uiso   1.00
H102   H     0.59540   0.09520   0.41184   0.00000  Uiso   1.00
H103   H     0.62596   0.10717   0.48714   0.00000  Uiso   1.00
H104   H     0.47836   0.18736   0.08591   0.00000  Uiso   1.00
H105   H     0.38471   0.18373   0.42161   0.00000  Uiso   1.00
H106   H     0.41700   0.17210   0.06624   0.00000  Uiso   1.00
H107   H     0.36006   0.18741   0.02080   0.00000  Uiso   1.00
H108   H     0.53505   0.10715   0.37019   0.00000  Uiso   1.00
H109   H     0.57478   0.29530   0.20183   0.00000  Uiso   1.00
N110   N     0.38093   0.16668   0.25002   0.00000  Uiso   1.00
N111   N     0.61906   0.16665   0.25001   0.00000  Uiso   1.00
O112   O     0.46179   0.22775   0.25001   0.00000  Uiso   1.00
O113   O     0.53823   0.22774   0.25001   0.00000  Uiso   1.00
O114   O     0.44280   0.16666   0.32681   0.00000  Uiso   1.00
O115   O     0.51924   0.16665   0.32681   0.00000  Uiso   1.00
O116   O     0.46177   0.10559   0.24999   0.00000  Uiso   1.00
O117   O     0.53821   0.10558   0.24999   0.00000  Uiso   1.00
O118   O     0.48076   0.16668   0.17319   0.00000  Uiso   1.00
O119   O     0.55720   0.16667   0.17319   0.00000  Uiso   1.00
Zn120  Zn    0.44896   0.16667   0.25000   0.00000  Uiso   1.00
Zn121  Zn    0.55104   0.16666   0.25000   0.00000  Uiso   1.00
O122   O     0.41498   0.04211   0.31358   0.00000  Uiso   1.00
C123   C     0.41908   0.05958   0.36163   0.00000  Uiso   1.00
H124   H     0.39831   0.08934   0.37014   0.00000  Uiso   1.00
H125   H     0.45671   0.06768   0.35838   0.00000  Uiso   1.00
C126   C     0.39730   0.03019   0.40948   0.00000  Uiso   1.00
H127   H     0.35918   0.02361   0.41396   0.00000  Uiso   1.00
H128   H     0.41757   0.00017   0.40170   0.00000  Uiso   1.00
C129   C     0.39921   0.04952   0.46210   0.00000  Uiso   1.00
H130   H     0.43714   0.05546   0.45892   0.00000  Uiso   1.00
H131   H     0.38288   0.02772   0.49616   0.00000  Uiso   1.00
H132   H     0.37884   0.07945   0.47104   0.00000  Uiso   1.00
C133   C     0.83319   0.24666   0.25051   0.00000  Uiso   1.00
C134   C     0.80974   0.15433   0.49231   0.00000  Uiso   1.00
C135   C     0.82039   0.14427   0.43721   0.00000  Uiso   1.00
C136   C     0.84676   0.15014   0.01465   0.00000  Uiso   1.00
C137   C     0.89018   0.12888   0.48555   0.00000  Uiso   1.00
C138   C     0.89659   0.11280   0.43406   0.00000  Uiso   1.00
C139   C     0.86218   0.12049   0.41000   0.00000  Uiso   1.00
C140   C     0.84226   0.16788   0.06459   0.00000  Uiso   1.00
C141   C     0.91868   0.13843   0.06128   0.00000  Uiso   1.00
C142   C     0.78922   0.15903   0.41075   0.00000  Uiso   1.00
C143   C     0.87536   0.31188   0.22463   0.00000  Uiso   1.00
C144   C     0.80669   0.16402   0.35201   0.00000  Uiso   1.00
C145   C     0.87514   0.02134   0.22502   0.00000  Uiso   1.00
C146   C     0.83266   0.04258   0.25353   0.00000  Uiso   1.00
C147   C     0.79046   0.02140   0.28411   0.00000  Uiso   1.00
C148   C     0.79052   0.31172   0.28160   0.00000  Uiso   1.00
C149   C     0.83290   0.29076   0.25208   0.00000  Uiso   1.00
C150   C     0.98707   0.14285   0.21349   0.00000  Uiso   1.00
C151   C     0.70168   0.14284   0.21351   0.00000  Uiso   1.00
C152   C     0.67957   0.19042   0.28660   0.00000  Uiso   1.00
C153   C     0.96496   0.19042   0.28657   0.00000  Uiso   1.00
C154   C     0.83313   0.08669   0.25073   0.00000  Uiso   1.00
C155   C     0.86000   0.16629   0.14778   0.00000  Uiso   1.00
C156   C     0.92622   0.12372   0.00878   0.00000  Uiso   1.00
C157   C     0.87591   0.15970   0.08950   0.00000  Uiso   1.00
C158   C     0.74302   0.17362   0.44121   0.00000  Uiso   1.00
C159   C     0.72928   0.17669   0.49725   0.00000  Uiso   1.00
C160   C     0.76262   0.16838   0.02271   0.00000  Uiso   1.00
H161   H     0.94503   0.13167   0.08046   0.00000  Uiso   1.00
H162   H     0.90769   0.03784   0.20208   0.00000  Uiso   1.00
H163   H     0.75801   0.29475   0.30354   0.00000  Uiso   1.00
H164   H     0.97775   0.12382   0.18427   0.00000  Uiso   1.00
H165   H     0.72866   0.12377   0.18431   0.00000  Uiso   1.00
H166   H     0.68889   0.20941   0.31583   0.00000  Uiso   1.00
H167   H     0.93797   0.20946   0.31580   0.00000  Uiso   1.00
H168   H     0.92873   0.09520   0.41184   0.00000  Uiso   1.00
H169   H     0.95930   0.10717   0.48714   0.00000  Uiso   1.00
H170   H     0.81170   0.18736   0.08591   0.00000  Uiso   1.00
H171   H     0.71804   0.18373   0.42161   0.00000  Uiso   1.00
H172   H     0.75033   0.17210   0.06624   0.00000  Uiso   1.00
H173   H     0.69340   0.18741   0.02080   0.00000  Uiso   1.00
H174   H     0.86838   0.10715   0.37019   0.00000  Uiso   1.00
H175   H     0.90812   0.29530   0.20183   0.00000  Uiso   1.00
N176   N     0.71426   0.16668   0.25002   0.00000  Uiso   1.00
N177   N     0.95239   0.16665   0.25001   0.00000  Uiso   1.00
O178   O     0.79512   0.22775   0.25001   0.00000  Uiso   1.00
O179   O     0.87157   0.22774   0.25001   0.00000  Uiso   1.00
O180   O     0.77613   0.16666   0.32681   0.00000  Uiso   1.00
O181   O     0.85258   0.16665   0.32681   0.00000  Uiso   1.00
O182   O     0.79510   0.10559   0.24999   0.00000  Uiso   1.00
O183   O     0.87154   0.10558   0.24999   0.00000  Uiso   1.00
O184   O     0.81409   0.16668   0.17319   0.00000  Uiso   1.00
O185   O     0.89053   0.16667   0.17319   0.00000  Uiso   1.00
Zn186  Zn    0.78229   0.16667   0.25000   0.00000  Uiso   1.00
Zn187  Zn    0.88438   0.16666   0.25000   0.00000  Uiso   1.00
O188   O     0.74831   0.04211   0.31358   0.00000  Uiso   1.00
C189   C     0.75241   0.05958   0.36163   0.00000  Uiso   1.00
H190   H     0.73165   0.08934   0.37014   0.00000  Uiso   1.00
H191   H     0.79005   0.06768   0.35838   0.00000  Uiso   1.00
C192   C     0.73063   0.03019   0.40948   0.00000  Uiso   1.00
H193   H     0.69252   0.02361   0.41396   0.00000  Uiso   1.00
H194   H     0.75090   0.00017   0.40170   0.00000  Uiso   1.00
C195   C     0.73255   0.04952   0.46210   0.00000  Uiso   1.00
H196   H     0.77047   0.05546   0.45892   0.00000  Uiso   1.00
H197   H     0.71621   0.02772   0.49616   0.00000  Uiso   1.00
H198   H     0.71217   0.07945   0.47104   0.00000  Uiso   1.00
C199   C     0.16652   0.57999   0.25051   0.00000  Uiso   1.00
C200   C     0.14307   0.48767   0.49231   0.00000  Uiso   1.00
C201   C     0.15372   0.47761   0.43721   0.00000  Uiso   1.00
C202   C     0.18010   0.48347   0.01465   0.00000  Uiso   1.00
C203   C     0.22352   0.46221   0.48555   0.00000  Uiso   1.00
C204   C     0.22993   0.44613   0.43406   0.00000  Uiso   1.00
C205   C     0.19551   0.45382   0.41000   0.00000  Uiso   1.00
C206   C     0.17559   0.50121   0.06459   0.00000  Uiso   1.00
C207   C     0.25202   0.47176   0.06128   0.00000  Uiso   1.00
C208   C     0.12255   0.49236   0.41075   0.00000  Uiso   1.00
C209   C     0.20869   0.64521   0.22463   0.00000  Uiso   1.00
C210   C     0.14003   0.49736   0.35201   0.00000  Uiso   1.00
C211   C     0.20847   0.35467   0.22502   0.00000  Uiso   1.00
C212   C     0.16599   0.37591   0.25353   0.00000  Uiso   1.00
C213   C     0.12380   0.35473   0.28411   0.00000  Uiso   1.00
C214   C     0.12385   0.64505   0.28160   0.00000  Uiso   1.00
C215   C     0.16623   0.62409   0.25208   0.00000  Uiso   1.00
C216   C     0.32040   0.47618   0.21349   0.00000  Uiso   1.00
C217   C     0.03502   0.47617   0.21351   0.00000  Uiso   1.00
C218   C     0.01290   0.52375   0.28660   0.00000  Uiso   1.00
C219   C     0.29829   0.52375   0.28657   0.00000  Uiso   1.00
C220   C     0.16646   0.42003   0.25073   0.00000  Uiso   1.00
C221   C     0.19333   0.49962   0.14778   0.00000  Uiso   1.00
C222   C     0.25955   0.45706   0.00878   0.00000  Uiso   1.00
C223   C     0.20924   0.49304   0.08950   0.00000  Uiso   1.00
C224   C     0.07636   0.50695   0.44121   0.00000  Uiso   1.00
C225   C     0.06261   0.51003   0.49725   0.00000  Uiso   1.00
C226   C     0.09595   0.50171   0.02271   0.00000  Uiso   1.00
H227   H     0.27836   0.46500   0.08046   0.00000  Uiso   1.00
H228   H     0.24103   0.37117   0.20208   0.00000  Uiso   1.00
H229   H     0.09135   0.62808   0.30354   0.00000  Uiso   1.00
H230   H     0.31108   0.45716   0.18427   0.00000  Uiso   1.00
H231   H     0.06199   0.45711   0.18431   0.00000  Uiso   1.00
H232   H     0.02222   0.54275   0.31583   0.00000  Uiso   1.00
H233   H     0.27131   0.54280   0.31580   0.00000  Uiso   1.00
H234   H     0.26206   0.42853   0.41184   0.00000  Uiso   1.00
H235   H     0.29263   0.44050   0.48714   0.00000  Uiso   1.00
H236   H     0.14503   0.52070   0.08591   0.00000  Uiso   1.00
H237   H     0.05137   0.51706   0.42161   0.00000  Uiso   1.00
H238   H     0.08367   0.50543   0.06624   0.00000  Uiso   1.00
H239   H     0.02673   0.52074   0.02080   0.00000  Uiso   1.00
H240   H     0.20171   0.44048   0.37019   0.00000  Uiso   1.00
H241   H     0.24145   0.62864   0.20183   0.00000  Uiso   1.00
N242   N     0.04760   0.50001   0.25002   0.00000  Uiso   1.00
N243   N     0.28573   0.49998   0.25001   0.00000  Uiso   1.00
O244   O     0.12846   0.56108   0.25001   0.00000  Uiso   1.00
O245   O     0.20490   0.56107   0.25001   0.00000  Uiso   1.00
O246   O     0.10947   0.50000   0.32681   0.00000  Uiso   1.00
O247   O     0.18591   0.49999   0.32681   0.00000  Uiso   1.00
O248   O     0.12843   0.43893   0.24999   0.00000  Uiso   1.00
O249   O     0.20488   0.43892   0.24999   0.00000  Uiso   1.00
O250   O     0.14742   0.50001   0.17319   0.00000  Uiso   1.00
O251   O     0.22387   0.50000   0.17319   0.00000  Uiso   1.00
Zn252  Zn    0.11562   0.50001   0.25000   0.00000  Uiso   1.00
Zn253  Zn    0.21771   0.49999   0.25000   0.00000  Uiso   1.00
O254   O     0.08164   0.37544   0.31358   0.00000  Uiso   1.00
C255   C     0.08574   0.39292   0.36163   0.00000  Uiso   1.00
H256   H     0.06498   0.42267   0.37014   0.00000  Uiso   1.00
H257   H     0.12338   0.40101   0.35838   0.00000  Uiso   1.00
C258   C     0.06396   0.36353   0.40948   0.00000  Uiso   1.00
H259   H     0.02585   0.35694   0.41396   0.00000  Uiso   1.00
H260   H     0.08423   0.33351   0.40170   0.00000  Uiso   1.00
C261   C     0.06588   0.38285   0.46210   0.00000  Uiso   1.00
H262   H     0.10381   0.38879   0.45892   0.00000  Uiso   1.00
H263   H     0.04955   0.36106   0.49616   0.00000  Uiso   1.00
H264   H     0.04550   0.41279   0.47104   0.00000  Uiso   1.00
C265   C     0.49986   0.57999   0.25051   0.00000  Uiso   1.00
C266   C     0.47640   0.48767   0.49231   0.00000  Uiso   1.00
C267   C     0.48705   0.47761   0.43721   0.00000  Uiso   1.00
C268   C     0.51343   0.48347   0.01465   0.00000  Uiso   1.00
C269   C     0.55685   0.46221   0.48555   0.00000  Uiso   1.00
C270   C     0.56326   0.44613   0.43406   0.00000  Uiso   1.00
C271   C     0.52885   0.45382   0.41000   0.00000  Uiso   1.00
C272   C     0.50892   0.50121   0.06459   0.00000  Uiso   1.00
C273   C     0.58535   0.47176   0.06128   0.00000  Uiso   1.00
C274   C     0.45588   0.49236   0.41075   0.00000  Uiso   1.00
C275   C     0.54202   0.64521   0.22463   0.00000  Uiso   1.00
C276   C     0.47336   0.49736   0.35201   0.00000  Uiso   1.00
C277   C     0.54181   0.35467   0.22502   0.00000  Uiso   1.00
C278   C     0.49933   0.37591   0.25353   0.00000  Uiso   1.00
C279   C     0.45713   0.35473   0.28411   0.00000  Uiso   1.00
C280   C     0.45718   0.64505   0.28160   0.00000  Uiso   1.00
C281   C     0.49957   0.62409   0.25208   0.00000  Uiso   1.00
C282   C     0.65374   0.47618   0.21349   0.00000  Uiso   1.00
C283   C     0.36835   0.47617   0.21351   0.00000  Uiso   1.00
C284   C     0.34624   0.52375   0.28660   0.00000  Uiso   1.00
C285   C     0.63162   0.52375   0.28657   0.00000  Uiso   1.00
C286   C     0.49980   0.42003   0.25073   0.00000  Uiso   1.00
C287   C     0.52667   0.49962   0.14778   0.00000  Uiso   1.00
C288   C     0.59288   0.45706   0.00878   0.00000  Uiso   1.00
C289   C     0.54258   0.49304   0.08950   0.00000  Uiso   1.00
C290   C     0.40969   0.50695   0.44121   0.00000  Uiso   1.00
C291   C     0.39594   0.51003   0.49725   0.00000  Uiso   1.00
C292   C     0.42929   0.50171   0.02271   0.00000  Uiso   1.00
H293   H     0.61170   0.46500   0.08046   0.00000  Uiso   1.00
H294   H     0.57436   0.37117   0.20208   0.00000  Uiso   1.00
H295   H     0.42468   0.62808   0.30354   0.00000  Uiso   1.00
H296   H     0.64441   0.45716   0.18427   0.00000  Uiso   1.00
H297   H     0.39533   0.45711   0.18431   0.00000  Uiso   1.00
H298   H     0.35555   0.54275   0.31583   0.00000  Uiso   1.00
H299   H     0.60464   0.54280   0.31580   0.00000  Uiso   1.00
H300   H     0.59540   0.42853   0.41184   0.00000  Uiso   1.00
H301   H     0.62596   0.44050   0.48714   0.00000  Uiso   1.00
H302   H     0.47836   0.52070   0.08591   0.00000  Uiso   1.00
H303   H     0.38471   0.51706   0.42161   0.00000  Uiso   1.00
H304   H     0.41700   0.50543   0.06624   0.00000  Uiso   1.00
H305   H     0.36006   0.52074   0.02080   0.00000  Uiso   1.00
H306   H     0.53505   0.44048   0.37019   0.00000  Uiso   1.00
H307   H     0.57478   0.62864   0.20183   0.00000  Uiso   1.00
N308   N     0.38093   0.50001   0.25002   0.00000  Uiso   1.00
N309   N     0.61906   0.49998   0.25001   0.00000  Uiso   1.00
O310   O     0.46179   0.56108   0.25001   0.00000  Uiso   1.00
O311   O     0.53823   0.56107   0.25001   0.00000  Uiso   1.00
O312   O     0.44280   0.50000   0.32681   0.00000  Uiso   1.00
O313   O     0.51924   0.49999   0.32681   0.00000  Uiso   1.00
O314   O     0.46177   0.43893   0.24999   0.00000  Uiso   1.00
O315   O     0.53821   0.43892   0.24999   0.00000  Uiso   1.00
O316   O     0.48076   0.50001   0.17319   0.00000  Uiso   1.00
O317   O     0.55720   0.50000   0.17319   0.00000  Uiso   1.00
Zn318  Zn    0.44896   0.50001   0.25000   0.00000  Uiso   1.00
Zn319  Zn    0.55104   0.49999   0.25000   0.00000  Uiso   1.00
O320   O     0.41498   0.37544   0.31358   0.00000  Uiso   1.00
C321   C     0.41908   0.39292   0.36163   0.00000  Uiso   1.00
H322   H     0.39831   0.42267   0.37014   0.00000  Uiso   1.00
H323   H     0.45671   0.40101   0.35838   0.00000  Uiso   1.00
C324   C     0.39730   0.36353   0.40948   0.00000  Uiso   1.00
H325   H     0.35918   0.35694   0.41396   0.00000  Uiso   1.00
H326   H     0.41757   0.33351   0.40170   0.00000  Uiso   1.00
C327   C     0.39921   0.38285   0.46210   0.00000  Uiso   1.00
H328   H     0.43714   0.38879   0.45892   0.00000  Uiso   1.00
H329   H     0.38288   0.36106   0.49616   0.00000  Uiso   1.00
H330   H     0.37884   0.41279   0.47104   0.00000  Uiso   1.00
C331   C     0.83319   0.57999   0.25051   0.00000  Uiso   1.00
C332   C     0.80974   0.48767   0.49231   0.00000  Uiso   1.00
C333   C     0.82039   0.47761   0.43721   0.00000  Uiso   1.00
C334   C     0.84676   0.48347   0.01465   0.00000  Uiso   1.00
C335   C     0.89018   0.46221   0.48555   0.00000  Uiso   1.00
C336   C     0.89659   0.44613   0.43406   0.00000  Uiso   1.00
C337   C     0.86218   0.45382   0.41000   0.00000  Uiso   1.00
C338   C     0.84226   0.50121   0.06459   0.00000  Uiso   1.00
C339   C     0.91868   0.47176   0.06128   0.00000  Uiso   1.00
C340   C     0.78922   0.49236   0.41075   0.00000  Uiso   1.00
C341   C     0.87536   0.64521   0.22463   0.00000  Uiso   1.00
C342   C     0.80669   0.49736   0.35201   0.00000  Uiso   1.00
C343   C     0.87514   0.35467   0.22502   0.00000  Uiso   1.00
C344   C     0.83266   0.37591   0.25353   0.00000  Uiso   1.00
C345   C     0.79046   0.35473   0.28411   0.00000  Uiso   1.00
C346   C     0.79052   0.64505   0.28160   0.00000  Uiso   1.00
C347   C     0.83290   0.62409   0.25208   0.00000  Uiso   1.00
C348   C     0.98707   0.47618   0.21349   0.00000  Uiso   1.00
C349   C     0.70168   0.47617   0.21351   0.00000  Uiso   1.00
C350   C     0.67957   0.52375   0.28660   0.00000  Uiso   1.00
C351   C     0.96496   0.52375   0.28657   0.00000  Uiso   1.00
C352   C     0.83313   0.42003   0.25073   0.00000  Uiso   1.00
C353   C     0.86000   0.49962   0.14778   0.00000  Uiso   1.00
C354   C     0.92622   0.45706   0.00878   0.00000  Uiso   1.00
C355   C     0.87591   0.49304   0.08950   0.00000  Uiso   1.00
C356   C     0.74302   0.50695   0.44121   0.00000  Uiso   1.00
C357   C     0.72928   0.51003   0.49725   0.00000  Uiso   1.00
C358   C     0.76262   0.50171   0.02271   0.00000  Uiso   1.00
H359   H     0.94503   0.46500   0.08046   0.00000  Uiso   1.00
H360   H     0.90769   0.37117   0.20208   0.00000  Uiso   1.00
H361   H     0.75801   0.62808   0.30354   0.00000  Uiso   1.00
H362   H     0.97775   0.45716   0.18427   0.00000  Uiso   1.00
H363   H     0.72866   0.45711   0.18431   0.00000  Uiso   1.00
H364   H     0.68889   0.54275   0.31583   0.00000  Uiso   1.00
H365   H     0.93797   0.54280   0.31580   0.00000  Uiso   1.00
H366   H     0.92873   0.42853   0.41184   0.00000  Uiso   1.00
H367   H     0.95930   0.44050   0.48714   0.00000  Uiso   1.00
H368   H     0.81170   0.52070   0.08591   0.00000  Uiso   1.00
H369   H     0.71804   0.51706   0.42161   0.00000  Uiso   1.00
H370   H     0.75033   0.50543   0.06624   0.00000  Uiso   1.00
H371   H     0.69340   0.52074   0.02080   0.00000  Uiso   1.00
H372   H     0.86838   0.44048   0.37019   0.00000  Uiso   1.00
H373   H     0.90812   0.62864   0.20183   0.00000  Uiso   1.00
N374   N     0.71426   0.50001   0.25002   0.00000  Uiso   1.00
N375   N     0.95239   0.49998   0.25001   0.00000  Uiso   1.00
O376   O     0.79512   0.56108   0.25001   0.00000  Uiso   1.00
O377   O     0.87157   0.56107   0.25001   0.00000  Uiso   1.00
O378   O     0.77613   0.50000   0.32681   0.00000  Uiso   1.00
O379   O     0.85258   0.49999   0.32681   0.00000  Uiso   1.00
O380   O     0.79510   0.43893   0.24999   0.00000  Uiso   1.00
O381   O     0.87154   0.43892   0.24999   0.00000  Uiso   1.00
O382   O     0.81409   0.50001   0.17319   0.00000  Uiso   1.00
O383   O     0.89053   0.50000   0.17319   0.00000  Uiso   1.00
Zn384  Zn    0.78229   0.50001   0.25000   0.00000  Uiso   1.00
Zn385  Zn    0.88438   0.49999   0.25000   0.00000  Uiso   1.00
O386   O     0.74831   0.37544   0.31358   0.00000  Uiso   1.00
C387   C     0.75241   0.39292   0.36163   0.00000  Uiso   1.00
H388   H     0.73165   0.42267   0.37014   0.00000  Uiso   1.00
H389   H     0.79005   0.40101   0.35838   0.00000  Uiso   1.00
C390   C     0.73063   0.36353   0.40948   0.00000  Uiso   1.00
H391   H     0.69252   0.35694   0.41396   0.00000  Uiso   1.00
H392   H     0.75090   0.33351   0.40170   0.00000  Uiso   1.00
C393   C     0.73255   0.38285   0.46210   0.00000  Uiso   1.00
H394   H     0.77047   0.38879   0.45892   0.00000  Uiso   1.00
H395   H     0.71621   0.36106   0.49616   0.00000  Uiso   1.00
H396   H     0.71217   0.41279   0.47104   0.00000  Uiso   1.00
C397   C     0.16652   0.91332   0.25051   0.00000  Uiso   1.00
C398   C     0.14307   0.82100   0.49231   0.00000  Uiso   1.00
C399   C     0.15372   0.81094   0.43721   0.00000  Uiso   1.00
C400   C     0.18010   0.81680   0.01465   0.00000  Uiso   1.00
C401   C     0.22352   0.79555   0.48555   0.00000  Uiso   1.00
C402   C     0.22993   0.77946   0.43406   0.00000  Uiso   1.00
C403   C     0.19551   0.78715   0.41000   0.00000  Uiso   1.00
C404   C     0.17559   0.83455   0.06459   0.00000  Uiso   1.00
C405   C     0.25202   0.80509   0.06128   0.00000  Uiso   1.00
C406   C     0.12255   0.82569   0.41075   0.00000  Uiso   1.00
C407   C     0.20869   0.97855   0.22463   0.00000  Uiso   1.00
C408   C     0.14003   0.83069   0.35201   0.00000  Uiso   1.00
C409   C     0.20847   0.68801   0.22502   0.00000  Uiso   1.00
C410   C     0.16599   0.70925   0.25353   0.00000  Uiso   1.00
C411   C     0.12380   0.68807   0.28411   0.00000  Uiso   1.00
C412   C     0.12385   0.97838   0.28160   0.00000  Uiso   1.00
C413   C     0.16623   0.95743   0.25208   0.00000  Uiso   1.00
C414   C     0.32040   0.80951   0.21349   0.00000  Uiso   1.00
C415   C     0.03502   0.80951   0.21351   0.00000  Uiso   1.00
C416   C     0.01290   0.85708   0.28660   0.00000  Uiso   1.00
C417   C     0.29829   0.85709   0.28657   0.00000  Uiso   1.00
C418   C     0.16646   0.75336   0.25073   0.00000  Uiso   1.00
C419   C     0.19333   0.83295   0.14778   0.00000  Uiso   1.00
C420   C     0.25955   0.79039   0.00878   0.00000  Uiso   1.00
C421   C     0.20924   0.82637   0.08950   0.00000  Uiso   1.00
C422   C     0.07636   0.84029   0.44121   0.00000  Uiso   1.00
C423   C     0.06261   0.84336   0.49725   0.00000  Uiso   1.00
C424   C     0.09595   0.83504   0.02271   0.00000  Uiso   1.00
H425   H     0.27836   0.79833   0.08046   0.00000  Uiso   1.00
H426   H     0.24103   0.70451   0.20208   0.00000  Uiso   1.00
H427   H     0.09135   0.96141   0.30354   0.00000  Uiso   1.00
H428   H     0.31108   0.79049   0.18427   0.00000  Uiso   1.00
H429   H     0.06199   0.79044   0.18431   0.00000  Uiso   1.00
H430   H     0.02222   0.87608   0.31583   0.00000  Uiso   1.00
H431   H     0.27131   0.87613   0.31580   0.00000  Uiso   1.00
H432   H     0.26206   0.76186   0.41184   0.00000  Uiso   1.00
H433   H     0.29263   0.77384   0.48714   0.00000  Uiso   1.00
H434   H     0.14503   0.85403   0.08591   0.00000  Uiso   1.00
H435   H     0.05137   0.85039   0.42161   0.00000  Uiso   1.00
H436   H     0.08367   0.83876   0.06624   0.00000  Uiso   1.00
H437   H     0.02673   0.85408   0.02080   0.00000  Uiso   1.00
H438   H     0.20171   0.77381   0.37019   0.00000  Uiso   1.00
H439   H     0.24145   0.96197   0.20183   0.00000  Uiso   1.00
N440   N     0.04760   0.83334   0.25002   0.00000  Uiso   1.00
N441   N     0.28573   0.83331   0.25001   0.00000  Uiso   1.00
O442   O     0.12846   0.89442   0.25001   0.00000  Uiso   1.00
O443   O     0.20490   0.89441   0.25001   0.00000  Uiso   1.00
O444   O     0.10947   0.83333   0.32681   0.00000  Uiso   1.00
O445   O     0.18591   0.83332   0.32681   0.00000  Uiso   1.00
O446   O     0.12843   0.77226   0.24999   0.00000  Uiso   1.00
O447   O     0.20488   0.77225   0.24999   0.00000  Uiso   1.00
O448   O     0.14742   0.83335   0.17319   0.00000  Uiso   1.00
O449   O     0.22387   0.83334   0.17319   0.00000  Uiso   1.00
Zn450  Zn    0.11562   0.83334   0.25000   0.00000  Uiso   1.00
Zn451  Zn    0.21771   0.83333   0.25000   0.00000  Uiso   1.00
O452   O     0.08164   0.70878   0.31358   0.00000  Uiso   1.00
C453   C     0.08574   0.72625   0.36163   0.00000  Uiso   1.00
H454   H     0.06498   0.75601   0.37014   0.00000  Uiso   1.00
H455   H     0.12338   0.73435   0.35838   0.00000  Uiso   1.00
C456   C     0.06396   0.69686   0.40948   0.00000  Uiso   1.00
H457   H     0.02585   0.69027   0.41396   0.00000  Uiso   1.00
H458   H     0.08423   0.66684   0.40170   0.00000  Uiso   1.00
C459   C     0.06588   0.71618   0.46210   0.00000  Uiso   1.00
H460   H     0.10381   0.72212   0.45892   0.00000  Uiso   1.00
H461   H     0.04955   0.69439   0.49616   0.00000  Uiso   1.00
H462   H     0.04550   0.74612   0.47104   0.00000  Uiso   1.00
C463   C     0.49986   0.91332   0.25051   0.00000  Uiso   1.00
C464   C     0.47640   0.82100   0.49231   0.00000  Uiso   1.00
C465   C     0.48705   0.81094   0.43721   0.00000  Uiso   1.00
C466   C     0.51343   0.81680   0.01465   0.00000  Uiso   1.00
C467   C     0.55685   0.79555   0.48555   0.00000  Uiso   1.00
C468   C     0.56326   0.77946   0.43406   0.00000  Uiso   1.00
C469   C     0.52885   0.78715   0.41000   0.00000  Uiso   1.00
C470   C     0.50892   0.83455   0.06459   0.00000  Uiso   1.00
C471   C     0.58535   0.80509   0.06128   0.00000  Uiso   1.00
C472   C     0.45588   0.82569   0.41075   0.00000  Uiso   1.00
C473   C     0.54202   0.97855   0.22463   0.00000  Uiso   1.00
C474   C     0.47336   0.83069   0.35201   0.00000  Uiso   1.00
C475   C     0.54181   0.68801   0.22502   0.00000  Uiso   1.00
C476   C     0.49933   0.70925   0.25353   0.00000  Uiso   1.00
C477   C     0.45713   0.68807   0.28411   0.00000  Uiso   1.00
C478   C     0.45718   0.97838   0.28160   0.00000  Uiso   1.00
C479   C     0.49957   0.95743   0.25208   0.00000  Uiso   1.00
C480   C     0.65374   0.80951   0.21349   0.00000  Uiso   1.00
C481   C     0.36835   0.80951   0.21351   0.00000  Uiso   1.00
C482   C     0.34624   0.85708   0.28660   0.00000  Uiso   1.00
C483   C     0.63162   0.85709   0.28657   0.00000  Uiso   1.00
C484   C     0.49980   0.75336   0.25073   0.00000  Uiso   1.00
C485   C     0.52667   0.83295   0.14778   0.00000  Uiso   1.00
C486   C     0.59288   0.79039   0.00878   0.00000  Uiso   1.00
C487   C     0.54258   0.82637   0.08950   0.00000  Uiso   1.00
C488   C     0.40969   0.84029   0.44121   0.00000  Uiso   1.00
C489   C     0.39594   0.84336   0.49725   0.00000  Uiso   1.00
C490   C     0.42929   0.83504   0.02271   0.00000  Uiso   1.00
H491   H     0.61170   0.79833   0.08046   0.00000  Uiso   1.00
H492   H     0.57436   0.70451   0.20208   0.00000  Uiso   1.00
H493   H     0.42468   0.96141   0.30354   0.00000  Uiso   1.00
H494   H     0.64441   0.79049   0.18427   0.00000  Uiso   1.00
H495   H     0.39533   0.79044   0.18431   0.00000  Uiso   1.00
H496   H     0.35555   0.87608   0.31583   0.00000  Uiso   1.00
H497   H     0.60464   0.87613   0.31580   0.00000  Uiso   1.00
H498   H     0.59540   0.76186   0.41184   0.00000  Uiso   1.00
H499   H     0.62596   0.77384   0.48714   0.00000  Uiso   1.00
H500   H     0.47836   0.85403   0.08591   0.00000  Uiso   1.00
H501   H     0.38471   0.85039   0.42161   0.00000  Uiso   1.00
H502   H     0.41700   0.83876   0.06624   0.00000  Uiso   1.00
H503   H     0.36006   0.85408   0.02080   0.00000  Uiso   1.00
H504   H     0.53505   0.77381   0.37019   0.00000  Uiso   1.00
H505   H     0.57478   0.96197   0.20183   0.00000  Uiso   1.00
N506   N     0.38093   0.83334   0.25002   0.00000  Uiso   1.00
N507   N     0.61906   0.83331   0.25001   0.00000  Uiso   1.00
O508   O     0.46179   0.89442   0.25001   0.00000  Uiso   1.00
O509   O     0.53823   0.89441   0.25001   0.00000  Uiso   1.00
O510   O     0.44280   0.83333   0.32681   0.00000  Uiso   1.00
O511   O     0.51924   0.83332   0.32681   0.00000  Uiso   1.00
O512   O     0.46177   0.77226   0.24999   0.00000  Uiso   1.00
O513   O     0.53821   0.77225   0.24999   0.00000  Uiso   1.00
O514   O     0.48076   0.83335   0.17319   0.00000  Uiso   1.00
O515   O     0.55720   0.83334   0.17319   0.00000  Uiso   1.00
Zn516  Zn    0.44896   0.83334   0.25000   0.00000  Uiso   1.00
Zn517  Zn    0.55104   0.83333   0.25000   0.00000  Uiso   1.00
O518   O     0.41498   0.70878   0.31358   0.00000  Uiso   1.00
C519   C     0.41908   0.72625   0.36163   0.00000  Uiso   1.00
H520   H     0.39831   0.75601   0.37014   0.00000  Uiso   1.00
H521   H     0.45671   0.73435   0.35838   0.00000  Uiso   1.00
C522   C     0.39730   0.69686   0.40948   0.00000  Uiso   1.00
H523   H     0.35918   0.69027   0.41396   0.00000  Uiso   1.00
H524   H     0.41757   0.66684   0.40170   0.00000  Uiso   1.00
C525   C     0.39921   0.71618   0.46210   0.00000  Uiso   1.00
H526   H     0.43714   0.72212   0.45892   0.00000  Uiso   1.00
H527   H     0.38288   0.69439   0.49616   0.00000  Uiso   1.00
H528   H     0.37884   0.74612   0.47104   0.00000  Uiso   1.00
C529   C     0.83319   0.91332   0.25051   0.00000  Uiso   1.00
C530   C     0.80974   0.82100   0.49231   0.00000  Uiso   1.00
C531   C     0.82039   0.81094   0.43721   0.00000  Uiso   1.00
C532   C     0.84676   0.81680   0.01465   0.00000  Uiso   1.00
C533   C     0.89018   0.79555   0.48555   0.00000  Uiso   1.00
C534   C     0.89659   0.77946   0.43406   0.00000  Uiso   1.00
C535   C     0.86218   0.78715   0.41000   0.00000  Uiso   1.00
C536   C     0.84226   0.83455   0.06459   0.00000  Uiso   1.00
C537   C     0.91868   0.80509   0.06128   0.00000  Uiso   1.00
C538   C     0.78922   0.82569   0.41075   0.00000  Uiso   1.00
C539   C     0.87536   0.97855   0.22463   0.00000  Uiso   1.00
C540   C     0.80669   0.83069   0.35201   0.00000  Uiso   1.00
C541   C     0.87514   0.68801   0.22502   0.00000  Uiso   1.00
C542   C     0.83266   0.70925   0.25353   0.00000  Uiso   1.00
C543   C     0.79046   0.68807   0.28411   0.00000  Uiso   1.00
C544   C     0.79052   0.97838   0.28160   0.00000  Uiso   1.00
C545   C     0.83290   0.95743   0.25208   0.00000  Uiso   1.00
C546   C     0.98707   0.80951   0.21349   0.00000  Uiso   1.00
C547   C     0.70168   0.80951   0.21351   0.00000  Uiso   1.00
C548   C     0.67957   0.85708   0.28660   0.00000  Uiso   1.00
C549   C     0.96496   0.85709   0.28657   0.00000  Uiso   1.00
C550   C     0.83313   0.75336   0.25073   0.00000  Uiso   1.00
C551   C     0.86000   0.83295   0.14778   0.00000  Uiso   1.00
C552   C     0.92622   0.79039   0.00878   0.00000  Uiso   1.00
C553   C     0.87591   0.82637   0.08950   0.00000  Uiso   1.00
C554   C     0.74302   0.84029   0.44121   0.00000  Uiso   1.00
C555   C     0.72928   0.84336   0.49725   0.00000  Uiso   1.00
C556   C     0.76262   0.83504   0.02271   0.00000  Uiso   1.00
H557   H     0.94503   0.79833   0.08046   0.00000  Uiso   1.00
H558   H     0.90769   0.70451   0.20208   0.00000  Uiso   1.00
H559   H     0.75801   0.96141   0.30354   0.00000  Uiso   1.00
H560   H     0.97775   0.79049   0.18427   0.00000  Uiso   1.00
H561   H     0.72866   0.79044   0.18431   0.00000  Uiso   1.00
H562   H     0.68889   0.87608   0.31583   0.00000  Uiso   1.00
H563   H     0.93797   0.87613   0.31580   0.00000  Uiso   1.00
H564   H     0.92873   0.76186   0.41184   0.00000  Uiso   1.00
H565   H     0.95930   0.77384   0.48714   0.00000  Uiso   1.00
H566   H     0.81170   0.85403   0.08591   0.00000  Uiso   1.00
H567   H     0.71804   0.85039   0.42161   0.00000  Uiso   1.00
H568   H     0.75033   0.83876   0.06624   0.00000  Uiso   1.00
H569   H     0.69340   0.85408   0.02080   0.00000  Uiso   1.00
H570   H     0.86838   0.77381   0.37019   0.00000  Uiso   1.00
H571   H     0.90812   0.96197   0.20183   0.00000  Uiso   1.00
N572   N     0.71426   0.83334   0.25002   0.00000  Uiso   1.00
N573   N     0.95239   0.83331   0.25001   0.00000  Uiso   1.00
O574   O     0.79512   0.89442   0.25001   0.00000  Uiso   1.00
O575   O     0.87157   0.89441   0.25001   0.00000  Uiso   1.00
O576   O     0.77613   0.83333   0.32681   0.00000  Uiso   1.00
O577   O     0.85258   0.83332   0.32681   0.00000  Uiso   1.00
O578   O     0.79510   0.77226   0.24999   0.00000  Uiso   1.00
O579   O     0.87154   0.77225   0.24999   0.00000  Uiso   1.00
O580   O     0.81409   0.83335   0.17319   0.00000  Uiso   1.00
O581   O     0.89053   0.83334   0.17319   0.00000  Uiso   1.00
Zn582  Zn    0.78229   0.83334   0.25000   0.00000  Uiso   1.00
Zn583  Zn    0.88438   0.83333   0.25000   0.00000  Uiso   1.00
O584   O     0.74831   0.70878   0.31358   0.00000  Uiso   1.00
C585   C     0.75241   0.72625   0.36163   0.00000  Uiso   1.00
H586   H     0.73165   0.75601   0.37014   0.00000  Uiso   1.00
H587   H     0.79005   0.73435   0.35838   0.00000  Uiso   1.00
C588   C     0.73063   0.69686   0.40948   0.00000  Uiso   1.00
H589   H     0.69252   0.69027   0.41396   0.00000  Uiso   1.00
H590   H     0.75090   0.66684   0.40170   0.00000  Uiso   1.00
C591   C     0.73255   0.71618   0.46210   0.00000  Uiso   1.00
H592   H     0.77047   0.72212   0.45892   0.00000  Uiso   1.00
H593   H     0.71621   0.69439   0.49616   0.00000  Uiso   1.00
H594   H     0.71217   0.74612   0.47104   0.00000  Uiso   1.00
C595   C     0.16652   0.24666   0.75051   0.00000  Uiso   1.00
C596   C     0.14307   0.15433   0.99231   0.00000  Uiso   1.00
C597   C     0.15372   0.14427   0.93721   0.00000  Uiso   1.00
C598   C     0.18010   0.15014   0.51465   0.00000  Uiso   1.00
C599   C     0.22352   0.12888   0.98555   0.00000  Uiso   1.00
C600   C     0.22993   0.11280   0.93406   0.00000  Uiso   1.00
C601   C     0.19551   0.12049   0.91000   0.00000  Uiso   1.00
C602   C     0.17559   0.16788   0.56459   0.00000  Uiso   1.00
C603   C     0.25202   0.13843   0.56128   0.00000  Uiso   1.00
C604   C     0.12255   0.15903   0.91075   0.00000  Uiso   1.00
C605   C     0.20869   0.31188   0.72463   0.00000  Uiso   1.00
C606   C     0.14003   0.16402   0.85201   0.00000  Uiso   1.00
C607   C     0.20847   0.02134   0.72502   0.00000  Uiso   1.00
C608   C     0.16599   0.04258   0.75353   0.00000  Uiso   1.00
C609   C     0.12380   0.02140   0.78411   0.00000  Uiso   1.00
C610   C     0.12385   0.31172   0.78160   0.00000  Uiso   1.00
C611   C     0.16623   0.29076   0.75208   0.00000  Uiso   1.00
C612   C     0.32040   0.14285   0.71349   0.00000  Uiso   1.00
C613   C     0.03502   0.14284   0.71351   0.00000  Uiso   1.00
C614   C     0.01290   0.19042   0.78660   0.00000  Uiso   1.00
C615   C     0.29829   0.19042   0.78657   0.00000  Uiso   1.00
C616   C     0.16646   0.08669   0.75073   0.00000  Uiso   1.00
C617   C     0.19333   0.16629   0.64778   0.00000  Uiso   1.00
C618   C     0.25955   0.12372   0.50878   0.00000  Uiso   1.00
C619   C     0.20924   0.15970   0.58950   0.00000  Uiso   1.00
C620   C     0.07636   0.17362   0.94121   0.00000  Uiso   1.00
C621   C     0.06261   0.17669   0.99725   0.00000  Uiso   1.00
C622   C     0.09595   0.16838   0.52271   0.00000  Uiso   1.00
H623   H     0.27836   0.13167   0.58046   0.00000  Uiso   1.00
H624   H     0.24103   0.03784   0.70208   0.00000  Uiso   1.00
H625   H     0.09135   0.29475   0.80354   0.00000  Uiso   1.00
H626   H     0.31108   0.12382   0.68427   0.00000  Uiso   1.00
H627   H     0.06199   0.12377   0.68431   0.00000  Uiso   1.00
H628   H     0.02222   0.20941   0.81583   0.00000  Uiso   1.00
H629   H     0.27131   0.20946   0.81580   0.00000  Uiso   1.00
H630   H     0.26206   0.09520   0.91184   0.00000  Uiso   1.00
H631   H     0.29263   0.10717   0.98714   0.00000  Uiso   1.00
H632   H     0.14503   0.18736   0.58591   0.00000  Uiso   1.00
H633   H     0.05137   0.18373   0.92161   0.00000  Uiso   1.00
H634   H     0.08367   0.17210   0.56624   0.00000  Uiso   1.00
H635   H     0.02673   0.18741   0.52080   0.00000  Uiso   1.00
H636   H     0.20171   0.10715   0.87019   0.00000  Uiso   1.00
H637   H     0.24145   0.29530   0.70183   0.00000  Uiso   1.00
N638   N     0.04760   0.16668   0.75002   0.00000  Uiso   1.00
N639   N     0.28573   0.16665   0.75001   0.00000  Uiso   1.00
O640   O     0.12846   0.22775   0.75001   0.00000  Uiso   1.00
O641   O     0.20490   0.22774   0.75001   0.00000  Uiso   1.00
O642   O     0.10947   0.16666   0.82681   0.00000  Uiso   1.00
O643   O     0.18591   0.16665   0.82681   0.00000  Uiso   1.00
O644   O     0.12843   0.10559   0.74999   0.00000  Uiso   1.00
O645   O     0.20488   0.10558   0.74999   0.00000  Uiso   1.00
O646   O     0.14742   0.16668   0.67319   0.00000  Uiso   1.00
O647   O     0.22387   0.16667   0.67319   0.00000  Uiso   1.00
Zn648  Zn    0.11562   0.16667   0.75000   0.00000  Uiso   1.00
Zn649  Zn    0.21771   0.16666   0.75000   0.00000  Uiso   1.00
O650   O     0.08164   0.04211   0.81358   0.00000  Uiso   1.00
C651   C     0.08574   0.05958   0.86163   0.00000  Uiso   1.00
H652   H     0.06498   0.08934   0.87014   0.00000  Uiso   1.00
H653   H     0.12338   0.06768   0.85838   0.00000  Uiso   1.00
C654   C     0.06396   0.03019   0.90948   0.00000  Uiso   1.00
H655   H     0.02585   0.02361   0.91396   0.00000  Uiso   1.00
H656   H     0.08423   0.00017   0.90170   0.00000  Uiso   1.00
C657   C     0.06588   0.04952   0.96210   0.00000  Uiso   1.00
H658   H     0.10381   0.05546   0.95892   0.00000  Uiso   1.00
H659   H     0.04955   0.02772   0.99616   0.00000  Uiso   1.00
H660   H     0.04550   0.07945   0.97104   0.00000  Uiso   1.00
C661   C     0.49986   0.24666   0.75051   0.00000  Uiso   1.00
C662   C     0.47640   0.15433   0.99231   0.00000  Uiso   1.00
C663   C     0.48705   0.14427   0.93721   0.00000  Uiso   1.00
C664   C     0.51343   0.15014   0.51465   0.00000  Uiso   1.00
C665   C     0.55685   0.12888   0.98555   0.00000  Uiso   1.00
C666   C     0.56326   0.11280   0.93406   0.00000  Uiso   1.00
C667   C     0.52885   0.12049   0.91000   0.00000  Uiso   1.00
C668   C     0.50892   0.16788   0.56459   0.00000  Uiso   1.00
C669   C     0.58535   0.13843   0.56128   0.00000  Uiso   1.00
C670   C     0.45588   0.15903   0.91075   0.00000  Uiso   1.00
C671   C     0.54202   0.31188   0.72463   0.00000  Uiso   1.00
C672   C     0.47336   0.16402   0.85201   0.00000  Uiso   1.00
C673   C     0.54181   0.02134   0.72502   0.00000  Uiso   1.00
C674   C     0.49933   0.04258   0.75353   0.00000  Uiso   1.00
C675   C     0.45713   0.02140   0.78411   0.00000  Uiso   1.00
C676   C     0.45718   0.31172   0.78160   0.00000  Uiso   1.00
C677   C     0.49957   0.29076   0.75208   0.00000  Uiso   1.00
C678   C     0.65374   0.14285   0.71349   0.00000  Uiso   1.00
C679   C     0.36835   0.14284   0.71351   0.00000  Uiso   1.00
C680   C     0.34624   0.19042   0.78660   0.00000  Uiso   1.00
C681   C     0.63162   0.19042   0.78657   0.00000  Uiso   1.00
C682   C     0.49980   0.08669   0.75073   0.00000  Uiso   1.00
C683   C     0.52667   0.16629   0.64778   0.00000  Uiso   1.00
C684   C     0.59288   0.12372   0.50878   0.00000  Uiso   1.00
C685   C     0.54258   0.15970   0.58950   0.00000  Uiso   1.00
C686   C     0.40969   0.17362   0.94121   0.00000  Uiso   1.00
C687   C     0.39594   0.17669   0.99725   0.00000  Uiso   1.00
C688   C     0.42929   0.16838   0.52271   0.00000  Uiso   1.00
H689   H     0.61170   0.13167   0.58046   0.00000  Uiso   1.00
H690   H     0.57436   0.03784   0.70208   0.00000  Uiso   1.00
H691   H     0.42468   0.29475   0.80354   0.00000  Uiso   1.00
H692   H     0.64441   0.12382   0.68427   0.00000  Uiso   1.00
H693   H     0.39533   0.12377   0.68431   0.00000  Uiso   1.00
H694   H     0.35555   0.20941   0.81583   0.00000  Uiso   1.00
H695   H     0.60464   0.20946   0.81580   0.00000  Uiso   1.00
H696   H     0.59540   0.09520   0.91184   0.00000  Uiso   1.00
H697   H     0.62596   0.10717   0.98714   0.00000  Uiso   1.00
H698   H     0.47836   0.18736   0.58591   0.00000  Uiso   1.00
H699   H     0.38471   0.18373   0.92161   0.00000  Uiso   1.00
H700   H     0.41700   0.17210   0.56624   0.00000  Uiso   1.00
H701   H     0.36006   0.18741   0.52080   0.00000  Uiso   1.00
H702   H     0.53505   0.10715   0.87019   0.00000  Uiso   1.00
H703   H     0.57478   0.29530   0.70183   0.00000  Uiso   1.00
N704   N     0.38093   0.16668   0.75002   0.00000  Uiso   1.00
N705   N     0.61906   0.16665   0.75001   0.00000  Uiso   1.00
O706   O     0.46179   0.22775   0.75001   0.00000  Uiso   1.00
O707   O     0.53823   0.22774   0.75001   0.00000  Uiso   1.00
O708   O     0.44280   0.16666   0.82681   0.00000  Uiso   1.00
O709   O     0.51924   0.16665   0.82681   0.00000  Uiso   1.00
O710   O     0.46177   0.10559   0.74999   0.00000  Uiso   1.00
O711   O     0.53821   0.10558   0.74999   0.00000  Uiso   1.00
O712   O     0.48076   0.16668   0.67319   0.00000  Uiso   1.00
O713   O     0.55720   0.16667   0.67319   0.00000  Uiso   1.00
Zn714  Zn    0.44896   0.16667   0.75000   0.00000  Uiso   1.00
Zn715  Zn    0.55104   0.16666   0.75000   0.00000  Uiso   1.00
O716   O     0.41498   0.04211   0.81358   0.00000  Uiso   1.00
C717   C     0.41908   0.05958   0.86163   0.00000  Uiso   1.00
H718   H     0.39831   0.08934   0.87014   0.00000  Uiso   1.00
H719   H     0.45671   0.06768   0.85838   0.00000  Uiso   1.00
C720   C     0.39730   0.03019   0.90948   0.00000  Uiso   1.00
H721   H     0.35918   0.02361   0.91396   0.00000  Uiso   1.00
H722   H     0.41757   0.00017   0.90170   0.00000  Uiso   1.00
C723   C     0.39921   0.04952   0.96210   0.00000  Uiso   1.00
H724   H     0.43714   0.05546   0.95892   0.00000  Uiso   1.00
H725   H     0.38288   0.02772   0.99616   0.00000  Uiso   1.00
H726   H     0.37884   0.07945   0.97104   0.00000  Uiso   1.00
C727   C     0.83319   0.24666   0.75051   0.00000  Uiso   1.00
C728   C     0.80974   0.15433   0.99231   0.00000  Uiso   1.00
C729   C     0.82039   0.14427   0.93721   0.00000  Uiso   1.00
C730   C     0.84676   0.15014   0.51465   0.00000  Uiso   1.00
C731   C     0.89018   0.12888   0.98555   0.00000  Uiso   1.00
C732   C     0.89659   0.11280   0.93406   0.00000  Uiso   1.00
C733   C     0.86218   0.12049   0.91000   0.00000  Uiso   1.00
C734   C     0.84226   0.16788   0.56459   0.00000  Uiso   1.00
C735   C     0.91868   0.13843   0.56128   0.00000  Uiso   1.00
C736   C     0.78922   0.15903   0.91075   0.00000  Uiso   1.00
C737   C     0.87536   0.31188   0.72463   0.00000  Uiso   1.00
C738   C     0.80669   0.16402   0.85201   0.00000  Uiso   1.00
C739   C     0.87514   0.02134   0.72502   0.00000  Uiso   1.00
C740   C     0.83266   0.04258   0.75353   0.00000  Uiso   1.00
C741   C     0.79046   0.02140   0.78411   0.00000  Uiso   1.00
C742   C     0.79052   0.31172   0.78160   0.00000  Uiso   1.00
C743   C     0.83290   0.29076   0.75208   0.00000  Uiso   1.00
C744   C     0.98707   0.14285   0.71349   0.00000  Uiso   1.00
C745   C     0.70168   0.14284   0.71351   0.00000  Uiso   1.00
C746   C     0.67957   0.19042   0.78660   0.00000  Uiso   1.00
C747   C     0.96496   0.19042   0.78657   0.00000  Uiso   1.00
C748   C     0.83313   0.08669   0.75073   0.00000  Uiso   1.00
C749   C     0.86000   0.16629   0.64778   0.00000  Uiso   1.00
C750   C     0.92622   0.12372   0.50878   0.00000  Uiso   1.00
C751   C     0.87591   0.15970   0.58950   0.00000  Uiso   1.00
C752   C     0.74302   0.17362   0.94121   0.00000  Uiso   1.00
C753   C     0.72928   0.17669   0.99725   0.00000  Uiso   1.00
C754   C     0.76262   0.16838   0.52271   0.00000  Uiso   1.00
H755   H     0.94503   0.13167   0.58046   0.00000  Uiso   1.00
H756   H     0.90769   0.03784   0.70208   0.00000  Uiso   1.00
H757   H     0.75801   0.29475   0.80354   0.00000  Uiso   1.00
H758   H     0.97775   0.12382   0.68427   0.00000  Uiso   1.00
H759   H     0.72866   0.12377   0.68431   0.00000  Uiso   1.00
H760   H     0.68889   0.20941   0.81583   0.00000  Uiso   1.00
H761   H     0.93797   0.20946   0.81580   0.00000  Uiso   1.00
H762   H     0.92873   0.09520   0.91184   0.00000  Uiso   1.00
H763   H     0.95930   0.10717   0.98714   0.00000  Uiso   1.00
H764   H     0.81170   0.18736   0.58591   0.00000  Uiso   1.00
H765   H     0.71804   0.18373   0.92161   0.00000  Uiso   1.00
H766   H     0.75033   0.17210   0.56624   0.00000  Uiso   1.00
H767   H     0.69340   0.18741   0.52080   0.00000  Uiso   1.00
H768   H     0.86838   0.10715   0.87019   0.00000  Uiso   1.00
H769   H     0.90812   0.29530   0.70183   0.00000  Uiso   1.00
N770   N     0.71426   0.16668   0.75002   0.00000  Uiso   1.00
N771   N     0.95239   0.16665   0.75001   0.00000  Uiso   1.00
O772   O     0.79512   0.22775   0.75001   0.00000  Uiso   1.00
O773   O     0.87157   0.22774   0.75001   0.00000  Uiso   1.00
O774   O     0.77613   0.16666   0.82681   0.00000  Uiso   1.00
O775   O     0.85258   0.16665   0.82681   0.00000  Uiso   1.00
O776   O     0.79510   0.10559   0.74999   0.00000  Uiso   1.00
O777   O     0.87154   0.10558   0.74999   0.00000  Uiso   1.00
O778   O     0.81409   0.16668   0.67319   0.00000  Uiso   1.00
O779   O     0.89053   0.16667   0.67319   0.00000  Uiso   1.00
Zn780  Zn    0.78229   0.16667   0.75000   0.00000  Uiso   1.00
Zn781  Zn    0.88438   0.16666   0.75000   0.00000  Uiso   1.00
O782   O     0.74831   0.04211   0.81358   0.00000  Uiso   1.00
C783   C     0.75241   0.05958   0.86163   0.00000  Uiso   1.00
H784   H     0.73165   0.08934   0.87014   0.00000  Uiso   1.00
H785   H     0.79005   0.06768   0.85838   0.00000  Uiso   1.00
C786   C     0.73063   0.03019   0.90948   0.00000  Uiso   1.00
H787   H     0.69252   0.02361   0.91396   0.00000  Uiso   1.00
H788   H     0.75090   0.00017   0.90170   0.00000  Uiso   1.00
C789   C     0.73255   0.04952   0.96210   0.00000  Uiso   1.00
H790   H     0.77047   0.05546   0.95892   0.00000  Uiso   1.00
H791   H     0.71621   0.02772   0.99616   0.00000  Uiso   1.00
H792   H     0.71217   0.07945   0.97104   0.00000  Uiso   1.00
C793   C     0.16652   0.57999   0.75051   0.00000  Uiso   1.00
C794   C     0.14307   0.48767   0.99231   0.00000  Uiso   1.00
C795   C     0.15372   0.47761   0.93721   0.00000  Uiso   1.00
C796   C     0.18010   0.48347   0.51465   0.00000  Uiso   1.00
C797   C     0.22352   0.46221   0.98555   0.00000  Uiso   1.00
C798   C     0.22993   0.44613   0.93406   0.00000  Uiso   1.00
C799   C     0.19551   0.45382   0.91000   0.00000  Uiso   1.00
C800   C     0.17559   0.50121   0.56459   0.00000  Uiso   1.00
C801   C     0.25202   0.47176   0.56128   0.00000  Uiso   1.00
C802   C     0.12255   0.49236   0.91075   0.00000  Uiso   1.00
C803   C     0.20869   0.64521   0.72463   0.00000  Uiso   1.00
C804   C     0.14003   0.49736   0.85201   0.00000  Uiso   1.00
C805   C     0.20847   0.35467   0.72502   0.00000  Uiso   1.00
C806   C     0.16599   0.37591   0.75353   0.00000  Uiso   1.00
C807   C     0.12380   0.35473   0.78411   0.00000  Uiso   1.00
C808   C     0.12385   0.64505   0.78160   0.00000  Uiso   1.00
C809   C     0.16623   0.62409   0.75208   0.00000  Uiso   1.00
C810   C     0.32040   0.47618   0.71349   0.00000  Uiso   1.00
C811   C     0.03502   0.47617   0.71351   0.00000  Uiso   1.00
C812   C     0.01290   0.52375   0.78660   0.00000  Uiso   1.00
C813   C     0.29829   0.52375   0.78657   0.00000  Uiso   1.00
C814   C     0.16646   0.42003   0.75073   0.00000  Uiso   1.00
C815   C     0.19333   0.49962   0.64778   0.00000  Uiso   1.00
C816   C     0.25955   0.45706   0.50878   0.00000  Uiso   1.00
C817   C     0.20924   0.49304   0.58950   0.00000  Uiso   1.00
C818   C     0.07636   0.50695   0.94121   0.00000  Uiso   1.00
C819   C     0.06261   0.51003   0.99725   0.00000  Uiso   1.00
C820   C     0.09595   0.50171   0.52271   0.00000  Uiso   1.00
H821   H     0.27836   0.46500   0.58046   0.00000  Uiso   1.00
H822   H     0.24103   0.37117   0.70208   0.00000  Uiso   1.00
H823   H     0.09135   0.62808   0.80354   0.00000  Uiso   1.00
H824   H     0.31108   0.45716   0.68427   0.00000  Uiso   1.00
H825   H     0.06199   0.45711   0.68431   0.00000  Uiso   1.00
H826   H     0.02222   0.54275   0.81583   0.00000  Uiso   1.00
H827   H     0.27131   0.54280   0.81580   0.00000  Uiso   1.00
H828   H     0.26206   0.42853   0.91184   0.00000  Uiso   1.00
H829   H     0.29263   0.44050   0.98714   0.00000  Uiso   1.00
H830   H     0.14503   0.52070   0.58591   0.00000  Uiso   1.00
H831   H     0.05137   0.51706   0.92161   0.00000  Uiso   1.00
H832   H     0.08367   0.50543   0.56624   0.00000  Uiso   1.00
H833   H     0.02673   0.52074   0.52080   0.00000  Uiso   1.00
H834   H     0.20171   0.44048   0.87019   0.00000  Uiso   1.00
H835   H     0.24145   0.62864   0.70183   0.00000  Uiso   1.00
N836   N     0.04760   0.50001   0.75002   0.00000  Uiso   1.00
N837   N     0.28573   0.49998   0.75001   0.00000  Uiso   1.00
O838   O     0.12846   0.56108   0.75001   0.00000  Uiso   1.00
O839   O     0.20490   0.56107   0.75001   0.00000  Uiso   1.00
O840   O     0.10947   0.50000   0.82681   0.00000  Uiso   1.00
O841   O     0.18591   0.49999   0.82681   0.00000  Uiso   1.00
O842   O     0.12843   0.43893   0.74999   0.00000  Uiso   1.00
O843   O     0.20488   0.43892   0.74999   0.00000  Uiso   1.00
O844   O     0.14742   0.50001   0.67319   0.00000  Uiso   1.00
O845   O     0.22387   0.50000   0.67319   0.00000  Uiso   1.00
Zn846  Zn    0.11562   0.50001   0.75000   0.00000  Uiso   1.00
Zn847  Zn    0.21771   0.49999   0.75000   0.00000  Uiso   1.00
O848   O     0.08164   0.37544   0.81358   0.00000  Uiso   1.00
C849   C     0.08574   0.39292   0.86163   0.00000  Uiso   1.00
H850   H     0.06498   0.42267   0.87014   0.00000  Uiso   1.00
H851   H     0.12338   0.40101   0.85838   0.00000  Uiso   1.00
C852   C     0.06396   0.36353   0.90948   0.00000  Uiso   1.00
H853   H     0.02585   0.35694   0.91396   0.00000  Uiso   1.00
H854   H     0.08423   0.33351   0.90170   0.00000  Uiso   1.00
C855   C     0.06588   0.38285   0.96210   0.00000  Uiso   1.00
H856   H     0.10381   0.38879   0.95892   0.00000  Uiso   1.00
H857   H     0.04955   0.36106   0.99616   0.00000  Uiso   1.00
H858   H     0.04550   0.41279   0.97104   0.00000  Uiso   1.00
C859   C     0.49986   0.57999   0.75051   0.00000  Uiso   1.00
C860   C     0.47640   0.48767   0.99231   0.00000  Uiso   1.00
C861   C     0.48705   0.47761   0.93721   0.00000  Uiso   1.00
C862   C     0.51343   0.48347   0.51465   0.00000  Uiso   1.00
C863   C     0.55685   0.46221   0.98555   0.00000  Uiso   1.00
C864   C     0.56326   0.44613   0.93406   0.00000  Uiso   1.00
C865   C     0.52885   0.45382   0.91000   0.00000  Uiso   1.00
C866   C     0.50892   0.50121   0.56459   0.00000  Uiso   1.00
C867   C     0.58535   0.47176   0.56128   0.00000  Uiso   1.00
C868   C     0.45588   0.49236   0.91075   0.00000  Uiso   1.00
C869   C     0.54202   0.64521   0.72463   0.00000  Uiso   1.00
C870   C     0.47336   0.49736   0.85201   0.00000  Uiso   1.00
C871   C     0.54181   0.35467   0.72502   0.00000  Uiso   1.00
C872   C     0.49933   0.37591   0.75353   0.00000  Uiso   1.00
C873   C     0.45713   0.35473   0.78411   0.00000  Uiso   1.00
C874   C     0.45718   0.64505   0.78160   0.00000  Uiso   1.00
C875   C     0.49957   0.62409   0.75208   0.00000  Uiso   1.00
C876   C     0.65374   0.47618   0.71349   0.00000  Uiso   1.00
C877   C     0.36835   0.47617   0.71351   0.00000  Uiso   1.00
C878   C     0.34624   0.52375   0.78660   0.00000  Uiso   1.00
C879   C     0.63162   0.52375   0.78657   0.00000  Uiso   1.00
C880   C     0.49980   0.42003   0.75073   0.00000  Uiso   1.00
C881   C     0.52667   0.49962   0.64778   0.00000  Uiso   1.00
C882   C     0.59288   0.45706   0.50878   0.00000  Uiso   1.00
C883   C     0.54258   0.49304   0.58950   0.00000  Uiso   1.00
C884   C     0.40969   0.50695   0.94121   0.00000  Uiso   1.00
C885   C     0.39594   0.51003   0.99725   0.00000  Uiso   1.00
C886   C     0.42929   0.50171   0.52271   0.00000  Uiso   1.00
H887   H     0.61170   0.46500   0.58046   0.00000  Uiso   1.00
H888   H     0.57436   0.37117   0.70208   0.00000  Uiso   1.00
H889   H     0.42468   0.62808   0.80354   0.00000  Uiso   1.00
H890   H     0.64441   0.45716   0.68427   0.00000  Uiso   1.00
H891   H     0.39533   0.45711   0.68431   0.00000  Uiso   1.00
H892   H     0.35555   0.54275   0.81583   0.00000  Uiso   1.00
H893   H     0.60464   0.54280   0.81580   0.00000  Uiso   1.00
H894   H     0.59540   0.42853   0.91184   0.00000  Uiso   1.00
H895   H     0.62596   0.44050   0.98714   0.00000  Uiso   1.00
H896   H     0.47836   0.52070   0.58591   0.00000  Uiso   1.00
H897   H     0.38471   0.51706   0.92161   0.00000  Uiso   1.00
H898   H     0.41700   0.50543   0.56624   0.00000  Uiso   1.00
H899   H     0.36006   0.52074   0.52080   0.00000  Uiso   1.00
H900   H     0.53505   0.44048   0.87019   0.00000  Uiso   1.00
H901   H     0.57478   0.62864   0.70183   0.00000  Uiso   1.00
N902   N     0.38093   0.50001   0.75002   0.00000  Uiso   1.00
N903   N     0.61906   0.49998   0.75001   0.00000  Uiso   1.00
O904   O     0.46179   0.56108   0.75001   0.00000  Uiso   1.00
O905   O     0.53823   0.56107   0.75001   0.00000  Uiso   1.00
O906   O     0.44280   0.50000   0.82681   0.00000  Uiso   1.00
O907   O     0.51924   0.49999   0.82681   0.00000  Uiso   1.00
O908   O     0.46177   0.43893   0.74999   0.00000  Uiso   1.00
O909   O     0.53821   0.43892   0.74999   0.00000  Uiso   1.00
O910   O     0.48076   0.50001   0.67319   0.00000  Uiso   1.00
O911   O     0.55720   0.50000   0.67319   0.00000  Uiso   1.00
Zn912  Zn    0.44896   0.50001   0.75000   0.00000  Uiso   1.00
Zn913  Zn    0.55104   0.49999   0.75000   0.00000  Uiso   1.00
O914   O     0.41498   0.37544   0.81358   0.00000  Uiso   1.00
C915   C     0.41908   0.39292   0.86163   0.00000  Uiso   1.00
H916   H     0.39831   0.42267   0.87014   0.00000  Uiso   1.00
H917   H     0.45671   0.40101   0.85838   0.00000  Uiso   1.00
C918   C     0.39730   0.36353   0.90948   0.00000  Uiso   1.00
H919   H     0.35918   0.35694   0.91396   0.00000  Uiso   1.00
H920   H     0.41757   0.33351   0.90170   0.00000  Uiso   1.00
C921   C     0.39921   0.38285   0.96210   0.00000  Uiso   1.00
H922   H     0.43714   0.38879   0.95892   0.00000  Uiso   1.00
H923   H     0.38288   0.36106   0.99616   0.00000  Uiso   1.00
H924   H     0.37884   0.41279   0.97104   0.00000  Uiso   1.00
C925   C     0.83319   0.57999   0.75051   0.00000  Uiso   1.00
C926   C     0.80974   0.48767   0.99231   0.00000  Uiso   1.00
C927   C     0.82039   0.47761   0.93721   0.00000  Uiso   1.00
C928   C     0.84676   0.48347   0.51465   0.00000  Uiso   1.00
C929   C     0.89018   0.46221   0.98555   0.00000  Uiso   1.00
C930   C     0.89659   0.44613   0.93406   0.00000  Uiso   1.00
C931   C     0.86218   0.45382   0.91000   0.00000  Uiso   1.00
C932   C     0.84226   0.50121   0.56459   0.00000  Uiso   1.00
C933   C     0.91868   0.47176   0.56128   0.00000  Uiso   1.00
C934   C     0.78922   0.49236   0.91075   0.00000  Uiso   1.00
C935   C     0.87536   0.64521   0.72463   0.00000  Uiso   1.00
C936   C     0.80669   0.49736   0.85201   0.00000  Uiso   1.00
C937   C     0.87514   0.35467   0.72502   0.00000  Uiso   1.00
C938   C     0.83266   0.37591   0.75353   0.00000  Uiso   1.00
C939   C     0.79046   0.35473   0.78411   0.00000  Uiso   1.00
C940   C     0.79052   0.64505   0.78160   0.00000  Uiso   1.00
C941   C     0.83290   0.62409   0.75208   0.00000  Uiso   1.00
C942   C     0.98707   0.47618   0.71349   0.00000  Uiso   1.00
C943   C     0.70168   0.47617   0.71351   0.00000  Uiso   1.00
C944   C     0.67957   0.52375   0.78660   0.00000  Uiso   1.00
C945   C     0.96496   0.52375   0.78657   0.00000  Uiso   1.00
C946   C     0.83313   0.42003   0.75073   0.00000  Uiso   1.00
C947   C     0.86000   0.49962   0.64778   0.00000  Uiso   1.00
C948   C     0.92622   0.45706   0.50878   0.00000  Uiso   1.00
C949   C     0.87591   0.49304   0.58950   0.00000  Uiso   1.00
C950   C     0.74302   0.50695   0.94121   0.00000  Uiso   1.00
C951   C     0.72928   0.51003   0.99725   0.00000  Uiso   1.00
C952   C     0.76262   0.50171   0.52271   0.00000  Uiso   1.00
H953   H     0.94503   0.46500   0.58046   0.00000  Uiso   1.00
H954   H     0.90769   0.37117   0.70208   0.00000  Uiso   1.00
H955   H     0.75801   0.62808   0.80354   0.00000  Uiso   1.00
H956   H     0.97775   0.45716   0.68427   0.00000  Uiso   1.00
H957   H     0.72866   0.45711   0.68431   0.00000  Uiso   1.00
H958   H     0.68889   0.54275   0.81583   0.00000  Uiso   1.00
H959   H     0.93797   0.54280   0.81580   0.00000  Uiso   1.00
H960   H     0.92873   0.42853   0.91184   0.00000  Uiso   1.00
H961   H     0.95930   0.44050   0.98714   0.00000  Uiso   1.00
H962   H     0.81170   0.52070   0.58591   0.00000  Uiso   1.00
H963   H     0.71804   0.51706   0.92161   0.00000  Uiso   1.00
H964   H     0.75033   0.50543   0.56624   0.00000  Uiso   1.00
H965   H     0.69340   0.52074   0.52080   0.00000  Uiso   1.00
H966   H     0.86838   0.44048   0.87019   0.00000  Uiso   1.00
H967   H     0.90812   0.62864   0.70183   0.00000  Uiso   1.00
N968   N     0.71426   0.50001   0.75002   0.00000  Uiso   1.00
N969   N     0.95239   0.49998   0.75001   0.00000  Uiso   1.00
O970   O     0.79512   0.56108   0.75001   0.00000  Uiso   1.00
O971   O     0.87157   0.56107   0.75001   0.00000  Uiso   1.00
O972   O     0.77613   0.50000   0.82681   0.00000  Uiso   1.00
O973   O     0.85258   0.49999   0.82681   0.00000  Uiso   1.00
O974   O     0.79510   0.43893   0.74999   0.00000  Uiso   1.00
O975   O     0.87154   0.43892   0.74999   0.00000  Uiso   1.00
O976   O     0.81409   0.50001   0.67319   0.00000  Uiso   1.00
O977   O     0.89053   0.50000   0.67319   0.00000  Uiso   1.00
Zn978  Zn    0.78229   0.50001   0.75000   0.00000  Uiso   1.00
Zn979  Zn    0.88438   0.49999   0.75000   0.00000  Uiso   1.00
O980   O     0.74831   0.37544   0.81358   0.00000  Uiso   1.00
C981   C     0.75241   0.39292   0.86163   0.00000  Uiso   1.00
H982   H     0.73165   0.42267   0.87014   0.00000  Uiso   1.00
H983   H     0.79005   0.40101   0.85838   0.00000  Uiso   1.00
C984   C     0.73063   0.36353   0.90948   0.00000  Uiso   1.00
H985   H     0.69252   0.35694   0.91396   0.00000  Uiso   1.00
H986   H     0.75090   0.33351   0.90170   0.00000  Uiso   1.00
C987   C     0.73255   0.38285   0.96210   0.00000  Uiso   1.00
H988   H     0.77047   0.38879   0.95892   0.00000  Uiso   1.00
H989   H     0.71621   0.36106   0.99616   0.00000  Uiso   1.00
H990   H     0.71217   0.41279   0.97104   0.00000  Uiso   1.00
C991   C     0.16652   0.91332   0.75051   0.00000  Uiso   1.00
C992   C     0.14307   0.82100   0.99231   0.00000  Uiso   1.00
C993   C     0.15372   0.81094   0.93721   0.00000  Uiso   1.00
C994   C     0.18010   0.81680   0.51465   0.00000  Uiso   1.00
C995   C     0.22352   0.79555   0.98555   0.00000  Uiso   1.00
C996   C     0.22993   0.77946   0.93406   0.00000  Uiso   1.00
C997   C     0.19551   0.78715   0.91000   0.00000  Uiso   1.00
C998   C     0.17559   0.83455   0.56459   0.00000  Uiso   1.00
C999   C     0.25202   0.80509   0.56128   0.00000  Uiso   1.00
C1000  C     0.12255   0.82569   0.91075   0.00000  Uiso   1.00
C1001  C     0.20869   0.97855   0.72463   0.00000  Uiso   1.00
C1002  C     0.14003   0.83069   0.85201   0.00000  Uiso   1.00
C1003  C     0.20847   0.68801   0.72502   0.00000  Uiso   1.00
C1004  C     0.16599   0.70925   0.75353   0.00000  Uiso   1.00
C1005  C     0.12380   0.68807   0.78411   0.00000  Uiso   1.00
C1006  C     0.12385   0.97838   0.78160   0.00000  Uiso   1.00
C1007  C     0.16623   0.95743   0.75208   0.00000  Uiso   1.00
C1008  C     0.32040   0.80951   0.71349   0.00000  Uiso   1.00
C1009  C     0.03502   0.80951   0.71351   0.00000  Uiso   1.00
C1010  C     0.01290   0.85708   0.78660   0.00000  Uiso   1.00
C1011  C     0.29829   0.85709   0.78657   0.00000  Uiso   1.00
C1012  C     0.16646   0.75336   0.75073   0.00000  Uiso   1.00
C1013  C     0.19333   0.83295   0.64778   0.00000  Uiso   1.00
C1014  C     0.25955   0.79039   0.50878   0.00000  Uiso   1.00
C1015  C     0.20924   0.82637   0.58950   0.00000  Uiso   1.00
C1016  C     0.07636   0.84029   0.94121   0.00000  Uiso   1.00
C1017  C     0.06261   0.84336   0.99725   0.00000  Uiso   1.00
C1018  C     0.09595   0.83504   0.52271   0.00000  Uiso   1.00
H1019  H     0.27836   0.79833   0.58046   0.00000  Uiso   1.00
H1020  H     0.24103   0.70451   0.70208   0.00000  Uiso   1.00
H1021  H     0.09135   0.96141   0.80354   0.00000  Uiso   1.00
H1022  H     0.31108   0.79049   0.68427   0.00000  Uiso   1.00
H1023  H     0.06199   0.79044   0.68431   0.00000  Uiso   1.00
H1024  H     0.02222   0.87608   0.81583   0.00000  Uiso   1.00
H1025  H     0.27131   0.87613   0.81580   0.00000  Uiso   1.00
H1026  H     0.26206   0.76186   0.91184   0.00000  Uiso   1.00
H1027  H     0.29263   0.77384   0.98714   0.00000  Uiso   1.00
H1028  H     0.14503   0.85403   0.58591   0.00000  Uiso   1.00
H1029  H     0.05137   0.85039   0.92161   0.00000  Uiso   1.00
H1030  H     0.08367   0.83876   0.56624   0.00000  Uiso   1.00
H1031  H     0.02673   0.85408   0.52080   0.00000  Uiso   1.00
H1032  H     0.20171   0.77381   0.87019   0.00000  Uiso   1.00
H1033  H     0.24145   0.96197   0.70183   0.00000  Uiso   1.00
N1034  N     0.04760   0.83334   0.75002   0.00000  Uiso   1.00
N1035  N     0.28573   0.83331   0.75001   0.00000  Uiso   1.00
O1036  O     0.12846   0.89442   0.75001   0.00000  Uiso   1.00
O1037  O     0.20490   0.89441   0.75001   0.00000  Uiso   1.00
O1038  O     0.10947   0.83333   0.82681   0.00000  Uiso   1.00
O1039  O     0.18591   0.83332   0.82681   0.00000  Uiso   1.00
O1040  O     0.12843   0.77226   0.74999   0.00000  Uiso   1.00
O1041  O     0.20488   0.77225   0.74999   0.00000  Uiso   1.00
O1042  O     0.14742   0.83335   0.67319   0.00000  Uiso   1.00
O1043  O     0.22387   0.83334   0.67319   0.00000  Uiso   1.00
Zn1044 Zn    0.11562   0.83334   0.75000   0.00000  Uiso   1.00
Zn1045 Zn    0.21771   0.83333   0.75000   0.00000  Uiso   1.00
O1046  O     0.08164   0.70878   0.81358   0.00000  Uiso   1.00
C1047  C     0.08574   0.72625   0.86163   0.00000  Uiso   1.00
H1048  H     0.06498   0.75601   0.87014   0.00000  Uiso   1.00
H1049  H     0.12338   0.73435   0.85838   0.00000  Uiso   1.00
C1050  C     0.06396   0.69686   0.90948   0.00000  Uiso   1.00
H1051  H     0.02585   0.69027   0.91396   0.00000  Uiso   1.00
H1052  H     0.08423   0.66684   0.90170   0.00000  Uiso   1.00
C1053  C     0.06588   0.71618   0.96210   0.00000  Uiso   1.00
H1054  H     0.10381   0.72212   0.95892   0.00000  Uiso   1.00
H1055  H     0.04955   0.69439   0.99616   0.00000  Uiso   1.00
H1056  H     0.04550   0.74612   0.97104   0.00000  Uiso   1.00
C1057  C     0.49986   0.91332   0.75051   0.00000  Uiso   1.00
C1058  C     0.47640   0.82100   0.99231   0.00000  Uiso   1.00
C1059  C     0.48705   0.81094   0.93721   0.00000  Uiso   1.00
C1060  C     0.51343   0.81680   0.51465   0.00000  Uiso   1.00
C1061  C     0.55685   0.79555   0.98555   0.00000  Uiso   1.00
C1062  C     0.56326   0.77946   0.93406   0.00000  Uiso   1.00
C1063  C     0.52885   0.78715   0.91000   0.00000  Uiso   1.00
C1064  C     0.50892   0.83455   0.56459   0.00000  Uiso   1.00
C1065  C     0.58535   0.80509   0.56128   0.00000  Uiso   1.00
C1066  C     0.45588   0.82569   0.91075   0.00000  Uiso   1.00
C1067  C     0.54202   0.97855   0.72463   0.00000  Uiso   1.00
C1068  C     0.47336   0.83069   0.85201   0.00000  Uiso   1.00
C1069  C     0.54181   0.68801   0.72502   0.00000  Uiso   1.00
C1070  C     0.49933   0.70925   0.75353   0.00000  Uiso   1.00
C1071  C     0.45713   0.68807   0.78411   0.00000  Uiso   1.00
C1072  C     0.45718   0.97838   0.78160   0.00000  Uiso   1.00
C1073  C     0.49957   0.95743   0.75208   0.00000  Uiso   1.00
C1074  C     0.65374   0.80951   0.71349   0.00000  Uiso   1.00
C1075  C     0.36835   0.80951   0.71351   0.00000  Uiso   1.00
C1076  C     0.34624   0.85708   0.78660   0.00000  Uiso   1.00
C1077  C     0.63162   0.85709   0.78657   0.00000  Uiso   1.00
C1078  C     0.49980   0.75336   0.75073   0.00000  Uiso   1.00
C1079  C     0.52667   0.83295   0.64778   0.00000  Uiso   1.00
C1080  C     0.59288   0.79039   0.50878   0.00000  Uiso   1.00
C1081  C     0.54258   0.82637   0.58950   0.00000  Uiso   1.00
C1082  C     0.40969   0.84029   0.94121   0.00000  Uiso   1.00
C1083  C     0.39594   0.84336   0.99725   0.00000  Uiso   1.00
C1084  C     0.42929   0.83504   0.52271   0.00000  Uiso   1.00
H1085  H     0.61170   0.79833   0.58046   0.00000  Uiso   1.00
H1086  H     0.57436   0.70451   0.70208   0.00000  Uiso   1.00
H1087  H     0.42468   0.96141   0.80354   0.00000  Uiso   1.00
H1088  H     0.64441   0.79049   0.68427   0.00000  Uiso   1.00
H1089  H     0.39533   0.79044   0.68431   0.00000  Uiso   1.00
H1090  H     0.35555   0.87608   0.81583   0.00000  Uiso   1.00
H1091  H     0.60464   0.87613   0.81580   0.00000  Uiso   1.00
H1092  H     0.59540   0.76186   0.91184   0.00000  Uiso   1.00
H1093  H     0.62596   0.77384   0.98714   0.00000  Uiso   1.00
H1094  H     0.47836   0.85403   0.58591   0.00000  Uiso   1.00
H1095  H     0.38471   0.85039   0.92161   0.00000  Uiso   1.00
H1096  H     0.41700   0.83876   0.56624   0.00000  Uiso   1.00
H1097  H     0.36006   0.85408   0.52080   0.00000  Uiso   1.00
H1098  H     0.53505   0.77381   0.87019   0.00000  Uiso   1.00
H1099  H     0.57478   0.96197   0.70183   0.00000  Uiso   1.00
N1100  N     0.38093   0.83334   0.75002   0.00000  Uiso   1.00
N1101  N     0.61906   0.83331   0.75001   0.00000  Uiso   1.00
O1102  O     0.46179   0.89442   0.75001   0.00000  Uiso   1.00
O1103  O     0.53823   0.89441   0.75001   0.00000  Uiso   1.00
O1104  O     0.44280   0.83333   0.82681   0.00000  Uiso   1.00
O1105  O     0.51924   0.83332   0.82681   0.00000  Uiso   1.00
O1106  O     0.46177   0.77226   0.74999   0.00000  Uiso   1.00
O1107  O     0.53821   0.77225   0.74999   0.00000  Uiso   1.00
O1108  O     0.48076   0.83335   0.67319   0.00000  Uiso   1.00
O1109  O     0.55720   0.83334   0.67319   0.00000  Uiso   1.00
Zn1110 Zn    0.44896   0.83334   0.75000   0.00000  Uiso   1.00
Zn1111 Zn    0.55104   0.83333   0.75000   0.00000  Uiso   1.00
O1112  O     0.41498   0.70878   0.81358   0.00000  Uiso   1.00
C1113  C     0.41908   0.72625   0.86163   0.00000  Uiso   1.00
H1114  H     0.39831   0.75601   0.87014   0.00000  Uiso   1.00
H1115  H     0.45671   0.73435   0.85838   0.00000  Uiso   1.00
C1116  C     0.39730   0.69686   0.90948   0.00000  Uiso   1.00
H1117  H     0.35918   0.69027   0.91396   0.00000  Uiso   1.00
H1118  H     0.41757   0.66684   0.90170   0.00000  Uiso   1.00
C1119  C     0.39921   0.71618   0.96210   0.00000  Uiso   1.00
H1120  H     0.43714   0.72212   0.95892   0.00000  Uiso   1.00
H1121  H     0.38288   0.69439   0.99616   0.00000  Uiso   1.00
H1122  H     0.37884   0.74612   0.97104   0.00000  Uiso   1.00
C1123  C     0.83319   0.91332   0.75051   0.00000  Uiso   1.00
C1124  C     0.80974   0.82100   0.99231   0.00000  Uiso   1.00
C1125  C     0.82039   0.81094   0.93721   0.00000  Uiso   1.00
C1126  C     0.84676   0.81680   0.51465   0.00000  Uiso   1.00
C1127  C     0.89018   0.79555   0.98555   0.00000  Uiso   1.00
C1128  C     0.89659   0.77946   0.93406   0.00000  Uiso   1.00
C1129  C     0.86218   0.78715   0.91000   0.00000  Uiso   1.00
C1130  C     0.84226   0.83455   0.56459   0.00000  Uiso   1.00
C1131  C     0.91868   0.80509   0.56128   0.00000  Uiso   1.00
C1132  C     0.78922   0.82569   0.91075   0.00000  Uiso   1.00
C1133  C     0.87536   0.97855   0.72463   0.00000  Uiso   1.00
C1134  C     0.80669   0.83069   0.85201   0.00000  Uiso   1.00
C1135  C     0.87514   0.68801   0.72502   0.00000  Uiso   1.00
C1136  C     0.83266   0.70925   0.75353   0.00000  Uiso   1.00
C1137  C     0.79046   0.68807   0.78411   0.00000  Uiso   1.00
C1138  C     0.79052   0.97838   0.78160   0.00000  Uiso   1.00
C1139  C     0.83290   0.95743   0.75208   0.00000  Uiso   1.00
C1140  C     0.98707   0.80951   0.71349   0.00000  Uiso   1.00
C1141  C     0.70168   0.80951   0.71351   0.00000  Uiso   1.00
C1142  C     0.67957   0.85708   0.78660   0.00000  Uiso   1.00
C1143  C     0.96496   0.85709   0.78657   0.00000  Uiso   1.00
C1144  C     0.83313   0.75336   0.75073   0.00000  Uiso   1.00
C1145  C     0.86000   0.83295   0.64778   0.00000  Uiso   1.00
C1146  C     0.92622   0.79039   0.50878   0.00000  Uiso   1.00
C1147  C     0.87591   0.82637   0.58950   0.00000  Uiso   1.00
C1148  C     0.74302   0.84029   0.94121   0.00000  Uiso   1.00
C1149  C     0.72928   0.84336   0.99725   0.00000  Uiso   1.00
C1150  C     0.76262   0.83504   0.52271   0.00000  Uiso   1.00
H1151  H     0.94503   0.79833   0.58046   0.00000  Uiso   1.00
H1152  H     0.90769   0.70451   0.70208   0.00000  Uiso   1.00
H1153  H     0.75801   0.96141   0.80354   0.00000  Uiso   1.00
H1154  H     0.97775   0.79049   0.68427   0.00000  Uiso   1.00
H1155  H     0.72866   0.79044   0.68431   0.00000  Uiso   1.00
H1156  H     0.68889   0.87608   0.81583   0.00000  Uiso   1.00
H1157  H     0.93797   0.87613   0.81580   0.00000  Uiso   1.00
H1158  H     0.92873   0.76186   0.91184   0.00000  Uiso   1.00
H1159  H     0.95930   0.77384   0.98714   0.00000  Uiso   1.00
H1160  H     0.81170   0.85403   0.58591   0.00000  Uiso   1.00
H1161  H     0.71804   0.85039   0.92161   0.00000  Uiso   1.00
H1162  H     0.75033   0.83876   0.56624   0.00000  Uiso   1.00
H1163  H     0.69340   0.85408   0.52080   0.00000  Uiso   1.00
H1164  H     0.86838   0.77381   0.87019   0.00000  Uiso   1.00
H1165  H     0.90812   0.96197   0.70183   0.00000  Uiso   1.00
N1166  N     0.71426   0.83334   0.75002   0.00000  Uiso   1.00
N1167  N     0.95239   0.83331   0.75001   0.00000  Uiso   1.00
O1168  O     0.79512   0.89442   0.75001   0.00000  Uiso   1.00
O1169  O     0.87157   0.89441   0.75001   0.00000  Uiso   1.00
O1170  O     0.77613   0.83333   0.82681   0.00000  Uiso   1.00
O1171  O     0.85258   0.83332   0.82681   0.00000  Uiso   1.00
O1172  O     0.79510   0.77226   0.74999   0.00000  Uiso   1.00
O1173  O     0.87154   0.77225   0.74999   0.00000  Uiso   1.00
O1174  O     0.81409   0.83335   0.67319   0.00000  Uiso   1.00
O1175  O     0.89053   0.83334   0.67319   0.00000  Uiso   1.00
Zn1176 Zn    0.78229   0.83334   0.75000   0.00000  Uiso   1.00
Zn1177 Zn    0.88438   0.83333   0.75000   0.00000  Uiso   1.00
O1178  O     0.74831   0.70878   0.81358   0.00000  Uiso   1.00
C1179  C     0.75241   0.72625   0.86163   0.00000  Uiso   1.00
H1180  H     0.73165   0.75601   0.87014   0.00000  Uiso   1.00
H1181  H     0.79005   0.73435   0.85838   0.00000  Uiso   1.00
C1182  C     0.73063   0.69686   0.90948   0.00000  Uiso   1.00
H1183  H     0.69252   0.69027   0.91396   0.00000  Uiso   1.00
H1184  H     0.75090   0.66684   0.90170   0.00000  Uiso   1.00
C1185  C     0.73255   0.71618   0.96210   0.00000  Uiso   1.00
H1186  H     0.77047   0.72212   0.95892   0.00000  Uiso   1.00
H1187  H     0.71621   0.69439   0.99616   0.00000  Uiso   1.00
H1188  H     0.71217   0.74612   0.97104   0.00000  Uiso   1.00
loop_
_geom_bond_atom_site_label_1
_geom_bond_atom_site_label_2
_geom_bond_distance
_geom_bond_site_symmetry_2
_ccdc_geom_bond_type
C1     C17     1.411   .     S
C1     O46     1.281   .     A
C1     O47     1.280   .     A
C2     C3      1.405   .     A
C2     C598    1.412   .     S
C2     C622    1.418   .     S
C3     C10     1.411   .     A
C3     C7      1.415   .     A
C4     C8      1.388   .     A
C4     C596    1.412   1_554 S
C4     C599    1.419   1_554 S
C5     C6      1.393   .     A
C5     C598    1.419   .     S
C5     C618    1.405   .     S
C6     C7      1.390   .     A
C6     H36     1.084   .     S
C7     H42     1.082   .     S
C8     C25     1.389   .     A
C8     H38     1.080   .     S
C9     C24     1.396   .     A
C9     H29     1.083   .     S
C9     C25     1.400   .     A
C10    C12     1.459   .     S
C10    C26     1.403   .     A
C11    H43     1.084   .     S
C11    C17     1.393   .     A
C11    C211    1.369   .     S
C12    O48     1.291   .     A
C12    O49     1.293   .     A
C13    C14     1.395   .     A
C13    H30     1.084   .     S
C13    C407    1.369   1_545 S
C14    C22     1.413   .     S
C14    C15     1.408   .     A
C15    O56     1.386   .     S
C15    C412    1.377   1_545 S
C16    H31     1.084   .     S
C16    C17     1.395   .     A
C16    C213    1.377   .     S
C18    N45     1.366   .     A
C18    H32     1.082   .     S
C18    C85     1.416   .     S
C19    N44     1.367   .     A
C19    H33     1.082   .     S
C19    C150    1.416   1_455 S
C20    H34     1.082   .     S
C20    N44     1.366   .     A
C20    C153    1.416   1_455 S
C21    H35     1.082   .     S
C21    N45     1.367   .     A
C21    C86     1.416   .     S
C22    O51     1.280   .     A
C22    O50     1.281   .     A
C23    C25     1.452   .     S
C23    O52     1.291   .     A
C23    O53     1.291   .     A
C24    C599    1.405   1_554 S
C24    H631    1.084   1_554 S
C26    C27     1.388   .     A
C26    H39     1.083   .     S
C27    C622    1.392   .     S
C27    H635    1.083   .     S
C28    H40     1.080   .     S
C28    C596    1.418   1_554 S
C28    C621    1.392   1_554 S
H37    C618    1.084   .     S
H41    C621    1.083   1_554 S
N44    Zn54    2.009   .     S
N45    Zn55    2.009   .     S
O46    Zn54    1.990   .     S
O47    Zn55    1.989   .     S
O48    Zn54    1.960   .     S
O49    Zn55    1.911   .     S
O50    Zn54    1.989   .     S
O51    Zn55    1.990   .     S
O52    Zn54    1.911   .     S
O53    Zn55    1.960   .     S
O56    C57     1.418   .     S
C57    H58     1.111   .     S
C57    H59     1.116   .     S
C57    C60     1.530   .     S
C60    C63     1.527   .     S
C60    H62     1.111   .     S
C60    H61     1.112   .     S
C63    H65     1.110   .     S
C63    H66     1.111   .     S
C63    H64     1.111   .     S
C67    C83     1.411   .     S
C67    O112    1.281   .     A
C67    O113    1.280   .     A
C68    C69     1.405   .     A
C68    C664    1.412   .     S
C68    C688    1.418   .     S
C69    C76     1.411   .     A
C69    C73     1.415   .     A
C70    C74     1.388   .     A
C70    C662    1.412   1_554 S
C70    C665    1.419   1_554 S
C71    C72     1.393   .     A
C71    C664    1.419   .     S
C71    C684    1.405   .     S
C72    C73     1.390   .     A
C72    H102    1.084   .     S
C73    H108    1.082   .     S
C74    C91     1.389   .     A
C74    H104    1.080   .     S
C75    C90     1.396   .     A
C75    H95     1.083   .     S
C75    C91     1.400   .     A
C76    C78     1.459   .     S
C76    C92     1.403   .     A
C77    H109    1.084   .     S
C77    C83     1.393   .     A
C77    C277    1.369   .     S
C78    O114    1.291   .     A
C78    O115    1.293   .     A
C79    C80     1.395   .     A
C79    H96     1.084   .     S
C79    C473    1.369   1_545 S
C80    C88     1.413   .     S
C80    C81     1.408   .     A
C81    O122    1.386   .     S
C81    C478    1.377   1_545 S
C82    H97     1.084   .     S
C82    C83     1.395   .     A
C82    C279    1.377   .     S
C84    N111    1.366   .     A
C84    H98     1.082   .     S
C84    C151    1.416   .     S
C85    N110    1.367   .     A
C85    H99     1.082   .     S
C86    H100    1.082   .     S
C86    N110    1.366   .     A
C87    H101    1.082   .     S
C87    N111    1.367   .     A
C87    C152    1.416   .     S
C88    O117    1.280   .     A
C88    O116    1.281   .     A
C89    C91     1.452   .     S
C89    O118    1.291   .     A
C89    O119    1.291   .     A
C90    C665    1.405   1_554 S
C90    H697    1.084   1_554 S
C92    C93     1.388   .     A
C92    H105    1.083   .     S
C93    C688    1.392   .     S
C93    H701    1.083   .     S
C94    H106    1.080   .     S
C94    C662    1.418   1_554 S
C94    C687    1.392   1_554 S
H103   C684    1.084   .     S
H107   C687    1.083   1_554 S
N110   Zn120   2.009   .     S
N111   Zn121   2.009   .     S
O112   Zn120   1.990   .     S
O113   Zn121   1.989   .     S
O114   Zn120   1.960   .     S
O115   Zn121   1.911   .     S
O116   Zn120   1.989   .     S
O117   Zn121   1.990   .     S
O118   Zn120   1.911   .     S
O119   Zn121   1.960   .     S
O122   C123    1.418   .     S
C123   H124    1.111   .     S
C123   H125    1.116   .     S
C123   C126    1.530   .     S
C126   C129    1.527   .     S
C126   H128    1.111   .     S
C126   H127    1.112   .     S
C129   H131    1.110   .     S
C129   H132    1.111   .     S
C129   H130    1.111   .     S
C133   C149    1.411   .     S
C133   O178    1.281   .     A
C133   O179    1.280   .     A
C134   C135    1.405   .     A
C134   C730    1.412   .     S
C134   C754    1.418   .     S
C135   C142    1.411   .     A
C135   C139    1.415   .     A
C136   C140    1.388   .     A
C136   C728    1.412   1_554 S
C136   C731    1.419   1_554 S
C137   C138    1.393   .     A
C137   C730    1.419   .     S
C137   C750    1.405   .     S
C138   C139    1.390   .     A
C138   H168    1.084   .     S
C139   H174    1.082   .     S
C140   C157    1.389   .     A
C140   H170    1.080   .     S
C141   C156    1.396   .     A
C141   H161    1.083   .     S
C141   C157    1.400   .     A
C142   C144    1.459   .     S
C142   C158    1.403   .     A
C143   H175    1.084   .     S
C143   C149    1.393   .     A
C143   C343    1.369   .     S
C144   O180    1.291   .     A
C144   O181    1.293   .     A
C145   C146    1.395   .     A
C145   H162    1.084   .     S
C145   C539    1.369   1_545 S
C146   C154    1.413   .     S
C146   C147    1.408   .     A
C147   O188    1.386   .     S
C147   C544    1.377   1_545 S
C148   H163    1.084   .     S
C148   C149    1.395   .     A
C148   C345    1.377   .     S
C150   N177    1.366   .     A
C150   H164    1.082   .     S
C150   C19     1.416   1_655 S
C151   N176    1.367   .     A
C151   H165    1.082   .     S
C152   H166    1.082   .     S
C152   N176    1.366   .     A
C153   H167    1.082   .     S
C153   N177    1.367   .     A
C153   C20     1.416   1_655 S
C154   O183    1.280   .     A
C154   O182    1.281   .     A
C155   C157    1.452   .     S
C155   O184    1.291   .     A
C155   O185    1.291   .     A
C156   C731    1.405   1_554 S
C156   H763    1.084   1_554 S
C158   C159    1.388   .     A
C158   H171    1.083   .     S
C159   C754    1.392   .     S
C159   H767    1.083   .     S
C160   H172    1.080   .     S
C160   C728    1.418   1_554 S
C160   C753    1.392   1_554 S
H169   C750    1.084   .     S
H173   C753    1.083   1_554 S
N176   Zn186   2.009   .     S
N177   Zn187   2.009   .     S
O178   Zn186   1.990   .     S
O179   Zn187   1.989   .     S
O180   Zn186   1.960   .     S
O181   Zn187   1.911   .     S
O182   Zn186   1.989   .     S
O183   Zn187   1.990   .     S
O184   Zn186   1.911   .     S
O185   Zn187   1.960   .     S
O188   C189    1.418   .     S
C189   H190    1.111   .     S
C189   H191    1.116   .     S
C189   C192    1.530   .     S
C192   C195    1.527   .     S
C192   H194    1.111   .     S
C192   H193    1.112   .     S
C195   H197    1.110   .     S
C195   H198    1.111   .     S
C195   H196    1.111   .     S
C199   C215    1.411   .     S
C199   O244    1.281   .     A
C199   O245    1.280   .     A
C200   C201    1.405   .     A
C200   C796    1.412   .     S
C200   C820    1.418   .     S
C201   C208    1.411   .     A
C201   C205    1.415   .     A
C202   C206    1.388   .     A
C202   C794    1.412   1_554 S
C202   C797    1.419   1_554 S
C203   C204    1.393   .     A
C203   C796    1.419   .     S
C203   C816    1.405   .     S
C204   C205    1.390   .     A
C204   H234    1.084   .     S
C205   H240    1.082   .     S
C206   C223    1.389   .     A
C206   H236    1.080   .     S
C207   C222    1.396   .     A
C207   H227    1.083   .     S
C207   C223    1.400   .     A
C208   C210    1.459   .     S
C208   C224    1.403   .     A
C209   H241    1.084   .     S
C209   C215    1.393   .     A
C209   C409    1.369   .     S
C210   O246    1.291   .     A
C210   O247    1.293   .     A
C211   C212    1.395   .     A
C211   H228    1.084   .     S
C212   C220    1.413   .     S
C212   C213    1.408   .     A
C213   O254    1.386   .     S
C214   H229    1.084   .     S
C214   C215    1.395   .     A
C214   C411    1.377   .     S
C216   N243    1.366   .     A
C216   H230    1.082   .     S
C216   C283    1.416   .     S
C217   N242    1.367   .     A
C217   H231    1.082   .     S
C217   C348    1.416   1_455 S
C218   H232    1.082   .     S
C218   N242    1.366   .     A
C218   C351    1.416   1_455 S
C219   H233    1.082   .     S
C219   N243    1.367   .     A
C219   C284    1.416   .     S
C220   O249    1.280   .     A
C220   O248    1.281   .     A
C221   C223    1.452   .     S
C221   O250    1.291   .     A
C221   O251    1.291   .     A
C222   C797    1.405   1_554 S
C222   H829    1.084   1_554 S
C224   C225    1.388   .     A
C224   H237    1.083   .     S
C225   C820    1.392   .     S
C225   H833    1.083   .     S
C226   H238    1.080   .     S
C226   C794    1.418   1_554 S
C226   C819    1.392   1_554 S
H235   C816    1.084   .     S
H239   C819    1.083   1_554 S
N242   Zn252   2.009   .     S
N243   Zn253   2.009   .     S
O244   Zn252   1.990   .     S
O245   Zn253   1.989   .     S
O246   Zn252   1.960   .     S
O247   Zn253   1.911   .     S
O248   Zn252   1.989   .     S
O249   Zn253   1.990   .     S
O250   Zn252   1.911   .     S
O251   Zn253   1.960   .     S
O254   C255    1.418   .     S
C255   H256    1.111   .     S
C255   H257    1.116   .     S
C255   C258    1.530   .     S
C258   C261    1.527   .     S
C258   H260    1.111   .     S
C258   H259    1.112   .     S
C261   H263    1.110   .     S
C261   H264    1.111   .     S
C261   H262    1.111   .     S
C265   C281    1.411   .     S
C265   O310    1.281   .     A
C265   O311    1.280   .     A
C266   C267    1.405   .     A
C266   C862    1.412   .     S
C266   C886    1.418   .     S
C267   C274    1.411   .     A
C267   C271    1.415   .     A
C268   C272    1.388   .     A
C268   C860    1.412   1_554 S
C268   C863    1.419   1_554 S
C269   C270    1.393   .     A
C269   C862    1.419   .     S
C269   C882    1.405   .     S
C270   C271    1.390   .     A
C270   H300    1.084   .     S
C271   H306    1.082   .     S
C272   C289    1.389   .     A
C272   H302    1.080   .     S
C273   C288    1.396   .     A
C273   H293    1.083   .     S
C273   C289    1.400   .     A
C274   C276    1.459   .     S
C274   C290    1.403   .     A
C275   H307    1.084   .     S
C275   C281    1.393   .     A
C275   C475    1.369   .     S
C276   O312    1.291   .     A
C276   O313    1.293   .     A
C277   C278    1.395   .     A
C277   H294    1.084   .     S
C278   C286    1.413   .     S
C278   C279    1.408   .     A
C279   O320    1.386   .     S
C280   H295    1.084   .     S
C280   C281    1.395   .     A
C280   C477    1.377   .     S
C282   N309    1.366   .     A
C282   H296    1.082   .     S
C282   C349    1.416   .     S
C283   N308    1.367   .     A
C283   H297    1.082   .     S
C284   H298    1.082   .     S
C284   N308    1.366   .     A
C285   H299    1.082   .     S
C285   N309    1.367   .     A
C285   C350    1.416   .     S
C286   O315    1.280   .     A
C286   O314    1.281   .     A
C287   C289    1.452   .     S
C287   O316    1.291   .     A
C287   O317    1.291   .     A
C288   C863    1.405   1_554 S
C288   H895    1.084   1_554 S
C290   C291    1.388   .     A
C290   H303    1.083   .     S
C291   C886    1.392   .     S
C291   H899    1.083   .     S
C292   H304    1.080   .     S
C292   C860    1.418   1_554 S
C292   C885    1.392   1_554 S
H301   C882    1.084   .     S
H305   C885    1.083   1_554 S
N308   Zn318   2.009   .     S
N309   Zn319   2.009   .     S
O310   Zn318   1.990   .     S
O311   Zn319   1.989   .     S
O312   Zn318   1.960   .     S
O313   Zn319   1.911   .     S
O314   Zn318   1.989   .     S
O315   Zn319   1.990   .     S
O316   Zn318   1.911   .     S
O317   Zn319   1.960   .     S
O320   C321    1.418   .     S
C321   H322    1.111   .     S
C321   H323    1.116   .     S
C321   C324    1.530   .     S
C324   C327    1.527   .     S
C324   H326    1.111   .     S
C324   H325    1.112   .     S
C327   H329    1.110   .     S
C327   H330    1.111   .     S
C327   H328    1.111   .     S
C331   C347    1.411   .     S
C331   O376    1.281   .     A
C331   O377    1.280   .     A
C332   C333    1.405   .     A
C332   C928    1.412   .     S
C332   C952    1.418   .     S
C333   C340    1.411   .     A
C333   C337    1.415   .     A
C334   C338    1.388   .     A
C334   C926    1.412   1_554 S
C334   C929    1.419   1_554 S
C335   C336    1.393   .     A
C335   C928    1.419   .     S
C335   C948    1.405   .     S
C336   C337    1.390   .     A
C336   H366    1.084   .     S
C337   H372    1.082   .     S
C338   C355    1.389   .     A
C338   H368    1.080   .     S
C339   C354    1.396   .     A
C339   H359    1.083   .     S
C339   C355    1.400   .     A
C340   C342    1.459   .     S
C340   C356    1.403   .     A
C341   H373    1.084   .     S
C341   C347    1.393   .     A
C341   C541    1.369   .     S
C342   O378    1.291   .     A
C342   O379    1.293   .     A
C343   C344    1.395   .     A
C343   H360    1.084   .     S
C344   C352    1.413   .     S
C344   C345    1.408   .     A
C345   O386    1.386   .     S
C346   H361    1.084   .     S
C346   C347    1.395   .     A
C346   C543    1.377   .     S
C348   N375    1.366   .     A
C348   H362    1.082   .     S
C348   C217    1.416   1_655 S
C349   N374    1.367   .     A
C349   H363    1.082   .     S
C350   H364    1.082   .     S
C350   N374    1.366   .     A
C351   H365    1.082   .     S
C351   N375    1.367   .     A
C351   C218    1.416   1_655 S
C352   O381    1.280   .     A
C352   O380    1.281   .     A
C353   C355    1.452   .     S
C353   O382    1.291   .     A
C353   O383    1.291   .     A
C354   C929    1.405   1_554 S
C354   H961    1.084   1_554 S
C356   C357    1.388   .     A
C356   H369    1.083   .     S
C357   C952    1.392   .     S
C357   H965    1.083   .     S
C358   H370    1.080   .     S
C358   C926    1.418   1_554 S
C358   C951    1.392   1_554 S
H367   C948    1.084   .     S
H371   C951    1.083   1_554 S
N374   Zn384   2.009   .     S
N375   Zn385   2.009   .     S
O376   Zn384   1.990   .     S
O377   Zn385   1.989   .     S
O378   Zn384   1.960   .     S
O379   Zn385   1.911   .     S
O380   Zn384   1.989   .     S
O381   Zn385   1.990   .     S
O382   Zn384   1.911   .     S
O383   Zn385   1.960   .     S
O386   C387    1.418   .     S
C387   H388    1.111   .     S
C387   H389    1.116   .     S
C387   C390    1.530   .     S
C390   C393    1.527   .     S
C390   H392    1.111   .     S
C390   H391    1.112   .     S
C393   H395    1.110   .     S
C393   H396    1.111   .     S
C393   H394    1.111   .     S
C397   C413    1.411   .     S
C397   O442    1.281   .     A
C397   O443    1.280   .     A
C398   C399    1.405   .     A
C398   C994    1.412   .     S
C398   C1018   1.418   .     S
C399   C406    1.411   .     A
C399   C403    1.415   .     A
C400   C404    1.388   .     A
C400   C992    1.412   1_554 S
C400   C995    1.419   1_554 S
C401   C402    1.393   .     A
C401   C994    1.419   .     S
C401   C1014   1.405   .     S
C402   C403    1.390   .     A
C402   H432    1.084   .     S
C403   H438    1.082   .     S
C404   C421    1.389   .     A
C404   H434    1.080   .     S
C405   C420    1.396   .     A
C405   H425    1.083   .     S
C405   C421    1.400   .     A
C406   C408    1.459   .     S
C406   C422    1.403   .     A
C407   H439    1.084   .     S
C407   C413    1.393   .     A
C407   C13     1.369   1_565 S
C408   O444    1.291   .     A
C408   O445    1.293   .     A
C409   C410    1.395   .     A
C409   H426    1.084   .     S
C410   C418    1.413   .     S
C410   C411    1.408   .     A
C411   O452    1.386   .     S
C412   H427    1.084   .     S
C412   C413    1.395   .     A
C412   C15     1.377   1_565 S
C414   N441    1.366   .     A
C414   H428    1.082   .     S
C414   C481    1.416   .     S
C415   N440    1.367   .     A
C415   H429    1.082   .     S
C415   C546    1.416   1_455 S
C416   H430    1.082   .     S
C416   N440    1.366   .     A
C416   C549    1.416   1_455 S
C417   H431    1.082   .     S
C417   N441    1.367   .     A
C417   C482    1.416   .     S
C418   O447    1.280   .     A
C418   O446    1.281   .     A
C419   C421    1.452   .     S
C419   O448    1.291   .     A
C419   O449    1.291   .     A
C420   C995    1.405   1_554 S
C420   H1027   1.084   1_554 S
C422   C423    1.388   .     A
C422   H435    1.083   .     S
C423   C1018   1.392   .     S
C423   H1031   1.083   .     S
C424   H436    1.080   .     S
C424   C992    1.418   1_554 S
C424   C1017   1.392   1_554 S
H433   C1014   1.084   .     S
H437   C1017   1.083   1_554 S
N440   Zn450   2.009   .     S
N441   Zn451   2.009   .     S
O442   Zn450   1.990   .     S
O443   Zn451   1.989   .     S
O444   Zn450   1.960   .     S
O445   Zn451   1.911   .     S
O446   Zn450   1.989   .     S
O447   Zn451   1.990   .     S
O448   Zn450   1.911   .     S
O449   Zn451   1.960   .     S
O452   C453    1.418   .     S
C453   H454    1.111   .     S
C453   H455    1.116   .     S
C453   C456    1.530   .     S
C456   C459    1.527   .     S
C456   H458    1.111   .     S
C456   H457    1.112   .     S
C459   H461    1.110   .     S
C459   H462    1.111   .     S
C459   H460    1.111   .     S
C463   C479    1.411   .     S
C463   O508    1.281   .     A
C463   O509    1.280   .     A
C464   C465    1.405   .     A
C464   C1060   1.412   .     S
C464   C1084   1.418   .     S
C465   C472    1.411   .     A
C465   C469    1.415   .     A
C466   C470    1.388   .     A
C466   C1058   1.412   1_554 S
C466   C1061   1.419   1_554 S
C467   C468    1.393   .     A
C467   C1060   1.419   .     S
C467   C1080   1.405   .     S
C468   C469    1.390   .     A
C468   H498    1.084   .     S
C469   H504    1.082   .     S
C470   C487    1.389   .     A
C470   H500    1.080   .     S
C471   C486    1.396   .     A
C471   H491    1.083   .     S
C471   C487    1.400   .     A
C472   C474    1.459   .     S
C472   C488    1.403   .     A
C473   H505    1.084   .     S
C473   C479    1.393   .     A
C473   C79     1.369   1_565 S
C474   O510    1.291   .     A
C474   O511    1.293   .     A
C475   C476    1.395   .     A
C475   H492    1.084   .     S
C476   C484    1.413   .     S
C476   C477    1.408   .     A
C477   O518    1.386   .     S
C478   H493    1.084   .     S
C478   C479    1.395   .     A
C478   C81     1.377   1_565 S
C480   N507    1.366   .     A
C480   H494    1.082   .     S
C480   C547    1.416   .     S
C481   N506    1.367   .     A
C481   H495    1.082   .     S
C482   H496    1.082   .     S
C482   N506    1.366   .     A
C483   H497    1.082   .     S
C483   N507    1.367   .     A
C483   C548    1.416   .     S
C484   O513    1.280   .     A
C484   O512    1.281   .     A
C485   C487    1.452   .     S
C485   O514    1.291   .     A
C485   O515    1.291   .     A
C486   C1061   1.405   1_554 S
C486   H1093   1.084   1_554 S
C488   C489    1.388   .     A
C488   H501    1.083   .     S
C489   C1084   1.392   .     S
C489   H1097   1.083   .     S
C490   H502    1.080   .     S
C490   C1058   1.418   1_554 S
C490   C1083   1.392   1_554 S
H499   C1080   1.084   .     S
H503   C1083   1.083   1_554 S
N506   Zn516   2.009   .     S
N507   Zn517   2.009   .     S
O508   Zn516   1.990   .     S
O509   Zn517   1.989   .     S
O510   Zn516   1.960   .     S
O511   Zn517   1.911   .     S
O512   Zn516   1.989   .     S
O513   Zn517   1.990   .     S
O514   Zn516   1.911   .     S
O515   Zn517   1.960   .     S
O518   C519    1.418   .     S
C519   H520    1.111   .     S
C519   H521    1.116   .     S
C519   C522    1.530   .     S
C522   C525    1.527   .     S
C522   H524    1.111   .     S
C522   H523    1.112   .     S
C525   H527    1.110   .     S
C525   H528    1.111   .     S
C525   H526    1.111   .     S
C529   C545    1.411   .     S
C529   O574    1.281   .     A
C529   O575    1.280   .     A
C530   C531    1.405   .     A
C530   C1126   1.412   .     S
C530   C1150   1.418   .     S
C531   C538    1.411   .     A
C531   C535    1.415   .     A
C532   C536    1.388   .     A
C532   C1124   1.412   1_554 S
C532   C1127   1.419   1_554 S
C533   C534    1.393   .     A
C533   C1126   1.419   .     S
C533   C1146   1.405   .     S
C534   C535    1.390   .     A
C534   H564    1.084   .     S
C535   H570    1.082   .     S
C536   C553    1.389   .     A
C536   H566    1.080   .     S
C537   C552    1.396   .     A
C537   H557    1.083   .     S
C537   C553    1.400   .     A
C538   C540    1.459   .     S
C538   C554    1.403   .     A
C539   H571    1.084   .     S
C539   C545    1.393   .     A
C539   C145    1.369   1_565 S
C540   O576    1.291   .     A
C540   O577    1.293   .     A
C541   C542    1.395   .     A
C541   H558    1.084   .     S
C542   C550    1.413   .     S
C542   C543    1.408   .     A
C543   O584    1.386   .     S
C544   H559    1.084   .     S
C544   C545    1.395   .     A
C544   C147    1.377   1_565 S
C546   N573    1.366   .     A
C546   H560    1.082   .     S
C546   C415    1.416   1_655 S
C547   N572    1.367   .     A
C547   H561    1.082   .     S
C548   H562    1.082   .     S
C548   N572    1.366   .     A
C549   H563    1.082   .     S
C549   N573    1.367   .     A
C549   C416    1.416   1_655 S
C550   O579    1.280   .     A
C550   O578    1.281   .     A
C551   C553    1.452   .     S
C551   O580    1.291   .     A
C551   O581    1.291   .     A
C552   C1127   1.405   1_554 S
C552   H1159   1.084   1_554 S
C554   C555    1.388   .     A
C554   H567    1.083   .     S
C555   C1150   1.392   .     S
C555   H1163   1.083   .     S
C556   H568    1.080   .     S
C556   C1124   1.418   1_554 S
C556   C1149   1.392   1_554 S
H565   C1146   1.084   .     S
H569   C1149   1.083   1_554 S
N572   Zn582   2.009   .     S
N573   Zn583   2.009   .     S
O574   Zn582   1.990   .     S
O575   Zn583   1.989   .     S
O576   Zn582   1.960   .     S
O577   Zn583   1.911   .     S
O578   Zn582   1.989   .     S
O579   Zn583   1.990   .     S
O580   Zn582   1.911   .     S
O581   Zn583   1.960   .     S
O584   C585    1.418   .     S
C585   H586    1.111   .     S
C585   H587    1.116   .     S
C585   C588    1.530   .     S
C588   C591    1.527   .     S
C588   H590    1.111   .     S
C588   H589    1.112   .     S
C591   H593    1.110   .     S
C591   H594    1.111   .     S
C591   H592    1.111   .     S
C595   C611    1.411   .     S
C595   O640    1.281   .     A
C595   O641    1.280   .     A
C596   C597    1.405   .     A
C596   C4      1.412   1_556 S
C596   C28     1.418   1_556 S
C597   C604    1.411   .     A
C597   C601    1.415   .     A
C598   C602    1.388   .     A
C599   C600    1.393   .     A
C599   C4      1.419   1_556 S
C599   C24     1.405   1_556 S
C600   C601    1.390   .     A
C600   H630    1.084   .     S
C601   H636    1.082   .     S
C602   C619    1.389   .     A
C602   H632    1.080   .     S
C603   C618    1.396   .     A
C603   H623    1.083   .     S
C603   C619    1.400   .     A
C604   C606    1.459   .     S
C604   C620    1.403   .     A
C605   H637    1.084   .     S
C605   C611    1.393   .     A
C605   C805    1.369   .     S
C606   O642    1.291   .     A
C606   O643    1.293   .     A
C607   C608    1.395   .     A
C607   H624    1.084   .     S
C607   C1001   1.369   1_545 S
C608   C616    1.413   .     S
C608   C609    1.408   .     A
C609   O650    1.386   .     S
C609   C1006   1.377   1_545 S
C610   H625    1.084   .     S
C610   C611    1.395   .     A
C610   C807    1.377   .     S
C612   N639    1.366   .     A
C612   H626    1.082   .     S
C612   C679    1.416   .     S
C613   N638    1.367   .     A
C613   H627    1.082   .     S
C613   C744    1.416   1_455 S
C614   H628    1.082   .     S
C614   N638    1.366   .     A
C614   C747    1.416   1_455 S
C615   H629    1.082   .     S
C615   N639    1.367   .     A
C615   C680    1.416   .     S
C616   O645    1.280   .     A
C616   O644    1.281   .     A
C617   C619    1.452   .     S
C617   O646    1.291   .     A
C617   O647    1.291   .     A
C620   C621    1.388   .     A
C620   H633    1.083   .     S
C621   C28     1.392   1_556 S
C621   H41     1.083   1_556 S
C622   H634    1.080   .     S
H631   C24     1.084   1_556 S
N638   Zn648   2.009   .     S
N639   Zn649   2.009   .     S
O640   Zn648   1.990   .     S
O641   Zn649   1.989   .     S
O642   Zn648   1.960   .     S
O643   Zn649   1.911   .     S
O644   Zn648   1.989   .     S
O645   Zn649   1.990   .     S
O646   Zn648   1.911   .     S
O647   Zn649   1.960   .     S
O650   C651    1.418   .     S
C651   H652    1.111   .     S
C651   H653    1.116   .     S
C651   C654    1.530   .     S
C654   C657    1.527   .     S
C654   H656    1.111   .     S
C654   H655    1.112   .     S
C657   H659    1.110   .     S
C657   H660    1.111   .     S
C657   H658    1.111   .     S
C661   C677    1.411   .     S
C661   O706    1.281   .     A
C661   O707    1.280   .     A
C662   C663    1.405   .     A
C662   C70     1.412   1_556 S
C662   C94     1.418   1_556 S
C663   C670    1.411   .     A
C663   C667    1.415   .     A
C664   C668    1.388   .     A
C665   C666    1.393   .     A
C665   C70     1.419   1_556 S
C665   C90     1.405   1_556 S
C666   C667    1.390   .     A
C666   H696    1.084   .     S
C667   H702    1.082   .     S
C668   C685    1.389   .     A
C668   H698    1.080   .     S
C669   C684    1.396   .     A
C669   H689    1.083   .     S
C669   C685    1.400   .     A
C670   C672    1.459   .     S
C670   C686    1.403   .     A
C671   H703    1.084   .     S
C671   C677    1.393   .     A
C671   C871    1.369   .     S
C672   O708    1.291   .     A
C672   O709    1.293   .     A
C673   C674    1.395   .     A
C673   H690    1.084   .     S
C673   C1067   1.369   1_545 S
C674   C682    1.413   .     S
C674   C675    1.408   .     A
C675   O716    1.386   .     S
C675   C1072   1.377   1_545 S
C676   H691    1.084   .     S
C676   C677    1.395   .     A
C676   C873    1.377   .     S
C678   N705    1.366   .     A
C678   H692    1.082   .     S
C678   C745    1.416   .     S
C679   N704    1.367   .     A
C679   H693    1.082   .     S
C680   H694    1.082   .     S
C680   N704    1.366   .     A
C681   H695    1.082   .     S
C681   N705    1.367   .     A
C681   C746    1.416   .     S
C682   O711    1.280   .     A
C682   O710    1.281   .     A
C683   C685    1.452   .     S
C683   O712    1.291   .     A
C683   O713    1.291   .     A
C686   C687    1.388   .     A
C686   H699    1.083   .     S
C687   C94     1.392   1_556 S
C687   H107    1.083   1_556 S
C688   H700    1.080   .     S
H697   C90     1.084   1_556 S
N704   Zn714   2.009   .     S
N705   Zn715   2.009   .     S
O706   Zn714   1.990   .     S
O707   Zn715   1.989   .     S
O708   Zn714   1.960   .     S
O709   Zn715   1.911   .     S
O710   Zn714   1.989   .     S
O711   Zn715   1.990   .     S
O712   Zn714   1.911   .     S
O713   Zn715   1.960   .     S
O716   C717    1.418   .     S
C717   H718    1.111   .     S
C717   H719    1.116   .     S
C717   C720    1.530   .     S
C720   C723    1.527   .     S
C720   H722    1.111   .     S
C720   H721    1.112   .     S
C723   H725    1.110   .     S
C723   H726    1.111   .     S
C723   H724    1.111   .     S
C727   C743    1.411   .     S
C727   O772    1.281   .     A
C727   O773    1.280   .     A
C728   C729    1.405   .     A
C728   C136    1.412   1_556 S
C728   C160    1.418   1_556 S
C729   C736    1.411   .     A
C729   C733    1.415   .     A
C730   C734    1.388   .     A
C731   C732    1.393   .     A
C731   C136    1.419   1_556 S
C731   C156    1.405   1_556 S
C732   C733    1.390   .     A
C732   H762    1.084   .     S
C733   H768    1.082   .     S
C734   C751    1.389   .     A
C734   H764    1.080   .     S
C735   C750    1.396   .     A
C735   H755    1.083   .     S
C735   C751    1.400   .     A
C736   C738    1.459   .     S
C736   C752    1.403   .     A
C737   H769    1.084   .     S
C737   C743    1.393   .     A
C737   C937    1.369   .     S
C738   O774    1.291   .     A
C738   O775    1.293   .     A
C739   C740    1.395   .     A
C739   H756    1.084   .     S
C739   C1133   1.369   1_545 S
C740   C748    1.413   .     S
C740   C741    1.408   .     A
C741   O782    1.386   .     S
C741   C1138   1.377   1_545 S
C742   H757    1.084   .     S
C742   C743    1.395   .     A
C742   C939    1.377   .     S
C744   N771    1.366   .     A
C744   H758    1.082   .     S
C744   C613    1.416   1_655 S
C745   N770    1.367   .     A
C745   H759    1.082   .     S
C746   H760    1.082   .     S
C746   N770    1.366   .     A
C747   H761    1.082   .     S
C747   N771    1.367   .     A
C747   C614    1.416   1_655 S
C748   O777    1.280   .     A
C748   O776    1.281   .     A
C749   C751    1.452   .     S
C749   O778    1.291   .     A
C749   O779    1.291   .     A
C752   C753    1.388   .     A
C752   H765    1.083   .     S
C753   C160    1.392   1_556 S
C753   H173    1.083   1_556 S
C754   H766    1.080   .     S
H763   C156    1.084   1_556 S
N770   Zn780   2.009   .     S
N771   Zn781   2.009   .     S
O772   Zn780   1.990   .     S
O773   Zn781   1.989   .     S
O774   Zn780   1.960   .     S
O775   Zn781   1.911   .     S
O776   Zn780   1.989   .     S
O777   Zn781   1.990   .     S
O778   Zn780   1.911   .     S
O779   Zn781   1.960   .     S
O782   C783    1.418   .     S
C783   H784    1.111   .     S
C783   H785    1.116   .     S
C783   C786    1.530   .     S
C786   C789    1.527   .     S
C786   H788    1.111   .     S
C786   H787    1.112   .     S
C789   H791    1.110   .     S
C789   H792    1.111   .     S
C789   H790    1.111   .     S
C793   C809    1.411   .     S
C793   O838    1.281   .     A
C793   O839    1.280   .     A
C794   C795    1.405   .     A
C794   C202    1.412   1_556 S
C794   C226    1.418   1_556 S
C795   C802    1.411   .     A
C795   C799    1.415   .     A
C796   C800    1.388   .     A
C797   C798    1.393   .     A
C797   C202    1.419   1_556 S
C797   C222    1.405   1_556 S
C798   C799    1.390   .     A
C798   H828    1.084   .     S
C799   H834    1.082   .     S
C800   C817    1.389   .     A
C800   H830    1.080   .     S
C801   C816    1.396   .     A
C801   H821    1.083   .     S
C801   C817    1.400   .     A
C802   C804    1.459   .     S
C802   C818    1.403   .     A
C803   H835    1.084   .     S
C803   C809    1.393   .     A
C803   C1003   1.369   .     S
C804   O840    1.291   .     A
C804   O841    1.293   .     A
C805   C806    1.395   .     A
C805   H822    1.084   .     S
C806   C814    1.413   .     S
C806   C807    1.408   .     A
C807   O848    1.386   .     S
C808   H823    1.084   .     S
C808   C809    1.395   .     A
C808   C1005   1.377   .     S
C810   N837    1.366   .     A
C810   H824    1.082   .     S
C810   C877    1.416   .     S
C811   N836    1.367   .     A
C811   H825    1.082   .     S
C811   C942    1.416   1_455 S
C812   H826    1.082   .     S
C812   N836    1.366   .     A
C812   C945    1.416   1_455 S
C813   H827    1.082   .     S
C813   N837    1.367   .     A
C813   C878    1.416   .     S
C814   O843    1.280   .     A
C814   O842    1.281   .     A
C815   C817    1.452   .     S
C815   O844    1.291   .     A
C815   O845    1.291   .     A
C818   C819    1.388   .     A
C818   H831    1.083   .     S
C819   C226    1.392   1_556 S
C819   H239    1.083   1_556 S
C820   H832    1.080   .     S
H829   C222    1.084   1_556 S
N836   Zn846   2.009   .     S
N837   Zn847   2.009   .     S
O838   Zn846   1.990   .     S
O839   Zn847   1.989   .     S
O840   Zn846   1.960   .     S
O841   Zn847   1.911   .     S
O842   Zn846   1.989   .     S
O843   Zn847   1.990   .     S
O844   Zn846   1.911   .     S
O845   Zn847   1.960   .     S
O848   C849    1.418   .     S
C849   H850    1.111   .     S
C849   H851    1.116   .     S
C849   C852    1.530   .     S
C852   C855    1.527   .     S
C852   H854    1.111   .     S
C852   H853    1.112   .     S
C855   H857    1.110   .     S
C855   H858    1.111   .     S
C855   H856    1.111   .     S
C859   C875    1.411   .     S
C859   O904    1.281   .     A
C859   O905    1.280   .     A
C860   C861    1.405   .     A
C860   C268    1.412   1_556 S
C860   C292    1.418   1_556 S
C861   C868    1.411   .     A
C861   C865    1.415   .     A
C862   C866    1.388   .     A
C863   C864    1.393   .     A
C863   C268    1.419   1_556 S
C863   C288    1.405   1_556 S
C864   C865    1.390   .     A
C864   H894    1.084   .     S
C865   H900    1.082   .     S
C866   C883    1.389   .     A
C866   H896    1.080   .     S
C867   C882    1.396   .     A
C867   H887    1.083   .     S
C867   C883    1.400   .     A
C868   C870    1.459   .     S
C868   C884    1.403   .     A
C869   H901    1.084   .     S
C869   C875    1.393   .     A
C869   C1069   1.369   .     S
C870   O906    1.291   .     A
C870   O907    1.293   .     A
C871   C872    1.395   .     A
C871   H888    1.084   .     S
C872   C880    1.413   .     S
C872   C873    1.408   .     A
C873   O914    1.386   .     S
C874   H889    1.084   .     S
C874   C875    1.395   .     A
C874   C1071   1.377   .     S
C876   N903    1.366   .     A
C876   H890    1.082   .     S
C876   C943    1.416   .     S
C877   N902    1.367   .     A
C877   H891    1.082   .     S
C878   H892    1.082   .     S
C878   N902    1.366   .     A
C879   H893    1.082   .     S
C879   N903    1.367   .     A
C879   C944    1.416   .     S
C880   O909    1.280   .     A
C880   O908    1.281   .     A
C881   C883    1.452   .     S
C881   O910    1.291   .     A
C881   O911    1.291   .     A
C884   C885    1.388   .     A
C884   H897    1.083   .     S
C885   C292    1.392   1_556 S
C885   H305    1.083   1_556 S
C886   H898    1.080   .     S
H895   C288    1.084   1_556 S
N902   Zn912   2.009   .     S
N903   Zn913   2.009   .     S
O904   Zn912   1.990   .     S
O905   Zn913   1.989   .     S
O906   Zn912   1.960   .     S
O907   Zn913   1.911   .     S
O908   Zn912   1.989   .     S
O909   Zn913   1.990   .     S
O910   Zn912   1.911   .     S
O911   Zn913   1.960   .     S
O914   C915    1.418   .     S
C915   H916    1.111   .     S
C915   H917    1.116   .     S
C915   C918    1.530   .     S
C918   C921    1.527   .     S
C918   H920    1.111   .     S
C918   H919    1.112   .     S
C921   H923    1.110   .     S
C921   H924    1.111   .     S
C921   H922    1.111   .     S
C925   C941    1.411   .     S
C925   O970    1.281   .     A
C925   O971    1.280   .     A
C926   C927    1.405   .     A
C926   C334    1.412   1_556 S
C926   C358    1.418   1_556 S
C927   C934    1.411   .     A
C927   C931    1.415   .     A
C928   C932    1.388   .     A
C929   C930    1.393   .     A
C929   C334    1.419   1_556 S
C929   C354    1.405   1_556 S
C930   C931    1.390   .     A
C930   H960    1.084   .     S
C931   H966    1.082   .     S
C932   C949    1.389   .     A
C932   H962    1.080   .     S
C933   C948    1.396   .     A
C933   H953    1.083   .     S
C933   C949    1.400   .     A
C934   C936    1.459   .     S
C934   C950    1.403   .     A
C935   H967    1.084   .     S
C935   C941    1.393   .     A
C935   C1135   1.369   .     S
C936   O972    1.291   .     A
C936   O973    1.293   .     A
C937   C938    1.395   .     A
C937   H954    1.084   .     S
C938   C946    1.413   .     S
C938   C939    1.408   .     A
C939   O980    1.386   .     S
C940   H955    1.084   .     S
C940   C941    1.395   .     A
C940   C1137   1.377   .     S
C942   N969    1.366   .     A
C942   H956    1.082   .     S
C942   C811    1.416   1_655 S
C943   N968    1.367   .     A
C943   H957    1.082   .     S
C944   H958    1.082   .     S
C944   N968    1.366   .     A
C945   H959    1.082   .     S
C945   N969    1.367   .     A
C945   C812    1.416   1_655 S
C946   O975    1.280   .     A
C946   O974    1.281   .     A
C947   C949    1.452   .     S
C947   O976    1.291   .     A
C947   O977    1.291   .     A
C950   C951    1.388   .     A
C950   H963    1.083   .     S
C951   C358    1.392   1_556 S
C951   H371    1.083   1_556 S
C952   H964    1.080   .     S
H961   C354    1.084   1_556 S
N968   Zn978   2.009   .     S
N969   Zn979   2.009   .     S
O970   Zn978   1.990   .     S
O971   Zn979   1.989   .     S
O972   Zn978   1.960   .     S
O973   Zn979   1.911   .     S
O974   Zn978   1.989   .     S
O975   Zn979   1.990   .     S
O976   Zn978   1.911   .     S
O977   Zn979   1.960   .     S
O980   C981    1.418   .     S
C981   H982    1.111   .     S
C981   H983    1.116   .     S
C981   C984    1.530   .     S
C984   C987    1.527   .     S
C984   H986    1.111   .     S
C984   H985    1.112   .     S
C987   H989    1.110   .     S
C987   H990    1.111   .     S
C987   H988    1.111   .     S
C991   C1007   1.411   .     S
C991   O1036   1.281   .     A
C991   O1037   1.280   .     A
C992   C993    1.405   .     A
C992   C400    1.412   1_556 S
C992   C424    1.418   1_556 S
C993   C1000   1.411   .     A
C993   C997    1.415   .     A
C994   C998    1.388   .     A
C995   C996    1.393   .     A
C995   C400    1.419   1_556 S
C995   C420    1.405   1_556 S
C996   C997    1.390   .     A
C996   H1026   1.084   .     S
C997   H1032   1.082   .     S
C998   C1015   1.389   .     A
C998   H1028   1.080   .     S
C999   C1014   1.396   .     A
C999   H1019   1.083   .     S
C999   C1015   1.400   .     A
C1000  C1002   1.459   .     S
C1000  C1016   1.403   .     A
C1001  H1033   1.084   .     S
C1001  C1007   1.393   .     A
C1001  C607    1.369   1_565 S
C1002  O1038   1.291   .     A
C1002  O1039   1.293   .     A
C1003  C1004   1.395   .     A
C1003  H1020   1.084   .     S
C1004  C1012   1.413   .     S
C1004  C1005   1.408   .     A
C1005  O1046   1.386   .     S
C1006  H1021   1.084   .     S
C1006  C1007   1.395   .     A
C1006  C609    1.377   1_565 S
C1008  N1035   1.366   .     A
C1008  H1022   1.082   .     S
C1008  C1075   1.416   .     S
C1009  N1034   1.367   .     A
C1009  H1023   1.082   .     S
C1009  C1140   1.416   1_455 S
C1010  H1024   1.082   .     S
C1010  N1034   1.366   .     A
C1010  C1143   1.416   1_455 S
C1011  H1025   1.082   .     S
C1011  N1035   1.367   .     A
C1011  C1076   1.416   .     S
C1012  O1041   1.280   .     A
C1012  O1040   1.281   .     A
C1013  C1015   1.452   .     S
C1013  O1042   1.291   .     A
C1013  O1043   1.291   .     A
C1016  C1017   1.388   .     A
C1016  H1029   1.083   .     S
C1017  C424    1.392   1_556 S
C1017  H437    1.083   1_556 S
C1018  H1030   1.080   .     S
H1027  C420    1.084   1_556 S
N1034  Zn1044  2.009   .     S
N1035  Zn1045  2.009   .     S
O1036  Zn1044  1.990   .     S
O1037  Zn1045  1.989   .     S
O1038  Zn1044  1.960   .     S
O1039  Zn1045  1.911   .     S
O1040  Zn1044  1.989   .     S
O1041  Zn1045  1.990   .     S
O1042  Zn1044  1.911   .     S
O1043  Zn1045  1.960   .     S
O1046  C1047   1.418   .     S
C1047  H1048   1.111   .     S
C1047  H1049   1.116   .     S
C1047  C1050   1.530   .     S
C1050  C1053   1.527   .     S
C1050  H1052   1.111   .     S
C1050  H1051   1.112   .     S
C1053  H1055   1.110   .     S
C1053  H1056   1.111   .     S
C1053  H1054   1.111   .     S
C1057  C1073   1.411   .     S
C1057  O1102   1.281   .     A
C1057  O1103   1.280   .     A
C1058  C1059   1.405   .     A
C1058  C466    1.412   1_556 S
C1058  C490    1.418   1_556 S
C1059  C1066   1.411   .     A
C1059  C1063   1.415   .     A
C1060  C1064   1.388   .     A
C1061  C1062   1.393   .     A
C1061  C466    1.419   1_556 S
C1061  C486    1.405   1_556 S
C1062  C1063   1.390   .     A
C1062  H1092   1.084   .     S
C1063  H1098   1.082   .     S
C1064  C1081   1.389   .     A
C1064  H1094   1.080   .     S
C1065  C1080   1.396   .     A
C1065  H1085   1.083   .     S
C1065  C1081   1.400   .     A
C1066  C1068   1.459   .     S
C1066  C1082   1.403   .     A
C1067  H1099   1.084   .     S
C1067  C1073   1.393   .     A
C1067  C673    1.369   1_565 S
C1068  O1104   1.291   .     A
C1068  O1105   1.293   .     A
C1069  C1070   1.395   .     A
C1069  H1086   1.084   .     S
C1070  C1078   1.413   .     S
C1070  C1071   1.408   .     A
C1071  O1112   1.386   .     S
C1072  H1087   1.084   .     S
C1072  C1073   1.395   .     A
C1072  C675    1.377   1_565 S
C1074  N1101   1.366   .     A
C1074  H1088   1.082   .     S
C1074  C1141   1.416   .     S
C1075  N1100   1.367   .     A
C1075  H1089   1.082   .     S
C1076  H1090   1.082   .     S
C1076  N1100   1.366   .     A
C1077  H1091   1.082   .     S
C1077  N1101   1.367   .     A
C1077  C1142   1.416   .     S
C1078  O1107   1.280   .     A
C1078  O1106   1.281   .     A
C1079  C1081   1.452   .     S
C1079  O1108   1.291   .     A
C1079  O1109   1.291   .     A
C1082  C1083   1.388   .     A
C1082  H1095   1.083   .     S
C1083  C490    1.392   1_556 S
C1083  H503    1.083   1_556 S
C1084  H1096   1.080   .     S
H1093  C486    1.084   1_556 S
N1100  Zn1110  2.009   .     S
N1101  Zn1111  2.009   .     S
O1102  Zn1110  1.990   .     S
O1103  Zn1111  1.989   .     S
O1104  Zn1110  1.960   .     S
O1105  Zn1111  1.911   .     S
O1106  Zn1110  1.989   .     S
O1107  Zn1111  1.990   .     S
O1108  Zn1110  1.911   .     S
O1109  Zn1111  1.960   .     S
O1112  C1113   1.418   .     S
C1113  H1114   1.111   .     S
C1113  H1115   1.116   .     S
C1113  C1116   1.530   .     S
C1116  C1119   1.527   .     S
C1116  H1118   1.111   .     S
C1116  H1117   1.112   .     S
C1119  H1121   1.110   .     S
C1119  H1122   1.111   .     S
C1119  H1120   1.111   .     S
C1123  C1139   1.411   .     S
C1123  O1168   1.281   .     A
C1123  O1169   1.280   .     A
C1124  C1125   1.405   .     A
C1124  C532    1.412   1_556 S
C1124  C556    1.418   1_556 S
C1125  C1132   1.411   .     A
C1125  C1129   1.415   .     A
C1126  C1130   1.388   .     A
C1127  C1128   1.393   .     A
C1127  C532    1.419   1_556 S
C1127  C552    1.405   1_556 S
C1128  C1129   1.390   .     A
C1128  H1158   1.084   .     S
C1129  H1164   1.082   .     S
C1130  C1147   1.389   .     A
C1130  H1160   1.080   .     S
C1131  C1146   1.396   .     A
C1131  H1151   1.083   .     S
C1131  C1147   1.400   .     A
C1132  C1134   1.459   .     S
C1132  C1148   1.403   .     A
C1133  H1165   1.084   .     S
C1133  C1139   1.393   .     A
C1133  C739    1.369   1_565 S
C1134  O1170   1.291   .     A
C1134  O1171   1.293   .     A
C1135  C1136   1.395   .     A
C1135  H1152   1.084   .     S
C1136  C1144   1.413   .     S
C1136  C1137   1.408   .     A
C1137  O1178   1.386   .     S
C1138  H1153   1.084   .     S
C1138  C1139   1.395   .     A
C1138  C741    1.377   1_565 S
C1140  N1167   1.366   .     A
C1140  H1154   1.082   .     S
C1140  C1009   1.416   1_655 S
C1141  N1166   1.367   .     A
C1141  H1155   1.082   .     S
C1142  H1156   1.082   .     S
C1142  N1166   1.366   .     A
C1143  H1157   1.082   .     S
C1143  N1167   1.367   .     A
C1143  C1010   1.416   1_655 S
C1144  O1173   1.280   .     A
C1144  O1172   1.281   .     A
C1145  C1147   1.452   .     S
C1145  O1174   1.291   .     A
C1145  O1175   1.291   .     A
C1148  C1149   1.388   .     A
C1148  H1161   1.083   .     S
C1149  C556    1.392   1_556 S
C1149  H569    1.083   1_556 S
C1150  H1162   1.080   .     S
H1159  C552    1.084   1_556 S
N1166  Zn1176  2.009   .     S
N1167  Zn1177  2.009   .     S
O1168  Zn1176  1.990   .     S
O1169  Zn1177  1.989   .     S
O1170  Zn1176  1.960   .     S
O1171  Zn1177  1.911   .     S
O1172  Zn1176  1.989   .     S
O1173  Zn1177  1.990   .     S
O1174  Zn1176  1.911   .     S
O1175  Zn1177  1.960   .     S
O1178  C1179   1.418   .     S
C1179  H1180   1.111   .     S
C1179  H1181   1.116   .     S
C1179  C1182   1.530   .     S
C1182  C1185   1.527   .     S
C1182  H1184   1.111   .     S
C1182  H1183   1.112   .     S
C1185  H1187   1.110   .     S
C1185  H1188   1.111   .     S
C1185  H1186   1.111   .     S
