data_str_m3_o1_o10_pcu_sym.144
_audit_creation_date              2020-01-03
_audit_creation_method            'Materials Studio'
_symmetry_space_group_name_H-M    'P1'
_symmetry_Int_Tables_number       1
_symmetry_cell_setting            triclinic
loop_
_symmetry_equiv_pos_as_xyz
  x,y,z
_cell_length_a                    25.7537
_cell_length_b                    32.3082
_cell_length_c                    29.7832
_cell_angle_alpha                 90.6298
_cell_angle_beta                  98.1032
_cell_angle_gamma                 92.6589
loop_
_atom_site_label
_atom_site_type_symbol
_atom_site_fract_x
_atom_site_fract_y
_atom_site_fract_z
_atom_site_U_iso_or_equiv
_atom_site_adp_type
_atom_site_occupancy
O1     O     0.16666   0.10558   0.20487   0.00000  Uiso   1.00
O2     O     0.16667   0.22775   0.12846   0.00000  Uiso   1.00
O3     O     0.16666   0.10559   0.12843   0.00000  Uiso   1.00
O4     O     0.16667   0.22774   0.20490   0.00000  Uiso   1.00
C5     C     0.17162   0.08690   0.16690   0.00000  Uiso   1.00
C6     C     0.16172   0.24643   0.16644   0.00000  Uiso   1.00
O7     O     0.09058   0.16666   0.19595   0.00000  Uiso   1.00
O8     O     0.24275   0.16667   0.13739   0.00000  Uiso   1.00
O9     O     0.09058   0.16667   0.11950   0.00000  Uiso   1.00
O10    O     0.24275   0.16666   0.21383   0.00000  Uiso   1.00
C11    C     0.06717   0.16620   0.15487   0.00000  Uiso   1.00
C12    C     0.26616   0.16714   0.17847   0.00000  Uiso   1.00
Zn13   Zn    0.16667   0.16666   0.21771   0.00000  Uiso   1.00
Zn14   Zn    0.16667   0.16667   0.11563   0.00000  Uiso   1.00
N15    N     0.16665   0.16666   0.28573   0.00000  Uiso   1.00
N16    N     0.16668   0.16668   0.04760   0.00000  Uiso   1.00
C17    C     0.01213   0.16440   0.14863   0.00000  Uiso   1.00
C18    C     0.32121   0.16893   0.18470   0.00000  Uiso   1.00
H19    H     0.32501   0.15856   0.11455   0.00000  Uiso   1.00
H20    H     0.00833   0.17477   0.21878   0.00000  Uiso   1.00
C21    C     0.16980   0.02000   0.12497   0.00000  Uiso   1.00
C22    C     0.16353   0.31334   0.20836   0.00000  Uiso   1.00
C23    C     0.15442   0.31155   0.12491   0.00000  Uiso   1.00
C24    C     0.17891   0.02178   0.20842   0.00000  Uiso   1.00
C25    C     0.15632   0.29100   0.16660   0.00000  Uiso   1.00
C26    C     0.17702   0.04233   0.16674   0.00000  Uiso   1.00
C27    C     0.20794   0.18494   0.02878   0.00000  Uiso   1.00
C28    C     0.12539   0.14839   0.30456   0.00000  Uiso   1.00
C29    C     0.20807   0.18434   0.31431   0.00000  Uiso   1.00
C30    C     0.12526   0.14899   0.01903   0.00000  Uiso   1.00
C31    C     0.18197   0.03932   0.08217   0.00000  Uiso   1.00
H32    H     0.21575   0.06088   0.08317   0.00000  Uiso   1.00
O33    O     0.15420   0.03231   0.04593   0.00000  Uiso   1.00
C34    C     0.15136   0.29401   0.25116   0.00000  Uiso   1.00
H35    H     0.11758   0.27245   0.25016   0.00000  Uiso   1.00
O36    O     0.17913   0.30102   0.28740   0.00000  Uiso   1.00
N37    N     0.13472   0.29025   0.08280   0.00000  Uiso   1.00
O38    O     0.08755   0.27296   0.07704   0.00000  Uiso   1.00
O39    O     0.16543   0.28413   0.05248   0.00000  Uiso   1.00
N40    N     0.19861   0.04309   0.25053   0.00000  Uiso   1.00
O41    O     0.24579   0.06037   0.25629   0.00000  Uiso   1.00
O42    O     0.16790   0.04921   0.28086   0.00000  Uiso   1.00
C43    C     0.25301   0.20660   0.05705   0.00000  Uiso   1.00
H44    H     0.29267   0.20091   0.05126   0.00000  Uiso   1.00
O45    O     0.24672   0.23311   0.08487   0.00000  Uiso   1.00
C46    C     0.08032   0.12673   0.27629   0.00000  Uiso   1.00
H47    H     0.04066   0.13243   0.28207   0.00000  Uiso   1.00
O48    O     0.08661   0.10022   0.24847   0.00000  Uiso   1.00
N49    N     0.25190   0.20270   0.29592   0.00000  Uiso   1.00
O50    O     0.29653   0.18488   0.30110   0.00000  Uiso   1.00
O51    O     0.24858   0.23858   0.27678   0.00000  Uiso   1.00
N52    N     0.08143   0.13064   0.03741   0.00000  Uiso   1.00
O53    O     0.03680   0.14845   0.03224   0.00000  Uiso   1.00
O54    O     0.08475   0.09476   0.05656   0.00000  Uiso   1.00
O55    O     0.50000   0.10558   0.20487   0.00000  Uiso   1.00
O56    O     0.50000   0.22775   0.12846   0.00000  Uiso   1.00
O57    O     0.50000   0.10559   0.12843   0.00000  Uiso   1.00
O58    O     0.50000   0.22774   0.20490   0.00000  Uiso   1.00
C59    C     0.50495   0.08690   0.16690   0.00000  Uiso   1.00
C60    C     0.49505   0.24643   0.16644   0.00000  Uiso   1.00
O61    O     0.42392   0.16666   0.19595   0.00000  Uiso   1.00
O62    O     0.57608   0.16667   0.13739   0.00000  Uiso   1.00
O63    O     0.42392   0.16667   0.11950   0.00000  Uiso   1.00
O64    O     0.57608   0.16666   0.21383   0.00000  Uiso   1.00
C65    C     0.40051   0.16620   0.15487   0.00000  Uiso   1.00
C66    C     0.59949   0.16714   0.17847   0.00000  Uiso   1.00
Zn67   Zn    0.50000   0.16666   0.21771   0.00000  Uiso   1.00
Zn68   Zn    0.50000   0.16667   0.11563   0.00000  Uiso   1.00
N69    N     0.49999   0.16666   0.28573   0.00000  Uiso   1.00
N70    N     0.50001   0.16668   0.04760   0.00000  Uiso   1.00
C71    C     0.34546   0.16440   0.14863   0.00000  Uiso   1.00
C72    C     0.65454   0.16893   0.18470   0.00000  Uiso   1.00
H73    H     0.65834   0.15856   0.11455   0.00000  Uiso   1.00
H74    H     0.34166   0.17477   0.21878   0.00000  Uiso   1.00
C75    C     0.50313   0.02000   0.12497   0.00000  Uiso   1.00
C76    C     0.49687   0.31334   0.20836   0.00000  Uiso   1.00
C77    C     0.48775   0.31155   0.12491   0.00000  Uiso   1.00
C78    C     0.51225   0.02178   0.20842   0.00000  Uiso   1.00
C79    C     0.48965   0.29100   0.16660   0.00000  Uiso   1.00
C80    C     0.51035   0.04233   0.16674   0.00000  Uiso   1.00
C81    C     0.54127   0.18494   0.02878   0.00000  Uiso   1.00
C82    C     0.45873   0.14839   0.30456   0.00000  Uiso   1.00
C83    C     0.54140   0.18434   0.31431   0.00000  Uiso   1.00
C84    C     0.45860   0.14899   0.01903   0.00000  Uiso   1.00
C85    C     0.51530   0.03932   0.08217   0.00000  Uiso   1.00
H86    H     0.54908   0.06088   0.08317   0.00000  Uiso   1.00
O87    O     0.48753   0.03231   0.04593   0.00000  Uiso   1.00
C88    C     0.48469   0.29401   0.25116   0.00000  Uiso   1.00
H89    H     0.45091   0.27245   0.25016   0.00000  Uiso   1.00
O90    O     0.51246   0.30102   0.28740   0.00000  Uiso   1.00
N91    N     0.46805   0.29025   0.08280   0.00000  Uiso   1.00
O92    O     0.42088   0.27296   0.07704   0.00000  Uiso   1.00
O93    O     0.49877   0.28413   0.05248   0.00000  Uiso   1.00
N94    N     0.53195   0.04309   0.25053   0.00000  Uiso   1.00
O95    O     0.57912   0.06037   0.25629   0.00000  Uiso   1.00
O96    O     0.50123   0.04921   0.28086   0.00000  Uiso   1.00
C97    C     0.58634   0.20660   0.05705   0.00000  Uiso   1.00
H98    H     0.62600   0.20091   0.05126   0.00000  Uiso   1.00
O99    O     0.58005   0.23311   0.08487   0.00000  Uiso   1.00
C100   C     0.41366   0.12673   0.27629   0.00000  Uiso   1.00
H101   H     0.37400   0.13243   0.28207   0.00000  Uiso   1.00
O102   O     0.41995   0.10022   0.24847   0.00000  Uiso   1.00
N103   N     0.58523   0.20270   0.29592   0.00000  Uiso   1.00
O104   O     0.62986   0.18488   0.30110   0.00000  Uiso   1.00
O105   O     0.58191   0.23858   0.27678   0.00000  Uiso   1.00
N106   N     0.41477   0.13064   0.03741   0.00000  Uiso   1.00
O107   O     0.37014   0.14845   0.03224   0.00000  Uiso   1.00
O108   O     0.41809   0.09476   0.05656   0.00000  Uiso   1.00
O109   O     0.83333   0.10558   0.20487   0.00000  Uiso   1.00
O110   O     0.83334   0.22775   0.12846   0.00000  Uiso   1.00
O111   O     0.83333   0.10559   0.12843   0.00000  Uiso   1.00
O112   O     0.83334   0.22774   0.20490   0.00000  Uiso   1.00
C113   C     0.83828   0.08690   0.16690   0.00000  Uiso   1.00
C114   C     0.82838   0.24643   0.16644   0.00000  Uiso   1.00
O115   O     0.75725   0.16666   0.19595   0.00000  Uiso   1.00
O116   O     0.90942   0.16667   0.13739   0.00000  Uiso   1.00
O117   O     0.75725   0.16667   0.11950   0.00000  Uiso   1.00
O118   O     0.90942   0.16666   0.21383   0.00000  Uiso   1.00
C119   C     0.73384   0.16620   0.15487   0.00000  Uiso   1.00
C120   C     0.93283   0.16714   0.17847   0.00000  Uiso   1.00
Zn121  Zn    0.83333   0.16666   0.21771   0.00000  Uiso   1.00
Zn122  Zn    0.83333   0.16667   0.11563   0.00000  Uiso   1.00
N123   N     0.83332   0.16666   0.28573   0.00000  Uiso   1.00
N124   N     0.83335   0.16668   0.04760   0.00000  Uiso   1.00
C125   C     0.67879   0.16440   0.14863   0.00000  Uiso   1.00
C126   C     0.98788   0.16893   0.18470   0.00000  Uiso   1.00
H127   H     0.99167   0.15856   0.11455   0.00000  Uiso   1.00
H128   H     0.67499   0.17477   0.21878   0.00000  Uiso   1.00
C129   C     0.83647   0.02000   0.12497   0.00000  Uiso   1.00
C130   C     0.83020   0.31334   0.20836   0.00000  Uiso   1.00
C131   C     0.82108   0.31155   0.12491   0.00000  Uiso   1.00
C132   C     0.84558   0.02178   0.20842   0.00000  Uiso   1.00
C133   C     0.82298   0.29100   0.16660   0.00000  Uiso   1.00
C134   C     0.84368   0.04233   0.16674   0.00000  Uiso   1.00
C135   C     0.87461   0.18494   0.02878   0.00000  Uiso   1.00
C136   C     0.79206   0.14839   0.30456   0.00000  Uiso   1.00
C137   C     0.87474   0.18434   0.31431   0.00000  Uiso   1.00
C138   C     0.79193   0.14899   0.01903   0.00000  Uiso   1.00
C139   C     0.84864   0.03932   0.08217   0.00000  Uiso   1.00
H140   H     0.88242   0.06088   0.08317   0.00000  Uiso   1.00
O141   O     0.82087   0.03231   0.04593   0.00000  Uiso   1.00
C142   C     0.81802   0.29401   0.25116   0.00000  Uiso   1.00
H143   H     0.78425   0.27245   0.25016   0.00000  Uiso   1.00
O144   O     0.84579   0.30102   0.28740   0.00000  Uiso   1.00
N145   N     0.80139   0.29025   0.08280   0.00000  Uiso   1.00
O146   O     0.75421   0.27296   0.07704   0.00000  Uiso   1.00
O147   O     0.83210   0.28413   0.05248   0.00000  Uiso   1.00
N148   N     0.86528   0.04309   0.25053   0.00000  Uiso   1.00
O149   O     0.91245   0.06037   0.25629   0.00000  Uiso   1.00
O150   O     0.83457   0.04921   0.28086   0.00000  Uiso   1.00
C151   C     0.91968   0.20660   0.05705   0.00000  Uiso   1.00
H152   H     0.95934   0.20091   0.05126   0.00000  Uiso   1.00
O153   O     0.91339   0.23311   0.08487   0.00000  Uiso   1.00
C154   C     0.74699   0.12673   0.27629   0.00000  Uiso   1.00
H155   H     0.70733   0.13243   0.28207   0.00000  Uiso   1.00
O156   O     0.75328   0.10022   0.24847   0.00000  Uiso   1.00
N157   N     0.91857   0.20270   0.29592   0.00000  Uiso   1.00
O158   O     0.96320   0.18488   0.30110   0.00000  Uiso   1.00
O159   O     0.91525   0.23858   0.27678   0.00000  Uiso   1.00
N160   N     0.74810   0.13064   0.03741   0.00000  Uiso   1.00
O161   O     0.70347   0.14845   0.03224   0.00000  Uiso   1.00
O162   O     0.75142   0.09476   0.05656   0.00000  Uiso   1.00
O163   O     0.16666   0.43892   0.20487   0.00000  Uiso   1.00
O164   O     0.16667   0.56108   0.12846   0.00000  Uiso   1.00
O165   O     0.16666   0.43893   0.12843   0.00000  Uiso   1.00
O166   O     0.16667   0.56107   0.20490   0.00000  Uiso   1.00
C167   C     0.17162   0.42024   0.16690   0.00000  Uiso   1.00
C168   C     0.16172   0.57976   0.16644   0.00000  Uiso   1.00
O169   O     0.09058   0.50000   0.19595   0.00000  Uiso   1.00
O170   O     0.24275   0.50000   0.13739   0.00000  Uiso   1.00
O171   O     0.09058   0.50000   0.11950   0.00000  Uiso   1.00
O172   O     0.24275   0.50000   0.21383   0.00000  Uiso   1.00
C173   C     0.06717   0.49953   0.15487   0.00000  Uiso   1.00
C174   C     0.26616   0.50047   0.17847   0.00000  Uiso   1.00
Zn175  Zn    0.16667   0.49999   0.21771   0.00000  Uiso   1.00
Zn176  Zn    0.16667   0.50001   0.11563   0.00000  Uiso   1.00
N177   N     0.16665   0.49999   0.28573   0.00000  Uiso   1.00
N178   N     0.16668   0.50001   0.04760   0.00000  Uiso   1.00
C179   C     0.01213   0.49773   0.14863   0.00000  Uiso   1.00
C180   C     0.32121   0.50227   0.18470   0.00000  Uiso   1.00
H181   H     0.32501   0.49190   0.11455   0.00000  Uiso   1.00
H182   H     0.00833   0.50810   0.21878   0.00000  Uiso   1.00
C183   C     0.16980   0.35333   0.12497   0.00000  Uiso   1.00
C184   C     0.16353   0.64667   0.20836   0.00000  Uiso   1.00
C185   C     0.15442   0.64488   0.12491   0.00000  Uiso   1.00
C186   C     0.17891   0.35512   0.20842   0.00000  Uiso   1.00
C187   C     0.15632   0.62433   0.16660   0.00000  Uiso   1.00
C188   C     0.17702   0.37567   0.16674   0.00000  Uiso   1.00
C189   C     0.20794   0.51828   0.02878   0.00000  Uiso   1.00
C190   C     0.12539   0.48172   0.30456   0.00000  Uiso   1.00
C191   C     0.20807   0.51767   0.31431   0.00000  Uiso   1.00
C192   C     0.12526   0.48233   0.01903   0.00000  Uiso   1.00
C193   C     0.18197   0.37265   0.08217   0.00000  Uiso   1.00
H194   H     0.21575   0.39421   0.08317   0.00000  Uiso   1.00
O195   O     0.15420   0.36565   0.04593   0.00000  Uiso   1.00
C196   C     0.15136   0.62735   0.25116   0.00000  Uiso   1.00
H197   H     0.11758   0.60579   0.25016   0.00000  Uiso   1.00
O198   O     0.17913   0.63435   0.28740   0.00000  Uiso   1.00
N199   N     0.13472   0.62358   0.08280   0.00000  Uiso   1.00
O200   O     0.08755   0.60629   0.07704   0.00000  Uiso   1.00
O201   O     0.16543   0.61746   0.05248   0.00000  Uiso   1.00
N202   N     0.19861   0.37642   0.25053   0.00000  Uiso   1.00
O203   O     0.24579   0.39371   0.25629   0.00000  Uiso   1.00
O204   O     0.16790   0.38254   0.28086   0.00000  Uiso   1.00
C205   C     0.25301   0.53994   0.05705   0.00000  Uiso   1.00
H206   H     0.29267   0.53424   0.05126   0.00000  Uiso   1.00
O207   O     0.24672   0.56644   0.08487   0.00000  Uiso   1.00
C208   C     0.08032   0.46006   0.27629   0.00000  Uiso   1.00
H209   H     0.04066   0.46576   0.28207   0.00000  Uiso   1.00
O210   O     0.08661   0.43356   0.24847   0.00000  Uiso   1.00
N211   N     0.25190   0.53603   0.29592   0.00000  Uiso   1.00
O212   O     0.29653   0.51821   0.30110   0.00000  Uiso   1.00
O213   O     0.24858   0.57192   0.27678   0.00000  Uiso   1.00
N214   N     0.08143   0.46397   0.03741   0.00000  Uiso   1.00
O215   O     0.03680   0.48179   0.03224   0.00000  Uiso   1.00
O216   O     0.08475   0.42809   0.05656   0.00000  Uiso   1.00
O217   O     0.50000   0.43892   0.20487   0.00000  Uiso   1.00
O218   O     0.50000   0.56108   0.12846   0.00000  Uiso   1.00
O219   O     0.50000   0.43893   0.12843   0.00000  Uiso   1.00
O220   O     0.50000   0.56107   0.20490   0.00000  Uiso   1.00
C221   C     0.50495   0.42024   0.16690   0.00000  Uiso   1.00
C222   C     0.49505   0.57976   0.16644   0.00000  Uiso   1.00
O223   O     0.42392   0.50000   0.19595   0.00000  Uiso   1.00
O224   O     0.57608   0.50000   0.13739   0.00000  Uiso   1.00
O225   O     0.42392   0.50000   0.11950   0.00000  Uiso   1.00
O226   O     0.57608   0.50000   0.21383   0.00000  Uiso   1.00
C227   C     0.40051   0.49953   0.15487   0.00000  Uiso   1.00
C228   C     0.59949   0.50047   0.17847   0.00000  Uiso   1.00
Zn229  Zn    0.50000   0.49999   0.21771   0.00000  Uiso   1.00
Zn230  Zn    0.50000   0.50001   0.11563   0.00000  Uiso   1.00
N231   N     0.49999   0.49999   0.28573   0.00000  Uiso   1.00
N232   N     0.50001   0.50001   0.04760   0.00000  Uiso   1.00
C233   C     0.34546   0.49773   0.14863   0.00000  Uiso   1.00
C234   C     0.65454   0.50227   0.18470   0.00000  Uiso   1.00
H235   H     0.65834   0.49190   0.11455   0.00000  Uiso   1.00
H236   H     0.34166   0.50810   0.21878   0.00000  Uiso   1.00
C237   C     0.50313   0.35333   0.12497   0.00000  Uiso   1.00
C238   C     0.49687   0.64667   0.20836   0.00000  Uiso   1.00
C239   C     0.48775   0.64488   0.12491   0.00000  Uiso   1.00
C240   C     0.51225   0.35512   0.20842   0.00000  Uiso   1.00
C241   C     0.48965   0.62433   0.16660   0.00000  Uiso   1.00
C242   C     0.51035   0.37567   0.16674   0.00000  Uiso   1.00
C243   C     0.54127   0.51828   0.02878   0.00000  Uiso   1.00
C244   C     0.45873   0.48172   0.30456   0.00000  Uiso   1.00
C245   C     0.54140   0.51767   0.31431   0.00000  Uiso   1.00
C246   C     0.45860   0.48233   0.01903   0.00000  Uiso   1.00
C247   C     0.51530   0.37265   0.08217   0.00000  Uiso   1.00
H248   H     0.54908   0.39421   0.08317   0.00000  Uiso   1.00
O249   O     0.48753   0.36565   0.04593   0.00000  Uiso   1.00
C250   C     0.48469   0.62735   0.25116   0.00000  Uiso   1.00
H251   H     0.45091   0.60579   0.25016   0.00000  Uiso   1.00
O252   O     0.51246   0.63435   0.28740   0.00000  Uiso   1.00
N253   N     0.46805   0.62358   0.08280   0.00000  Uiso   1.00
O254   O     0.42088   0.60629   0.07704   0.00000  Uiso   1.00
O255   O     0.49877   0.61746   0.05248   0.00000  Uiso   1.00
N256   N     0.53195   0.37642   0.25053   0.00000  Uiso   1.00
O257   O     0.57912   0.39371   0.25629   0.00000  Uiso   1.00
O258   O     0.50123   0.38254   0.28086   0.00000  Uiso   1.00
C259   C     0.58634   0.53994   0.05705   0.00000  Uiso   1.00
H260   H     0.62600   0.53424   0.05126   0.00000  Uiso   1.00
O261   O     0.58005   0.56644   0.08487   0.00000  Uiso   1.00
C262   C     0.41366   0.46006   0.27629   0.00000  Uiso   1.00
H263   H     0.37400   0.46576   0.28207   0.00000  Uiso   1.00
O264   O     0.41995   0.43356   0.24847   0.00000  Uiso   1.00
N265   N     0.58523   0.53603   0.29592   0.00000  Uiso   1.00
O266   O     0.62986   0.51821   0.30110   0.00000  Uiso   1.00
O267   O     0.58191   0.57192   0.27678   0.00000  Uiso   1.00
N268   N     0.41477   0.46397   0.03741   0.00000  Uiso   1.00
O269   O     0.37014   0.48179   0.03224   0.00000  Uiso   1.00
O270   O     0.41809   0.42809   0.05656   0.00000  Uiso   1.00
O271   O     0.83333   0.43892   0.20487   0.00000  Uiso   1.00
O272   O     0.83334   0.56108   0.12846   0.00000  Uiso   1.00
O273   O     0.83333   0.43893   0.12843   0.00000  Uiso   1.00
O274   O     0.83334   0.56107   0.20490   0.00000  Uiso   1.00
C275   C     0.83828   0.42024   0.16690   0.00000  Uiso   1.00
C276   C     0.82838   0.57976   0.16644   0.00000  Uiso   1.00
O277   O     0.75725   0.50000   0.19595   0.00000  Uiso   1.00
O278   O     0.90942   0.50000   0.13739   0.00000  Uiso   1.00
O279   O     0.75725   0.50000   0.11950   0.00000  Uiso   1.00
O280   O     0.90942   0.50000   0.21383   0.00000  Uiso   1.00
C281   C     0.73384   0.49953   0.15487   0.00000  Uiso   1.00
C282   C     0.93283   0.50047   0.17847   0.00000  Uiso   1.00
Zn283  Zn    0.83333   0.49999   0.21771   0.00000  Uiso   1.00
Zn284  Zn    0.83333   0.50001   0.11563   0.00000  Uiso   1.00
N285   N     0.83332   0.49999   0.28573   0.00000  Uiso   1.00
N286   N     0.83335   0.50001   0.04760   0.00000  Uiso   1.00
C287   C     0.67879   0.49773   0.14863   0.00000  Uiso   1.00
C288   C     0.98788   0.50227   0.18470   0.00000  Uiso   1.00
H289   H     0.99167   0.49190   0.11455   0.00000  Uiso   1.00
H290   H     0.67499   0.50810   0.21878   0.00000  Uiso   1.00
C291   C     0.83647   0.35333   0.12497   0.00000  Uiso   1.00
C292   C     0.83020   0.64667   0.20836   0.00000  Uiso   1.00
C293   C     0.82108   0.64488   0.12491   0.00000  Uiso   1.00
C294   C     0.84558   0.35512   0.20842   0.00000  Uiso   1.00
C295   C     0.82298   0.62433   0.16660   0.00000  Uiso   1.00
C296   C     0.84368   0.37567   0.16674   0.00000  Uiso   1.00
C297   C     0.87461   0.51828   0.02878   0.00000  Uiso   1.00
C298   C     0.79206   0.48172   0.30456   0.00000  Uiso   1.00
C299   C     0.87474   0.51767   0.31431   0.00000  Uiso   1.00
C300   C     0.79193   0.48233   0.01903   0.00000  Uiso   1.00
C301   C     0.84864   0.37265   0.08217   0.00000  Uiso   1.00
H302   H     0.88242   0.39421   0.08317   0.00000  Uiso   1.00
O303   O     0.82087   0.36565   0.04593   0.00000  Uiso   1.00
C304   C     0.81802   0.62735   0.25116   0.00000  Uiso   1.00
H305   H     0.78425   0.60579   0.25016   0.00000  Uiso   1.00
O306   O     0.84579   0.63435   0.28740   0.00000  Uiso   1.00
N307   N     0.80139   0.62358   0.08280   0.00000  Uiso   1.00
O308   O     0.75421   0.60629   0.07704   0.00000  Uiso   1.00
O309   O     0.83210   0.61746   0.05248   0.00000  Uiso   1.00
N310   N     0.86528   0.37642   0.25053   0.00000  Uiso   1.00
O311   O     0.91245   0.39371   0.25629   0.00000  Uiso   1.00
O312   O     0.83457   0.38254   0.28086   0.00000  Uiso   1.00
C313   C     0.91968   0.53994   0.05705   0.00000  Uiso   1.00
H314   H     0.95934   0.53424   0.05126   0.00000  Uiso   1.00
O315   O     0.91339   0.56644   0.08487   0.00000  Uiso   1.00
C316   C     0.74699   0.46006   0.27629   0.00000  Uiso   1.00
H317   H     0.70733   0.46576   0.28207   0.00000  Uiso   1.00
O318   O     0.75328   0.43356   0.24847   0.00000  Uiso   1.00
N319   N     0.91857   0.53603   0.29592   0.00000  Uiso   1.00
O320   O     0.96320   0.51821   0.30110   0.00000  Uiso   1.00
O321   O     0.91525   0.57192   0.27678   0.00000  Uiso   1.00
N322   N     0.74810   0.46397   0.03741   0.00000  Uiso   1.00
O323   O     0.70347   0.48179   0.03224   0.00000  Uiso   1.00
O324   O     0.75142   0.42809   0.05656   0.00000  Uiso   1.00
O325   O     0.16666   0.77225   0.20487   0.00000  Uiso   1.00
O326   O     0.16667   0.89442   0.12846   0.00000  Uiso   1.00
O327   O     0.16666   0.77226   0.12843   0.00000  Uiso   1.00
O328   O     0.16667   0.89441   0.20490   0.00000  Uiso   1.00
C329   C     0.17162   0.75357   0.16690   0.00000  Uiso   1.00
C330   C     0.16172   0.91310   0.16644   0.00000  Uiso   1.00
O331   O     0.09058   0.83333   0.19595   0.00000  Uiso   1.00
O332   O     0.24275   0.83334   0.13739   0.00000  Uiso   1.00
O333   O     0.09058   0.83334   0.11950   0.00000  Uiso   1.00
O334   O     0.24275   0.83333   0.21383   0.00000  Uiso   1.00
C335   C     0.06717   0.83286   0.15487   0.00000  Uiso   1.00
C336   C     0.26616   0.83380   0.17847   0.00000  Uiso   1.00
Zn337  Zn    0.16667   0.83333   0.21771   0.00000  Uiso   1.00
Zn338  Zn    0.16667   0.83334   0.11563   0.00000  Uiso   1.00
N339   N     0.16665   0.83332   0.28573   0.00000  Uiso   1.00
N340   N     0.16668   0.83334   0.04760   0.00000  Uiso   1.00
C341   C     0.01213   0.83107   0.14863   0.00000  Uiso   1.00
C342   C     0.32121   0.83560   0.18470   0.00000  Uiso   1.00
H343   H     0.32501   0.82523   0.11455   0.00000  Uiso   1.00
H344   H     0.00833   0.84144   0.21878   0.00000  Uiso   1.00
C345   C     0.16980   0.68666   0.12497   0.00000  Uiso   1.00
C346   C     0.16353   0.98000   0.20836   0.00000  Uiso   1.00
C347   C     0.15442   0.97822   0.12491   0.00000  Uiso   1.00
C348   C     0.17891   0.68845   0.20842   0.00000  Uiso   1.00
C349   C     0.15632   0.95767   0.16660   0.00000  Uiso   1.00
C350   C     0.17702   0.70900   0.16674   0.00000  Uiso   1.00
C351   C     0.20794   0.85161   0.02878   0.00000  Uiso   1.00
C352   C     0.12539   0.81506   0.30456   0.00000  Uiso   1.00
C353   C     0.20807   0.85101   0.31431   0.00000  Uiso   1.00
C354   C     0.12526   0.81566   0.01903   0.00000  Uiso   1.00
C355   C     0.18197   0.70599   0.08217   0.00000  Uiso   1.00
H356   H     0.21575   0.72754   0.08317   0.00000  Uiso   1.00
O357   O     0.15420   0.69898   0.04593   0.00000  Uiso   1.00
C358   C     0.15136   0.96068   0.25116   0.00000  Uiso   1.00
H359   H     0.11758   0.93912   0.25016   0.00000  Uiso   1.00
O360   O     0.17913   0.96769   0.28740   0.00000  Uiso   1.00
N361   N     0.13472   0.95691   0.08280   0.00000  Uiso   1.00
O362   O     0.08755   0.93963   0.07704   0.00000  Uiso   1.00
O363   O     0.16543   0.95079   0.05248   0.00000  Uiso   1.00
N364   N     0.19861   0.70975   0.25053   0.00000  Uiso   1.00
O365   O     0.24579   0.72704   0.25629   0.00000  Uiso   1.00
O366   O     0.16790   0.71587   0.28086   0.00000  Uiso   1.00
C367   C     0.25301   0.87327   0.05705   0.00000  Uiso   1.00
H368   H     0.29267   0.86757   0.05126   0.00000  Uiso   1.00
O369   O     0.24672   0.89978   0.08487   0.00000  Uiso   1.00
C370   C     0.08032   0.79340   0.27629   0.00000  Uiso   1.00
H371   H     0.04066   0.79909   0.28207   0.00000  Uiso   1.00
O372   O     0.08661   0.76689   0.24847   0.00000  Uiso   1.00
N373   N     0.25190   0.86936   0.29592   0.00000  Uiso   1.00
O374   O     0.29653   0.85155   0.30110   0.00000  Uiso   1.00
O375   O     0.24858   0.90525   0.27678   0.00000  Uiso   1.00
N376   N     0.08143   0.79730   0.03741   0.00000  Uiso   1.00
O377   O     0.03680   0.81512   0.03224   0.00000  Uiso   1.00
O378   O     0.08475   0.76142   0.05656   0.00000  Uiso   1.00
O379   O     0.50000   0.77225   0.20487   0.00000  Uiso   1.00
O380   O     0.50000   0.89442   0.12846   0.00000  Uiso   1.00
O381   O     0.50000   0.77226   0.12843   0.00000  Uiso   1.00
O382   O     0.50000   0.89441   0.20490   0.00000  Uiso   1.00
C383   C     0.50495   0.75357   0.16690   0.00000  Uiso   1.00
C384   C     0.49505   0.91310   0.16644   0.00000  Uiso   1.00
O385   O     0.42392   0.83333   0.19595   0.00000  Uiso   1.00
O386   O     0.57608   0.83334   0.13739   0.00000  Uiso   1.00
O387   O     0.42392   0.83334   0.11950   0.00000  Uiso   1.00
O388   O     0.57608   0.83333   0.21383   0.00000  Uiso   1.00
C389   C     0.40051   0.83286   0.15487   0.00000  Uiso   1.00
C390   C     0.59949   0.83380   0.17847   0.00000  Uiso   1.00
Zn391  Zn    0.50000   0.83333   0.21771   0.00000  Uiso   1.00
Zn392  Zn    0.50000   0.83334   0.11563   0.00000  Uiso   1.00
N393   N     0.49999   0.83332   0.28573   0.00000  Uiso   1.00
N394   N     0.50001   0.83334   0.04760   0.00000  Uiso   1.00
C395   C     0.34546   0.83107   0.14863   0.00000  Uiso   1.00
C396   C     0.65454   0.83560   0.18470   0.00000  Uiso   1.00
H397   H     0.65834   0.82523   0.11455   0.00000  Uiso   1.00
H398   H     0.34166   0.84144   0.21878   0.00000  Uiso   1.00
C399   C     0.50313   0.68666   0.12497   0.00000  Uiso   1.00
C400   C     0.49687   0.98000   0.20836   0.00000  Uiso   1.00
C401   C     0.48775   0.97822   0.12491   0.00000  Uiso   1.00
C402   C     0.51225   0.68845   0.20842   0.00000  Uiso   1.00
C403   C     0.48965   0.95767   0.16660   0.00000  Uiso   1.00
C404   C     0.51035   0.70900   0.16674   0.00000  Uiso   1.00
C405   C     0.54127   0.85161   0.02878   0.00000  Uiso   1.00
C406   C     0.45873   0.81506   0.30456   0.00000  Uiso   1.00
C407   C     0.54140   0.85101   0.31431   0.00000  Uiso   1.00
C408   C     0.45860   0.81566   0.01903   0.00000  Uiso   1.00
C409   C     0.51530   0.70599   0.08217   0.00000  Uiso   1.00
H410   H     0.54908   0.72754   0.08317   0.00000  Uiso   1.00
O411   O     0.48753   0.69898   0.04593   0.00000  Uiso   1.00
C412   C     0.48469   0.96068   0.25116   0.00000  Uiso   1.00
H413   H     0.45091   0.93912   0.25016   0.00000  Uiso   1.00
O414   O     0.51246   0.96769   0.28740   0.00000  Uiso   1.00
N415   N     0.46805   0.95691   0.08280   0.00000  Uiso   1.00
O416   O     0.42088   0.93963   0.07704   0.00000  Uiso   1.00
O417   O     0.49877   0.95079   0.05248   0.00000  Uiso   1.00
N418   N     0.53195   0.70975   0.25053   0.00000  Uiso   1.00
O419   O     0.57912   0.72704   0.25629   0.00000  Uiso   1.00
O420   O     0.50123   0.71587   0.28086   0.00000  Uiso   1.00
C421   C     0.58634   0.87327   0.05705   0.00000  Uiso   1.00
H422   H     0.62600   0.86757   0.05126   0.00000  Uiso   1.00
O423   O     0.58005   0.89978   0.08487   0.00000  Uiso   1.00
C424   C     0.41366   0.79340   0.27629   0.00000  Uiso   1.00
H425   H     0.37400   0.79909   0.28207   0.00000  Uiso   1.00
O426   O     0.41995   0.76689   0.24847   0.00000  Uiso   1.00
N427   N     0.58523   0.86936   0.29592   0.00000  Uiso   1.00
O428   O     0.62986   0.85155   0.30110   0.00000  Uiso   1.00
O429   O     0.58191   0.90525   0.27678   0.00000  Uiso   1.00
N430   N     0.41477   0.79730   0.03741   0.00000  Uiso   1.00
O431   O     0.37014   0.81512   0.03224   0.00000  Uiso   1.00
O432   O     0.41809   0.76142   0.05656   0.00000  Uiso   1.00
O433   O     0.83333   0.77225   0.20487   0.00000  Uiso   1.00
O434   O     0.83334   0.89442   0.12846   0.00000  Uiso   1.00
O435   O     0.83333   0.77226   0.12843   0.00000  Uiso   1.00
O436   O     0.83334   0.89441   0.20490   0.00000  Uiso   1.00
C437   C     0.83828   0.75357   0.16690   0.00000  Uiso   1.00
C438   C     0.82838   0.91310   0.16644   0.00000  Uiso   1.00
O439   O     0.75725   0.83333   0.19595   0.00000  Uiso   1.00
O440   O     0.90942   0.83334   0.13739   0.00000  Uiso   1.00
O441   O     0.75725   0.83334   0.11950   0.00000  Uiso   1.00
O442   O     0.90942   0.83333   0.21383   0.00000  Uiso   1.00
C443   C     0.73384   0.83286   0.15487   0.00000  Uiso   1.00
C444   C     0.93283   0.83380   0.17847   0.00000  Uiso   1.00
Zn445  Zn    0.83333   0.83333   0.21771   0.00000  Uiso   1.00
Zn446  Zn    0.83333   0.83334   0.11563   0.00000  Uiso   1.00
N447   N     0.83332   0.83332   0.28573   0.00000  Uiso   1.00
N448   N     0.83335   0.83334   0.04760   0.00000  Uiso   1.00
C449   C     0.67879   0.83107   0.14863   0.00000  Uiso   1.00
C450   C     0.98788   0.83560   0.18470   0.00000  Uiso   1.00
H451   H     0.99167   0.82523   0.11455   0.00000  Uiso   1.00
H452   H     0.67499   0.84144   0.21878   0.00000  Uiso   1.00
C453   C     0.83647   0.68666   0.12497   0.00000  Uiso   1.00
C454   C     0.83020   0.98000   0.20836   0.00000  Uiso   1.00
C455   C     0.82108   0.97822   0.12491   0.00000  Uiso   1.00
C456   C     0.84558   0.68845   0.20842   0.00000  Uiso   1.00
C457   C     0.82298   0.95767   0.16660   0.00000  Uiso   1.00
C458   C     0.84368   0.70900   0.16674   0.00000  Uiso   1.00
C459   C     0.87461   0.85161   0.02878   0.00000  Uiso   1.00
C460   C     0.79206   0.81506   0.30456   0.00000  Uiso   1.00
C461   C     0.87474   0.85101   0.31431   0.00000  Uiso   1.00
C462   C     0.79193   0.81566   0.01903   0.00000  Uiso   1.00
C463   C     0.84864   0.70599   0.08217   0.00000  Uiso   1.00
H464   H     0.88242   0.72754   0.08317   0.00000  Uiso   1.00
O465   O     0.82087   0.69898   0.04593   0.00000  Uiso   1.00
C466   C     0.81802   0.96068   0.25116   0.00000  Uiso   1.00
H467   H     0.78425   0.93912   0.25016   0.00000  Uiso   1.00
O468   O     0.84579   0.96769   0.28740   0.00000  Uiso   1.00
N469   N     0.80139   0.95691   0.08280   0.00000  Uiso   1.00
O470   O     0.75421   0.93963   0.07704   0.00000  Uiso   1.00
O471   O     0.83210   0.95079   0.05248   0.00000  Uiso   1.00
N472   N     0.86528   0.70975   0.25053   0.00000  Uiso   1.00
O473   O     0.91245   0.72704   0.25629   0.00000  Uiso   1.00
O474   O     0.83457   0.71587   0.28086   0.00000  Uiso   1.00
C475   C     0.91968   0.87327   0.05705   0.00000  Uiso   1.00
H476   H     0.95934   0.86757   0.05126   0.00000  Uiso   1.00
O477   O     0.91339   0.89978   0.08487   0.00000  Uiso   1.00
C478   C     0.74699   0.79340   0.27629   0.00000  Uiso   1.00
H479   H     0.70733   0.79909   0.28207   0.00000  Uiso   1.00
O480   O     0.75328   0.76689   0.24847   0.00000  Uiso   1.00
N481   N     0.91857   0.86936   0.29592   0.00000  Uiso   1.00
O482   O     0.96320   0.85155   0.30110   0.00000  Uiso   1.00
O483   O     0.91525   0.90525   0.27678   0.00000  Uiso   1.00
N484   N     0.74810   0.79730   0.03741   0.00000  Uiso   1.00
O485   O     0.70347   0.81512   0.03224   0.00000  Uiso   1.00
O486   O     0.75142   0.76142   0.05656   0.00000  Uiso   1.00
O487   O     0.16666   0.10558   0.53821   0.00000  Uiso   1.00
O488   O     0.16667   0.22775   0.46179   0.00000  Uiso   1.00
O489   O     0.16666   0.10559   0.46176   0.00000  Uiso   1.00
O490   O     0.16667   0.22774   0.53824   0.00000  Uiso   1.00
C491   C     0.17162   0.08690   0.50023   0.00000  Uiso   1.00
C492   C     0.16172   0.24643   0.49977   0.00000  Uiso   1.00
O493   O     0.09058   0.16666   0.52928   0.00000  Uiso   1.00
O494   O     0.24275   0.16667   0.47072   0.00000  Uiso   1.00
O495   O     0.09058   0.16667   0.45284   0.00000  Uiso   1.00
O496   O     0.24275   0.16666   0.54716   0.00000  Uiso   1.00
C497   C     0.06717   0.16620   0.48820   0.00000  Uiso   1.00
C498   C     0.26616   0.16714   0.51180   0.00000  Uiso   1.00
Zn499  Zn    0.16667   0.16666   0.55104   0.00000  Uiso   1.00
Zn500  Zn    0.16667   0.16667   0.44896   0.00000  Uiso   1.00
N501   N     0.16665   0.16666   0.61907   0.00000  Uiso   1.00
N502   N     0.16668   0.16668   0.38093   0.00000  Uiso   1.00
C503   C     0.01213   0.16440   0.48197   0.00000  Uiso   1.00
C504   C     0.32121   0.16893   0.51803   0.00000  Uiso   1.00
H505   H     0.32501   0.15856   0.44789   0.00000  Uiso   1.00
H506   H     0.00833   0.17477   0.55211   0.00000  Uiso   1.00
C507   C     0.16980   0.02000   0.45830   0.00000  Uiso   1.00
C508   C     0.16353   0.31334   0.54170   0.00000  Uiso   1.00
C509   C     0.15442   0.31155   0.45824   0.00000  Uiso   1.00
C510   C     0.17891   0.02178   0.54176   0.00000  Uiso   1.00
C511   C     0.15632   0.29100   0.49993   0.00000  Uiso   1.00
C512   C     0.17702   0.04233   0.50007   0.00000  Uiso   1.00
C513   C     0.20794   0.18494   0.36211   0.00000  Uiso   1.00
C514   C     0.12539   0.14839   0.63789   0.00000  Uiso   1.00
C515   C     0.20807   0.18434   0.64764   0.00000  Uiso   1.00
C516   C     0.12526   0.14899   0.35236   0.00000  Uiso   1.00
C517   C     0.18197   0.03932   0.41550   0.00000  Uiso   1.00
H518   H     0.21575   0.06088   0.41650   0.00000  Uiso   1.00
O519   O     0.15420   0.03231   0.37927   0.00000  Uiso   1.00
C520   C     0.15136   0.29401   0.58450   0.00000  Uiso   1.00
H521   H     0.11758   0.27245   0.58349   0.00000  Uiso   1.00
O522   O     0.17913   0.30102   0.62073   0.00000  Uiso   1.00
N523   N     0.13472   0.29025   0.41614   0.00000  Uiso   1.00
O524   O     0.08755   0.27296   0.41037   0.00000  Uiso   1.00
O525   O     0.16543   0.28413   0.38581   0.00000  Uiso   1.00
N526   N     0.19861   0.04309   0.58386   0.00000  Uiso   1.00
O527   O     0.24579   0.06037   0.58963   0.00000  Uiso   1.00
O528   O     0.16790   0.04921   0.61419   0.00000  Uiso   1.00
C529   C     0.25301   0.20660   0.39038   0.00000  Uiso   1.00
H530   H     0.29267   0.20091   0.38459   0.00000  Uiso   1.00
O531   O     0.24672   0.23311   0.41820   0.00000  Uiso   1.00
C532   C     0.08032   0.12673   0.60962   0.00000  Uiso   1.00
H533   H     0.04066   0.13243   0.61540   0.00000  Uiso   1.00
O534   O     0.08661   0.10022   0.58180   0.00000  Uiso   1.00
N535   N     0.25190   0.20270   0.62925   0.00000  Uiso   1.00
O536   O     0.29653   0.18488   0.63443   0.00000  Uiso   1.00
O537   O     0.24858   0.23858   0.61011   0.00000  Uiso   1.00
N538   N     0.08143   0.13064   0.37075   0.00000  Uiso   1.00
O539   O     0.03680   0.14845   0.36557   0.00000  Uiso   1.00
O540   O     0.08475   0.09476   0.38990   0.00000  Uiso   1.00
O541   O     0.50000   0.10558   0.53821   0.00000  Uiso   1.00
O542   O     0.50000   0.22775   0.46179   0.00000  Uiso   1.00
O543   O     0.50000   0.10559   0.46176   0.00000  Uiso   1.00
O544   O     0.50000   0.22774   0.53824   0.00000  Uiso   1.00
C545   C     0.50495   0.08690   0.50023   0.00000  Uiso   1.00
C546   C     0.49505   0.24643   0.49977   0.00000  Uiso   1.00
O547   O     0.42392   0.16666   0.52928   0.00000  Uiso   1.00
O548   O     0.57608   0.16667   0.47072   0.00000  Uiso   1.00
O549   O     0.42392   0.16667   0.45284   0.00000  Uiso   1.00
O550   O     0.57608   0.16666   0.54716   0.00000  Uiso   1.00
C551   C     0.40051   0.16620   0.48820   0.00000  Uiso   1.00
C552   C     0.59949   0.16714   0.51180   0.00000  Uiso   1.00
Zn553  Zn    0.50000   0.16666   0.55104   0.00000  Uiso   1.00
Zn554  Zn    0.50000   0.16667   0.44896   0.00000  Uiso   1.00
N555   N     0.49999   0.16666   0.61907   0.00000  Uiso   1.00
N556   N     0.50001   0.16668   0.38093   0.00000  Uiso   1.00
C557   C     0.34546   0.16440   0.48197   0.00000  Uiso   1.00
C558   C     0.65454   0.16893   0.51803   0.00000  Uiso   1.00
H559   H     0.65834   0.15856   0.44789   0.00000  Uiso   1.00
H560   H     0.34166   0.17477   0.55211   0.00000  Uiso   1.00
C561   C     0.50313   0.02000   0.45830   0.00000  Uiso   1.00
C562   C     0.49687   0.31334   0.54170   0.00000  Uiso   1.00
C563   C     0.48775   0.31155   0.45824   0.00000  Uiso   1.00
C564   C     0.51225   0.02178   0.54176   0.00000  Uiso   1.00
C565   C     0.48965   0.29100   0.49993   0.00000  Uiso   1.00
C566   C     0.51035   0.04233   0.50007   0.00000  Uiso   1.00
C567   C     0.54127   0.18494   0.36211   0.00000  Uiso   1.00
C568   C     0.45873   0.14839   0.63789   0.00000  Uiso   1.00
C569   C     0.54140   0.18434   0.64764   0.00000  Uiso   1.00
C570   C     0.45860   0.14899   0.35236   0.00000  Uiso   1.00
C571   C     0.51530   0.03932   0.41550   0.00000  Uiso   1.00
H572   H     0.54908   0.06088   0.41650   0.00000  Uiso   1.00
O573   O     0.48753   0.03231   0.37927   0.00000  Uiso   1.00
C574   C     0.48469   0.29401   0.58450   0.00000  Uiso   1.00
H575   H     0.45091   0.27245   0.58349   0.00000  Uiso   1.00
O576   O     0.51246   0.30102   0.62073   0.00000  Uiso   1.00
N577   N     0.46805   0.29025   0.41614   0.00000  Uiso   1.00
O578   O     0.42088   0.27296   0.41037   0.00000  Uiso   1.00
O579   O     0.49877   0.28413   0.38581   0.00000  Uiso   1.00
N580   N     0.53195   0.04309   0.58386   0.00000  Uiso   1.00
O581   O     0.57912   0.06037   0.58963   0.00000  Uiso   1.00
O582   O     0.50123   0.04921   0.61419   0.00000  Uiso   1.00
C583   C     0.58634   0.20660   0.39038   0.00000  Uiso   1.00
H584   H     0.62600   0.20091   0.38459   0.00000  Uiso   1.00
O585   O     0.58005   0.23311   0.41820   0.00000  Uiso   1.00
C586   C     0.41366   0.12673   0.60962   0.00000  Uiso   1.00
H587   H     0.37400   0.13243   0.61540   0.00000  Uiso   1.00
O588   O     0.41995   0.10022   0.58180   0.00000  Uiso   1.00
N589   N     0.58523   0.20270   0.62925   0.00000  Uiso   1.00
O590   O     0.62986   0.18488   0.63443   0.00000  Uiso   1.00
O591   O     0.58191   0.23858   0.61011   0.00000  Uiso   1.00
N592   N     0.41477   0.13064   0.37075   0.00000  Uiso   1.00
O593   O     0.37014   0.14845   0.36557   0.00000  Uiso   1.00
O594   O     0.41809   0.09476   0.38990   0.00000  Uiso   1.00
O595   O     0.83333   0.10558   0.53821   0.00000  Uiso   1.00
O596   O     0.83334   0.22775   0.46179   0.00000  Uiso   1.00
O597   O     0.83333   0.10559   0.46176   0.00000  Uiso   1.00
O598   O     0.83334   0.22774   0.53824   0.00000  Uiso   1.00
C599   C     0.83828   0.08690   0.50023   0.00000  Uiso   1.00
C600   C     0.82838   0.24643   0.49977   0.00000  Uiso   1.00
O601   O     0.75725   0.16666   0.52928   0.00000  Uiso   1.00
O602   O     0.90942   0.16667   0.47072   0.00000  Uiso   1.00
O603   O     0.75725   0.16667   0.45284   0.00000  Uiso   1.00
O604   O     0.90942   0.16666   0.54716   0.00000  Uiso   1.00
C605   C     0.73384   0.16620   0.48820   0.00000  Uiso   1.00
C606   C     0.93283   0.16714   0.51180   0.00000  Uiso   1.00
Zn607  Zn    0.83333   0.16666   0.55104   0.00000  Uiso   1.00
Zn608  Zn    0.83333   0.16667   0.44896   0.00000  Uiso   1.00
N609   N     0.83332   0.16666   0.61907   0.00000  Uiso   1.00
N610   N     0.83335   0.16668   0.38093   0.00000  Uiso   1.00
C611   C     0.67879   0.16440   0.48197   0.00000  Uiso   1.00
C612   C     0.98788   0.16893   0.51803   0.00000  Uiso   1.00
H613   H     0.99167   0.15856   0.44789   0.00000  Uiso   1.00
H614   H     0.67499   0.17477   0.55211   0.00000  Uiso   1.00
C615   C     0.83647   0.02000   0.45830   0.00000  Uiso   1.00
C616   C     0.83020   0.31334   0.54170   0.00000  Uiso   1.00
C617   C     0.82108   0.31155   0.45824   0.00000  Uiso   1.00
C618   C     0.84558   0.02178   0.54176   0.00000  Uiso   1.00
C619   C     0.82298   0.29100   0.49993   0.00000  Uiso   1.00
C620   C     0.84368   0.04233   0.50007   0.00000  Uiso   1.00
C621   C     0.87461   0.18494   0.36211   0.00000  Uiso   1.00
C622   C     0.79206   0.14839   0.63789   0.00000  Uiso   1.00
C623   C     0.87474   0.18434   0.64764   0.00000  Uiso   1.00
C624   C     0.79193   0.14899   0.35236   0.00000  Uiso   1.00
C625   C     0.84864   0.03932   0.41550   0.00000  Uiso   1.00
H626   H     0.88242   0.06088   0.41650   0.00000  Uiso   1.00
O627   O     0.82087   0.03231   0.37927   0.00000  Uiso   1.00
C628   C     0.81802   0.29401   0.58450   0.00000  Uiso   1.00
H629   H     0.78425   0.27245   0.58349   0.00000  Uiso   1.00
O630   O     0.84579   0.30102   0.62073   0.00000  Uiso   1.00
N631   N     0.80139   0.29025   0.41614   0.00000  Uiso   1.00
O632   O     0.75421   0.27296   0.41037   0.00000  Uiso   1.00
O633   O     0.83210   0.28413   0.38581   0.00000  Uiso   1.00
N634   N     0.86528   0.04309   0.58386   0.00000  Uiso   1.00
O635   O     0.91245   0.06037   0.58963   0.00000  Uiso   1.00
O636   O     0.83457   0.04921   0.61419   0.00000  Uiso   1.00
C637   C     0.91968   0.20660   0.39038   0.00000  Uiso   1.00
H638   H     0.95934   0.20091   0.38459   0.00000  Uiso   1.00
O639   O     0.91339   0.23311   0.41820   0.00000  Uiso   1.00
C640   C     0.74699   0.12673   0.60962   0.00000  Uiso   1.00
H641   H     0.70733   0.13243   0.61540   0.00000  Uiso   1.00
O642   O     0.75328   0.10022   0.58180   0.00000  Uiso   1.00
N643   N     0.91857   0.20270   0.62925   0.00000  Uiso   1.00
O644   O     0.96320   0.18488   0.63443   0.00000  Uiso   1.00
O645   O     0.91525   0.23858   0.61011   0.00000  Uiso   1.00
N646   N     0.74810   0.13064   0.37075   0.00000  Uiso   1.00
O647   O     0.70347   0.14845   0.36557   0.00000  Uiso   1.00
O648   O     0.75142   0.09476   0.38990   0.00000  Uiso   1.00
O649   O     0.16666   0.43892   0.53821   0.00000  Uiso   1.00
O650   O     0.16667   0.56108   0.46179   0.00000  Uiso   1.00
O651   O     0.16666   0.43893   0.46176   0.00000  Uiso   1.00
O652   O     0.16667   0.56107   0.53824   0.00000  Uiso   1.00
C653   C     0.17162   0.42024   0.50023   0.00000  Uiso   1.00
C654   C     0.16172   0.57976   0.49977   0.00000  Uiso   1.00
O655   O     0.09058   0.50000   0.52928   0.00000  Uiso   1.00
O656   O     0.24275   0.50000   0.47072   0.00000  Uiso   1.00
O657   O     0.09058   0.50000   0.45284   0.00000  Uiso   1.00
O658   O     0.24275   0.50000   0.54716   0.00000  Uiso   1.00
C659   C     0.06717   0.49953   0.48820   0.00000  Uiso   1.00
C660   C     0.26616   0.50047   0.51180   0.00000  Uiso   1.00
Zn661  Zn    0.16667   0.49999   0.55104   0.00000  Uiso   1.00
Zn662  Zn    0.16667   0.50001   0.44896   0.00000  Uiso   1.00
N663   N     0.16665   0.49999   0.61907   0.00000  Uiso   1.00
N664   N     0.16668   0.50001   0.38093   0.00000  Uiso   1.00
C665   C     0.01213   0.49773   0.48197   0.00000  Uiso   1.00
C666   C     0.32121   0.50227   0.51803   0.00000  Uiso   1.00
H667   H     0.32501   0.49190   0.44789   0.00000  Uiso   1.00
H668   H     0.00833   0.50810   0.55211   0.00000  Uiso   1.00
C669   C     0.16980   0.35333   0.45830   0.00000  Uiso   1.00
C670   C     0.16353   0.64667   0.54170   0.00000  Uiso   1.00
C671   C     0.15442   0.64488   0.45824   0.00000  Uiso   1.00
C672   C     0.17891   0.35512   0.54176   0.00000  Uiso   1.00
C673   C     0.15632   0.62433   0.49993   0.00000  Uiso   1.00
C674   C     0.17702   0.37567   0.50007   0.00000  Uiso   1.00
C675   C     0.20794   0.51828   0.36211   0.00000  Uiso   1.00
C676   C     0.12539   0.48172   0.63789   0.00000  Uiso   1.00
C677   C     0.20807   0.51767   0.64764   0.00000  Uiso   1.00
C678   C     0.12526   0.48233   0.35236   0.00000  Uiso   1.00
C679   C     0.18197   0.37265   0.41550   0.00000  Uiso   1.00
H680   H     0.21575   0.39421   0.41650   0.00000  Uiso   1.00
O681   O     0.15420   0.36565   0.37927   0.00000  Uiso   1.00
C682   C     0.15136   0.62735   0.58450   0.00000  Uiso   1.00
H683   H     0.11758   0.60579   0.58349   0.00000  Uiso   1.00
O684   O     0.17913   0.63435   0.62073   0.00000  Uiso   1.00
N685   N     0.13472   0.62358   0.41614   0.00000  Uiso   1.00
O686   O     0.08755   0.60629   0.41037   0.00000  Uiso   1.00
O687   O     0.16543   0.61746   0.38581   0.00000  Uiso   1.00
N688   N     0.19861   0.37642   0.58386   0.00000  Uiso   1.00
O689   O     0.24579   0.39371   0.58963   0.00000  Uiso   1.00
O690   O     0.16790   0.38254   0.61419   0.00000  Uiso   1.00
C691   C     0.25301   0.53994   0.39038   0.00000  Uiso   1.00
H692   H     0.29267   0.53424   0.38459   0.00000  Uiso   1.00
O693   O     0.24672   0.56644   0.41820   0.00000  Uiso   1.00
C694   C     0.08032   0.46006   0.60962   0.00000  Uiso   1.00
H695   H     0.04066   0.46576   0.61540   0.00000  Uiso   1.00
O696   O     0.08661   0.43356   0.58180   0.00000  Uiso   1.00
N697   N     0.25190   0.53603   0.62925   0.00000  Uiso   1.00
O698   O     0.29653   0.51821   0.63443   0.00000  Uiso   1.00
O699   O     0.24858   0.57192   0.61011   0.00000  Uiso   1.00
N700   N     0.08143   0.46397   0.37075   0.00000  Uiso   1.00
O701   O     0.03680   0.48179   0.36557   0.00000  Uiso   1.00
O702   O     0.08475   0.42809   0.38990   0.00000  Uiso   1.00
O703   O     0.50000   0.43892   0.53821   0.00000  Uiso   1.00
O704   O     0.50000   0.56108   0.46179   0.00000  Uiso   1.00
O705   O     0.50000   0.43893   0.46176   0.00000  Uiso   1.00
O706   O     0.50000   0.56107   0.53824   0.00000  Uiso   1.00
C707   C     0.50495   0.42024   0.50023   0.00000  Uiso   1.00
C708   C     0.49505   0.57976   0.49977   0.00000  Uiso   1.00
O709   O     0.42392   0.50000   0.52928   0.00000  Uiso   1.00
O710   O     0.57608   0.50000   0.47072   0.00000  Uiso   1.00
O711   O     0.42392   0.50000   0.45284   0.00000  Uiso   1.00
O712   O     0.57608   0.50000   0.54716   0.00000  Uiso   1.00
C713   C     0.40051   0.49953   0.48820   0.00000  Uiso   1.00
C714   C     0.59949   0.50047   0.51180   0.00000  Uiso   1.00
Zn715  Zn    0.50000   0.49999   0.55104   0.00000  Uiso   1.00
Zn716  Zn    0.50000   0.50001   0.44896   0.00000  Uiso   1.00
N717   N     0.49999   0.49999   0.61907   0.00000  Uiso   1.00
N718   N     0.50001   0.50001   0.38093   0.00000  Uiso   1.00
C719   C     0.34546   0.49773   0.48197   0.00000  Uiso   1.00
C720   C     0.65454   0.50227   0.51803   0.00000  Uiso   1.00
H721   H     0.65834   0.49190   0.44789   0.00000  Uiso   1.00
H722   H     0.34166   0.50810   0.55211   0.00000  Uiso   1.00
C723   C     0.50313   0.35333   0.45830   0.00000  Uiso   1.00
C724   C     0.49687   0.64667   0.54170   0.00000  Uiso   1.00
C725   C     0.48775   0.64488   0.45824   0.00000  Uiso   1.00
C726   C     0.51225   0.35512   0.54176   0.00000  Uiso   1.00
C727   C     0.48965   0.62433   0.49993   0.00000  Uiso   1.00
C728   C     0.51035   0.37567   0.50007   0.00000  Uiso   1.00
C729   C     0.54127   0.51828   0.36211   0.00000  Uiso   1.00
C730   C     0.45873   0.48172   0.63789   0.00000  Uiso   1.00
C731   C     0.54140   0.51767   0.64764   0.00000  Uiso   1.00
C732   C     0.45860   0.48233   0.35236   0.00000  Uiso   1.00
C733   C     0.51530   0.37265   0.41550   0.00000  Uiso   1.00
H734   H     0.54908   0.39421   0.41650   0.00000  Uiso   1.00
O735   O     0.48753   0.36565   0.37927   0.00000  Uiso   1.00
C736   C     0.48469   0.62735   0.58450   0.00000  Uiso   1.00
H737   H     0.45091   0.60579   0.58349   0.00000  Uiso   1.00
O738   O     0.51246   0.63435   0.62073   0.00000  Uiso   1.00
N739   N     0.46805   0.62358   0.41614   0.00000  Uiso   1.00
O740   O     0.42088   0.60629   0.41037   0.00000  Uiso   1.00
O741   O     0.49877   0.61746   0.38581   0.00000  Uiso   1.00
N742   N     0.53195   0.37642   0.58386   0.00000  Uiso   1.00
O743   O     0.57912   0.39371   0.58963   0.00000  Uiso   1.00
O744   O     0.50123   0.38254   0.61419   0.00000  Uiso   1.00
C745   C     0.58634   0.53994   0.39038   0.00000  Uiso   1.00
H746   H     0.62600   0.53424   0.38459   0.00000  Uiso   1.00
O747   O     0.58005   0.56644   0.41820   0.00000  Uiso   1.00
C748   C     0.41366   0.46006   0.60962   0.00000  Uiso   1.00
H749   H     0.37400   0.46576   0.61540   0.00000  Uiso   1.00
O750   O     0.41995   0.43356   0.58180   0.00000  Uiso   1.00
N751   N     0.58523   0.53603   0.62925   0.00000  Uiso   1.00
O752   O     0.62986   0.51821   0.63443   0.00000  Uiso   1.00
O753   O     0.58191   0.57192   0.61011   0.00000  Uiso   1.00
N754   N     0.41477   0.46397   0.37075   0.00000  Uiso   1.00
O755   O     0.37014   0.48179   0.36557   0.00000  Uiso   1.00
O756   O     0.41809   0.42809   0.38990   0.00000  Uiso   1.00
O757   O     0.83333   0.43892   0.53821   0.00000  Uiso   1.00
O758   O     0.83334   0.56108   0.46179   0.00000  Uiso   1.00
O759   O     0.83333   0.43893   0.46176   0.00000  Uiso   1.00
O760   O     0.83334   0.56107   0.53824   0.00000  Uiso   1.00
C761   C     0.83828   0.42024   0.50023   0.00000  Uiso   1.00
C762   C     0.82838   0.57976   0.49977   0.00000  Uiso   1.00
O763   O     0.75725   0.50000   0.52928   0.00000  Uiso   1.00
O764   O     0.90942   0.50000   0.47072   0.00000  Uiso   1.00
O765   O     0.75725   0.50000   0.45284   0.00000  Uiso   1.00
O766   O     0.90942   0.50000   0.54716   0.00000  Uiso   1.00
C767   C     0.73384   0.49953   0.48820   0.00000  Uiso   1.00
C768   C     0.93283   0.50047   0.51180   0.00000  Uiso   1.00
Zn769  Zn    0.83333   0.49999   0.55104   0.00000  Uiso   1.00
Zn770  Zn    0.83333   0.50001   0.44896   0.00000  Uiso   1.00
N771   N     0.83332   0.49999   0.61907   0.00000  Uiso   1.00
N772   N     0.83335   0.50001   0.38093   0.00000  Uiso   1.00
C773   C     0.67879   0.49773   0.48197   0.00000  Uiso   1.00
C774   C     0.98788   0.50227   0.51803   0.00000  Uiso   1.00
H775   H     0.99167   0.49190   0.44789   0.00000  Uiso   1.00
H776   H     0.67499   0.50810   0.55211   0.00000  Uiso   1.00
C777   C     0.83647   0.35333   0.45830   0.00000  Uiso   1.00
C778   C     0.83020   0.64667   0.54170   0.00000  Uiso   1.00
C779   C     0.82108   0.64488   0.45824   0.00000  Uiso   1.00
C780   C     0.84558   0.35512   0.54176   0.00000  Uiso   1.00
C781   C     0.82298   0.62433   0.49993   0.00000  Uiso   1.00
C782   C     0.84368   0.37567   0.50007   0.00000  Uiso   1.00
C783   C     0.87461   0.51828   0.36211   0.00000  Uiso   1.00
C784   C     0.79206   0.48172   0.63789   0.00000  Uiso   1.00
C785   C     0.87474   0.51767   0.64764   0.00000  Uiso   1.00
C786   C     0.79193   0.48233   0.35236   0.00000  Uiso   1.00
C787   C     0.84864   0.37265   0.41550   0.00000  Uiso   1.00
H788   H     0.88242   0.39421   0.41650   0.00000  Uiso   1.00
O789   O     0.82087   0.36565   0.37927   0.00000  Uiso   1.00
C790   C     0.81802   0.62735   0.58450   0.00000  Uiso   1.00
H791   H     0.78425   0.60579   0.58349   0.00000  Uiso   1.00
O792   O     0.84579   0.63435   0.62073   0.00000  Uiso   1.00
N793   N     0.80139   0.62358   0.41614   0.00000  Uiso   1.00
O794   O     0.75421   0.60629   0.41037   0.00000  Uiso   1.00
O795   O     0.83210   0.61746   0.38581   0.00000  Uiso   1.00
N796   N     0.86528   0.37642   0.58386   0.00000  Uiso   1.00
O797   O     0.91245   0.39371   0.58963   0.00000  Uiso   1.00
O798   O     0.83457   0.38254   0.61419   0.00000  Uiso   1.00
C799   C     0.91968   0.53994   0.39038   0.00000  Uiso   1.00
H800   H     0.95934   0.53424   0.38459   0.00000  Uiso   1.00
O801   O     0.91339   0.56644   0.41820   0.00000  Uiso   1.00
C802   C     0.74699   0.46006   0.60962   0.00000  Uiso   1.00
H803   H     0.70733   0.46576   0.61540   0.00000  Uiso   1.00
O804   O     0.75328   0.43356   0.58180   0.00000  Uiso   1.00
N805   N     0.91857   0.53603   0.62925   0.00000  Uiso   1.00
O806   O     0.96320   0.51821   0.63443   0.00000  Uiso   1.00
O807   O     0.91525   0.57192   0.61011   0.00000  Uiso   1.00
N808   N     0.74810   0.46397   0.37075   0.00000  Uiso   1.00
O809   O     0.70347   0.48179   0.36557   0.00000  Uiso   1.00
O810   O     0.75142   0.42809   0.38990   0.00000  Uiso   1.00
O811   O     0.16666   0.77225   0.53821   0.00000  Uiso   1.00
O812   O     0.16667   0.89442   0.46179   0.00000  Uiso   1.00
O813   O     0.16666   0.77226   0.46176   0.00000  Uiso   1.00
O814   O     0.16667   0.89441   0.53824   0.00000  Uiso   1.00
C815   C     0.17162   0.75357   0.50023   0.00000  Uiso   1.00
C816   C     0.16172   0.91310   0.49977   0.00000  Uiso   1.00
O817   O     0.09058   0.83333   0.52928   0.00000  Uiso   1.00
O818   O     0.24275   0.83334   0.47072   0.00000  Uiso   1.00
O819   O     0.09058   0.83334   0.45284   0.00000  Uiso   1.00
O820   O     0.24275   0.83333   0.54716   0.00000  Uiso   1.00
C821   C     0.06717   0.83286   0.48820   0.00000  Uiso   1.00
C822   C     0.26616   0.83380   0.51180   0.00000  Uiso   1.00
Zn823  Zn    0.16667   0.83333   0.55104   0.00000  Uiso   1.00
Zn824  Zn    0.16667   0.83334   0.44896   0.00000  Uiso   1.00
N825   N     0.16665   0.83332   0.61907   0.00000  Uiso   1.00
N826   N     0.16668   0.83334   0.38093   0.00000  Uiso   1.00
C827   C     0.01213   0.83107   0.48197   0.00000  Uiso   1.00
C828   C     0.32121   0.83560   0.51803   0.00000  Uiso   1.00
H829   H     0.32501   0.82523   0.44789   0.00000  Uiso   1.00
H830   H     0.00833   0.84144   0.55211   0.00000  Uiso   1.00
C831   C     0.16980   0.68666   0.45830   0.00000  Uiso   1.00
C832   C     0.16353   0.98000   0.54170   0.00000  Uiso   1.00
C833   C     0.15442   0.97822   0.45824   0.00000  Uiso   1.00
C834   C     0.17891   0.68845   0.54176   0.00000  Uiso   1.00
C835   C     0.15632   0.95767   0.49993   0.00000  Uiso   1.00
C836   C     0.17702   0.70900   0.50007   0.00000  Uiso   1.00
C837   C     0.20794   0.85161   0.36211   0.00000  Uiso   1.00
C838   C     0.12539   0.81506   0.63789   0.00000  Uiso   1.00
C839   C     0.20807   0.85101   0.64764   0.00000  Uiso   1.00
C840   C     0.12526   0.81566   0.35236   0.00000  Uiso   1.00
C841   C     0.18197   0.70599   0.41550   0.00000  Uiso   1.00
H842   H     0.21575   0.72754   0.41650   0.00000  Uiso   1.00
O843   O     0.15420   0.69898   0.37927   0.00000  Uiso   1.00
C844   C     0.15136   0.96068   0.58450   0.00000  Uiso   1.00
H845   H     0.11758   0.93912   0.58349   0.00000  Uiso   1.00
O846   O     0.17913   0.96769   0.62073   0.00000  Uiso   1.00
N847   N     0.13472   0.95691   0.41614   0.00000  Uiso   1.00
O848   O     0.08755   0.93963   0.41037   0.00000  Uiso   1.00
O849   O     0.16543   0.95079   0.38581   0.00000  Uiso   1.00
N850   N     0.19861   0.70975   0.58386   0.00000  Uiso   1.00
O851   O     0.24579   0.72704   0.58963   0.00000  Uiso   1.00
O852   O     0.16790   0.71587   0.61419   0.00000  Uiso   1.00
C853   C     0.25301   0.87327   0.39038   0.00000  Uiso   1.00
H854   H     0.29267   0.86757   0.38459   0.00000  Uiso   1.00
O855   O     0.24672   0.89978   0.41820   0.00000  Uiso   1.00
C856   C     0.08032   0.79340   0.60962   0.00000  Uiso   1.00
H857   H     0.04066   0.79909   0.61540   0.00000  Uiso   1.00
O858   O     0.08661   0.76689   0.58180   0.00000  Uiso   1.00
N859   N     0.25190   0.86936   0.62925   0.00000  Uiso   1.00
O860   O     0.29653   0.85155   0.63443   0.00000  Uiso   1.00
O861   O     0.24858   0.90525   0.61011   0.00000  Uiso   1.00
N862   N     0.08143   0.79730   0.37075   0.00000  Uiso   1.00
O863   O     0.03680   0.81512   0.36557   0.00000  Uiso   1.00
O864   O     0.08475   0.76142   0.38990   0.00000  Uiso   1.00
O865   O     0.50000   0.77225   0.53821   0.00000  Uiso   1.00
O866   O     0.50000   0.89442   0.46179   0.00000  Uiso   1.00
O867   O     0.50000   0.77226   0.46176   0.00000  Uiso   1.00
O868   O     0.50000   0.89441   0.53824   0.00000  Uiso   1.00
C869   C     0.50495   0.75357   0.50023   0.00000  Uiso   1.00
C870   C     0.49505   0.91310   0.49977   0.00000  Uiso   1.00
O871   O     0.42392   0.83333   0.52928   0.00000  Uiso   1.00
O872   O     0.57608   0.83334   0.47072   0.00000  Uiso   1.00
O873   O     0.42392   0.83334   0.45284   0.00000  Uiso   1.00
O874   O     0.57608   0.83333   0.54716   0.00000  Uiso   1.00
C875   C     0.40051   0.83286   0.48820   0.00000  Uiso   1.00
C876   C     0.59949   0.83380   0.51180   0.00000  Uiso   1.00
Zn877  Zn    0.50000   0.83333   0.55104   0.00000  Uiso   1.00
Zn878  Zn    0.50000   0.83334   0.44896   0.00000  Uiso   1.00
N879   N     0.49999   0.83332   0.61907   0.00000  Uiso   1.00
N880   N     0.50001   0.83334   0.38093   0.00000  Uiso   1.00
C881   C     0.34546   0.83107   0.48197   0.00000  Uiso   1.00
C882   C     0.65454   0.83560   0.51803   0.00000  Uiso   1.00
H883   H     0.65834   0.82523   0.44789   0.00000  Uiso   1.00
H884   H     0.34166   0.84144   0.55211   0.00000  Uiso   1.00
C885   C     0.50313   0.68666   0.45830   0.00000  Uiso   1.00
C886   C     0.49687   0.98000   0.54170   0.00000  Uiso   1.00
C887   C     0.48775   0.97822   0.45824   0.00000  Uiso   1.00
C888   C     0.51225   0.68845   0.54176   0.00000  Uiso   1.00
C889   C     0.48965   0.95767   0.49993   0.00000  Uiso   1.00
C890   C     0.51035   0.70900   0.50007   0.00000  Uiso   1.00
C891   C     0.54127   0.85161   0.36211   0.00000  Uiso   1.00
C892   C     0.45873   0.81506   0.63789   0.00000  Uiso   1.00
C893   C     0.54140   0.85101   0.64764   0.00000  Uiso   1.00
C894   C     0.45860   0.81566   0.35236   0.00000  Uiso   1.00
C895   C     0.51530   0.70599   0.41550   0.00000  Uiso   1.00
H896   H     0.54908   0.72754   0.41650   0.00000  Uiso   1.00
O897   O     0.48753   0.69898   0.37927   0.00000  Uiso   1.00
C898   C     0.48469   0.96068   0.58450   0.00000  Uiso   1.00
H899   H     0.45091   0.93912   0.58349   0.00000  Uiso   1.00
O900   O     0.51246   0.96769   0.62073   0.00000  Uiso   1.00
N901   N     0.46805   0.95691   0.41614   0.00000  Uiso   1.00
O902   O     0.42088   0.93963   0.41037   0.00000  Uiso   1.00
O903   O     0.49877   0.95079   0.38581   0.00000  Uiso   1.00
N904   N     0.53195   0.70975   0.58386   0.00000  Uiso   1.00
O905   O     0.57912   0.72704   0.58963   0.00000  Uiso   1.00
O906   O     0.50123   0.71587   0.61419   0.00000  Uiso   1.00
C907   C     0.58634   0.87327   0.39038   0.00000  Uiso   1.00
H908   H     0.62600   0.86757   0.38459   0.00000  Uiso   1.00
O909   O     0.58005   0.89978   0.41820   0.00000  Uiso   1.00
C910   C     0.41366   0.79340   0.60962   0.00000  Uiso   1.00
H911   H     0.37400   0.79909   0.61540   0.00000  Uiso   1.00
O912   O     0.41995   0.76689   0.58180   0.00000  Uiso   1.00
N913   N     0.58523   0.86936   0.62925   0.00000  Uiso   1.00
O914   O     0.62986   0.85155   0.63443   0.00000  Uiso   1.00
O915   O     0.58191   0.90525   0.61011   0.00000  Uiso   1.00
N916   N     0.41477   0.79730   0.37075   0.00000  Uiso   1.00
O917   O     0.37014   0.81512   0.36557   0.00000  Uiso   1.00
O918   O     0.41809   0.76142   0.38990   0.00000  Uiso   1.00
O919   O     0.83333   0.77225   0.53821   0.00000  Uiso   1.00
O920   O     0.83334   0.89442   0.46179   0.00000  Uiso   1.00
O921   O     0.83333   0.77226   0.46176   0.00000  Uiso   1.00
O922   O     0.83334   0.89441   0.53824   0.00000  Uiso   1.00
C923   C     0.83828   0.75357   0.50023   0.00000  Uiso   1.00
C924   C     0.82838   0.91310   0.49977   0.00000  Uiso   1.00
O925   O     0.75725   0.83333   0.52928   0.00000  Uiso   1.00
O926   O     0.90942   0.83334   0.47072   0.00000  Uiso   1.00
O927   O     0.75725   0.83334   0.45284   0.00000  Uiso   1.00
O928   O     0.90942   0.83333   0.54716   0.00000  Uiso   1.00
C929   C     0.73384   0.83286   0.48820   0.00000  Uiso   1.00
C930   C     0.93283   0.83380   0.51180   0.00000  Uiso   1.00
Zn931  Zn    0.83333   0.83333   0.55104   0.00000  Uiso   1.00
Zn932  Zn    0.83333   0.83334   0.44896   0.00000  Uiso   1.00
N933   N     0.83332   0.83332   0.61907   0.00000  Uiso   1.00
N934   N     0.83335   0.83334   0.38093   0.00000  Uiso   1.00
C935   C     0.67879   0.83107   0.48197   0.00000  Uiso   1.00
C936   C     0.98788   0.83560   0.51803   0.00000  Uiso   1.00
H937   H     0.99167   0.82523   0.44789   0.00000  Uiso   1.00
H938   H     0.67499   0.84144   0.55211   0.00000  Uiso   1.00
C939   C     0.83647   0.68666   0.45830   0.00000  Uiso   1.00
C940   C     0.83020   0.98000   0.54170   0.00000  Uiso   1.00
C941   C     0.82108   0.97822   0.45824   0.00000  Uiso   1.00
C942   C     0.84558   0.68845   0.54176   0.00000  Uiso   1.00
C943   C     0.82298   0.95767   0.49993   0.00000  Uiso   1.00
C944   C     0.84368   0.70900   0.50007   0.00000  Uiso   1.00
C945   C     0.87461   0.85161   0.36211   0.00000  Uiso   1.00
C946   C     0.79206   0.81506   0.63789   0.00000  Uiso   1.00
C947   C     0.87474   0.85101   0.64764   0.00000  Uiso   1.00
C948   C     0.79193   0.81566   0.35236   0.00000  Uiso   1.00
C949   C     0.84864   0.70599   0.41550   0.00000  Uiso   1.00
H950   H     0.88242   0.72754   0.41650   0.00000  Uiso   1.00
O951   O     0.82087   0.69898   0.37927   0.00000  Uiso   1.00
C952   C     0.81802   0.96068   0.58450   0.00000  Uiso   1.00
H953   H     0.78425   0.93912   0.58349   0.00000  Uiso   1.00
O954   O     0.84579   0.96769   0.62073   0.00000  Uiso   1.00
N955   N     0.80139   0.95691   0.41614   0.00000  Uiso   1.00
O956   O     0.75421   0.93963   0.41037   0.00000  Uiso   1.00
O957   O     0.83210   0.95079   0.38581   0.00000  Uiso   1.00
N958   N     0.86528   0.70975   0.58386   0.00000  Uiso   1.00
O959   O     0.91245   0.72704   0.58963   0.00000  Uiso   1.00
O960   O     0.83457   0.71587   0.61419   0.00000  Uiso   1.00
C961   C     0.91968   0.87327   0.39038   0.00000  Uiso   1.00
H962   H     0.95934   0.86757   0.38459   0.00000  Uiso   1.00
O963   O     0.91339   0.89978   0.41820   0.00000  Uiso   1.00
C964   C     0.74699   0.79340   0.60962   0.00000  Uiso   1.00
H965   H     0.70733   0.79909   0.61540   0.00000  Uiso   1.00
O966   O     0.75328   0.76689   0.58180   0.00000  Uiso   1.00
N967   N     0.91857   0.86936   0.62925   0.00000  Uiso   1.00
O968   O     0.96320   0.85155   0.63443   0.00000  Uiso   1.00
O969   O     0.91525   0.90525   0.61011   0.00000  Uiso   1.00
N970   N     0.74810   0.79730   0.37075   0.00000  Uiso   1.00
O971   O     0.70347   0.81512   0.36557   0.00000  Uiso   1.00
O972   O     0.75142   0.76142   0.38990   0.00000  Uiso   1.00
O973   O     0.16666   0.10558   0.87154   0.00000  Uiso   1.00
O974   O     0.16667   0.22775   0.79513   0.00000  Uiso   1.00
O975   O     0.16666   0.10559   0.79510   0.00000  Uiso   1.00
O976   O     0.16667   0.22774   0.87157   0.00000  Uiso   1.00
C977   C     0.17162   0.08690   0.83356   0.00000  Uiso   1.00
C978   C     0.16172   0.24643   0.83310   0.00000  Uiso   1.00
O979   O     0.09058   0.16666   0.86261   0.00000  Uiso   1.00
O980   O     0.24275   0.16667   0.80405   0.00000  Uiso   1.00
O981   O     0.09058   0.16667   0.78617   0.00000  Uiso   1.00
O982   O     0.24275   0.16666   0.88050   0.00000  Uiso   1.00
C983   C     0.06717   0.16620   0.82153   0.00000  Uiso   1.00
C984   C     0.26616   0.16714   0.84513   0.00000  Uiso   1.00
Zn985  Zn    0.16667   0.16666   0.88437   0.00000  Uiso   1.00
Zn986  Zn    0.16667   0.16667   0.78229   0.00000  Uiso   1.00
N987   N     0.16665   0.16666   0.95240   0.00000  Uiso   1.00
N988   N     0.16668   0.16668   0.71427   0.00000  Uiso   1.00
C989   C     0.01213   0.16440   0.81530   0.00000  Uiso   1.00
C990   C     0.32121   0.16893   0.85137   0.00000  Uiso   1.00
H991   H     0.32501   0.15856   0.78122   0.00000  Uiso   1.00
H992   H     0.00833   0.17477   0.88545   0.00000  Uiso   1.00
C993   C     0.16980   0.02000   0.79164   0.00000  Uiso   1.00
C994   C     0.16353   0.31334   0.87503   0.00000  Uiso   1.00
C995   C     0.15442   0.31155   0.79158   0.00000  Uiso   1.00
C996   C     0.17891   0.02178   0.87509   0.00000  Uiso   1.00
C997   C     0.15632   0.29100   0.83326   0.00000  Uiso   1.00
C998   C     0.17702   0.04233   0.83340   0.00000  Uiso   1.00
C999   C     0.20794   0.18494   0.69544   0.00000  Uiso   1.00
C1000  C     0.12539   0.14839   0.97122   0.00000  Uiso   1.00
C1001  C     0.20807   0.18434   0.98097   0.00000  Uiso   1.00
C1002  C     0.12526   0.14899   0.68569   0.00000  Uiso   1.00
C1003  C     0.18197   0.03932   0.74884   0.00000  Uiso   1.00
H1004  H     0.21575   0.06088   0.74984   0.00000  Uiso   1.00
O1005  O     0.15420   0.03231   0.71260   0.00000  Uiso   1.00
C1006  C     0.15136   0.29401   0.91783   0.00000  Uiso   1.00
H1007  H     0.11758   0.27245   0.91683   0.00000  Uiso   1.00
O1008  O     0.17913   0.30102   0.95407   0.00000  Uiso   1.00
N1009  N     0.13472   0.29025   0.74947   0.00000  Uiso   1.00
O1010  O     0.08755   0.27296   0.74371   0.00000  Uiso   1.00
O1011  O     0.16543   0.28413   0.71914   0.00000  Uiso   1.00
N1012  N     0.19861   0.04309   0.91720   0.00000  Uiso   1.00
O1013  O     0.24579   0.06037   0.92296   0.00000  Uiso   1.00
O1014  O     0.16790   0.04921   0.94752   0.00000  Uiso   1.00
C1015  C     0.25301   0.20660   0.72371   0.00000  Uiso   1.00
H1016  H     0.29267   0.20091   0.71793   0.00000  Uiso   1.00
O1017  O     0.24672   0.23311   0.75153   0.00000  Uiso   1.00
C1018  C     0.08032   0.12673   0.94295   0.00000  Uiso   1.00
H1019  H     0.04066   0.13243   0.94874   0.00000  Uiso   1.00
O1020  O     0.08661   0.10022   0.91513   0.00000  Uiso   1.00
N1021  N     0.25190   0.20270   0.96259   0.00000  Uiso   1.00
O1022  O     0.29653   0.18488   0.96776   0.00000  Uiso   1.00
O1023  O     0.24858   0.23858   0.94344   0.00000  Uiso   1.00
N1024  N     0.08143   0.13064   0.70408   0.00000  Uiso   1.00
O1025  O     0.03680   0.14845   0.69890   0.00000  Uiso   1.00
O1026  O     0.08475   0.09476   0.72323   0.00000  Uiso   1.00
O1027  O     0.50000   0.10558   0.87154   0.00000  Uiso   1.00
O1028  O     0.50000   0.22775   0.79513   0.00000  Uiso   1.00
O1029  O     0.50000   0.10559   0.79510   0.00000  Uiso   1.00
O1030  O     0.50000   0.22774   0.87157   0.00000  Uiso   1.00
C1031  C     0.50495   0.08690   0.83356   0.00000  Uiso   1.00
C1032  C     0.49505   0.24643   0.83310   0.00000  Uiso   1.00
O1033  O     0.42392   0.16666   0.86261   0.00000  Uiso   1.00
O1034  O     0.57608   0.16667   0.80405   0.00000  Uiso   1.00
O1035  O     0.42392   0.16667   0.78617   0.00000  Uiso   1.00
O1036  O     0.57608   0.16666   0.88050   0.00000  Uiso   1.00
C1037  C     0.40051   0.16620   0.82153   0.00000  Uiso   1.00
C1038  C     0.59949   0.16714   0.84513   0.00000  Uiso   1.00
Zn1039 Zn    0.50000   0.16666   0.88437   0.00000  Uiso   1.00
Zn1040 Zn    0.50000   0.16667   0.78229   0.00000  Uiso   1.00
N1041  N     0.49999   0.16666   0.95240   0.00000  Uiso   1.00
N1042  N     0.50001   0.16668   0.71427   0.00000  Uiso   1.00
C1043  C     0.34546   0.16440   0.81530   0.00000  Uiso   1.00
C1044  C     0.65454   0.16893   0.85137   0.00000  Uiso   1.00
H1045  H     0.65834   0.15856   0.78122   0.00000  Uiso   1.00
H1046  H     0.34166   0.17477   0.88545   0.00000  Uiso   1.00
C1047  C     0.50313   0.02000   0.79164   0.00000  Uiso   1.00
C1048  C     0.49687   0.31334   0.87503   0.00000  Uiso   1.00
C1049  C     0.48775   0.31155   0.79158   0.00000  Uiso   1.00
C1050  C     0.51225   0.02178   0.87509   0.00000  Uiso   1.00
C1051  C     0.48965   0.29100   0.83326   0.00000  Uiso   1.00
C1052  C     0.51035   0.04233   0.83340   0.00000  Uiso   1.00
C1053  C     0.54127   0.18494   0.69544   0.00000  Uiso   1.00
C1054  C     0.45873   0.14839   0.97122   0.00000  Uiso   1.00
C1055  C     0.54140   0.18434   0.98097   0.00000  Uiso   1.00
C1056  C     0.45860   0.14899   0.68569   0.00000  Uiso   1.00
C1057  C     0.51530   0.03932   0.74884   0.00000  Uiso   1.00
H1058  H     0.54908   0.06088   0.74984   0.00000  Uiso   1.00
O1059  O     0.48753   0.03231   0.71260   0.00000  Uiso   1.00
C1060  C     0.48469   0.29401   0.91783   0.00000  Uiso   1.00
H1061  H     0.45091   0.27245   0.91683   0.00000  Uiso   1.00
O1062  O     0.51246   0.30102   0.95407   0.00000  Uiso   1.00
N1063  N     0.46805   0.29025   0.74947   0.00000  Uiso   1.00
O1064  O     0.42088   0.27296   0.74371   0.00000  Uiso   1.00
O1065  O     0.49877   0.28413   0.71914   0.00000  Uiso   1.00
N1066  N     0.53195   0.04309   0.91720   0.00000  Uiso   1.00
O1067  O     0.57912   0.06037   0.92296   0.00000  Uiso   1.00
O1068  O     0.50123   0.04921   0.94752   0.00000  Uiso   1.00
C1069  C     0.58634   0.20660   0.72371   0.00000  Uiso   1.00
H1070  H     0.62600   0.20091   0.71793   0.00000  Uiso   1.00
O1071  O     0.58005   0.23311   0.75153   0.00000  Uiso   1.00
C1072  C     0.41366   0.12673   0.94295   0.00000  Uiso   1.00
H1073  H     0.37400   0.13243   0.94874   0.00000  Uiso   1.00
O1074  O     0.41995   0.10022   0.91513   0.00000  Uiso   1.00
N1075  N     0.58523   0.20270   0.96259   0.00000  Uiso   1.00
O1076  O     0.62986   0.18488   0.96776   0.00000  Uiso   1.00
O1077  O     0.58191   0.23858   0.94344   0.00000  Uiso   1.00
N1078  N     0.41477   0.13064   0.70408   0.00000  Uiso   1.00
O1079  O     0.37014   0.14845   0.69890   0.00000  Uiso   1.00
O1080  O     0.41809   0.09476   0.72323   0.00000  Uiso   1.00
O1081  O     0.83333   0.10558   0.87154   0.00000  Uiso   1.00
O1082  O     0.83334   0.22775   0.79513   0.00000  Uiso   1.00
O1083  O     0.83333   0.10559   0.79510   0.00000  Uiso   1.00
O1084  O     0.83334   0.22774   0.87157   0.00000  Uiso   1.00
C1085  C     0.83828   0.08690   0.83356   0.00000  Uiso   1.00
C1086  C     0.82838   0.24643   0.83310   0.00000  Uiso   1.00
O1087  O     0.75725   0.16666   0.86261   0.00000  Uiso   1.00
O1088  O     0.90942   0.16667   0.80405   0.00000  Uiso   1.00
O1089  O     0.75725   0.16667   0.78617   0.00000  Uiso   1.00
O1090  O     0.90942   0.16666   0.88050   0.00000  Uiso   1.00
C1091  C     0.73384   0.16620   0.82153   0.00000  Uiso   1.00
C1092  C     0.93283   0.16714   0.84513   0.00000  Uiso   1.00
Zn1093 Zn    0.83333   0.16666   0.88437   0.00000  Uiso   1.00
Zn1094 Zn    0.83333   0.16667   0.78229   0.00000  Uiso   1.00
N1095  N     0.83332   0.16666   0.95240   0.00000  Uiso   1.00
N1096  N     0.83335   0.16668   0.71427   0.00000  Uiso   1.00
C1097  C     0.67879   0.16440   0.81530   0.00000  Uiso   1.00
C1098  C     0.98788   0.16893   0.85137   0.00000  Uiso   1.00
H1099  H     0.99167   0.15856   0.78122   0.00000  Uiso   1.00
H1100  H     0.67499   0.17477   0.88545   0.00000  Uiso   1.00
C1101  C     0.83647   0.02000   0.79164   0.00000  Uiso   1.00
C1102  C     0.83020   0.31334   0.87503   0.00000  Uiso   1.00
C1103  C     0.82108   0.31155   0.79158   0.00000  Uiso   1.00
C1104  C     0.84558   0.02178   0.87509   0.00000  Uiso   1.00
C1105  C     0.82298   0.29100   0.83326   0.00000  Uiso   1.00
C1106  C     0.84368   0.04233   0.83340   0.00000  Uiso   1.00
C1107  C     0.87461   0.18494   0.69544   0.00000  Uiso   1.00
C1108  C     0.79206   0.14839   0.97122   0.00000  Uiso   1.00
C1109  C     0.87474   0.18434   0.98097   0.00000  Uiso   1.00
C1110  C     0.79193   0.14899   0.68569   0.00000  Uiso   1.00
C1111  C     0.84864   0.03932   0.74884   0.00000  Uiso   1.00
H1112  H     0.88242   0.06088   0.74984   0.00000  Uiso   1.00
O1113  O     0.82087   0.03231   0.71260   0.00000  Uiso   1.00
C1114  C     0.81802   0.29401   0.91783   0.00000  Uiso   1.00
H1115  H     0.78425   0.27245   0.91683   0.00000  Uiso   1.00
O1116  O     0.84579   0.30102   0.95407   0.00000  Uiso   1.00
N1117  N     0.80139   0.29025   0.74947   0.00000  Uiso   1.00
O1118  O     0.75421   0.27296   0.74371   0.00000  Uiso   1.00
O1119  O     0.83210   0.28413   0.71914   0.00000  Uiso   1.00
N1120  N     0.86528   0.04309   0.91720   0.00000  Uiso   1.00
O1121  O     0.91245   0.06037   0.92296   0.00000  Uiso   1.00
O1122  O     0.83457   0.04921   0.94752   0.00000  Uiso   1.00
C1123  C     0.91968   0.20660   0.72371   0.00000  Uiso   1.00
H1124  H     0.95934   0.20091   0.71793   0.00000  Uiso   1.00
O1125  O     0.91339   0.23311   0.75153   0.00000  Uiso   1.00
C1126  C     0.74699   0.12673   0.94295   0.00000  Uiso   1.00
H1127  H     0.70733   0.13243   0.94874   0.00000  Uiso   1.00
O1128  O     0.75328   0.10022   0.91513   0.00000  Uiso   1.00
N1129  N     0.91857   0.20270   0.96259   0.00000  Uiso   1.00
O1130  O     0.96320   0.18488   0.96776   0.00000  Uiso   1.00
O1131  O     0.91525   0.23858   0.94344   0.00000  Uiso   1.00
N1132  N     0.74810   0.13064   0.70408   0.00000  Uiso   1.00
O1133  O     0.70347   0.14845   0.69890   0.00000  Uiso   1.00
O1134  O     0.75142   0.09476   0.72323   0.00000  Uiso   1.00
O1135  O     0.16666   0.43892   0.87154   0.00000  Uiso   1.00
O1136  O     0.16667   0.56108   0.79513   0.00000  Uiso   1.00
O1137  O     0.16666   0.43893   0.79510   0.00000  Uiso   1.00
O1138  O     0.16667   0.56107   0.87157   0.00000  Uiso   1.00
C1139  C     0.17162   0.42024   0.83356   0.00000  Uiso   1.00
C1140  C     0.16172   0.57976   0.83310   0.00000  Uiso   1.00
O1141  O     0.09058   0.50000   0.86261   0.00000  Uiso   1.00
O1142  O     0.24275   0.50000   0.80405   0.00000  Uiso   1.00
O1143  O     0.09058   0.50000   0.78617   0.00000  Uiso   1.00
O1144  O     0.24275   0.50000   0.88050   0.00000  Uiso   1.00
C1145  C     0.06717   0.49953   0.82153   0.00000  Uiso   1.00
C1146  C     0.26616   0.50047   0.84513   0.00000  Uiso   1.00
Zn1147 Zn    0.16667   0.49999   0.88437   0.00000  Uiso   1.00
Zn1148 Zn    0.16667   0.50001   0.78229   0.00000  Uiso   1.00
N1149  N     0.16665   0.49999   0.95240   0.00000  Uiso   1.00
N1150  N     0.16668   0.50001   0.71427   0.00000  Uiso   1.00
C1151  C     0.01213   0.49773   0.81530   0.00000  Uiso   1.00
C1152  C     0.32121   0.50227   0.85137   0.00000  Uiso   1.00
H1153  H     0.32501   0.49190   0.78122   0.00000  Uiso   1.00
H1154  H     0.00833   0.50810   0.88545   0.00000  Uiso   1.00
C1155  C     0.16980   0.35333   0.79164   0.00000  Uiso   1.00
C1156  C     0.16353   0.64667   0.87503   0.00000  Uiso   1.00
C1157  C     0.15442   0.64488   0.79158   0.00000  Uiso   1.00
C1158  C     0.17891   0.35512   0.87509   0.00000  Uiso   1.00
C1159  C     0.15632   0.62433   0.83326   0.00000  Uiso   1.00
C1160  C     0.17702   0.37567   0.83340   0.00000  Uiso   1.00
C1161  C     0.20794   0.51828   0.69544   0.00000  Uiso   1.00
C1162  C     0.12539   0.48172   0.97122   0.00000  Uiso   1.00
C1163  C     0.20807   0.51767   0.98097   0.00000  Uiso   1.00
C1164  C     0.12526   0.48233   0.68569   0.00000  Uiso   1.00
C1165  C     0.18197   0.37265   0.74884   0.00000  Uiso   1.00
H1166  H     0.21575   0.39421   0.74984   0.00000  Uiso   1.00
O1167  O     0.15420   0.36565   0.71260   0.00000  Uiso   1.00
C1168  C     0.15136   0.62735   0.91783   0.00000  Uiso   1.00
H1169  H     0.11758   0.60579   0.91683   0.00000  Uiso   1.00
O1170  O     0.17913   0.63435   0.95407   0.00000  Uiso   1.00
N1171  N     0.13472   0.62358   0.74947   0.00000  Uiso   1.00
O1172  O     0.08755   0.60629   0.74371   0.00000  Uiso   1.00
O1173  O     0.16543   0.61746   0.71914   0.00000  Uiso   1.00
N1174  N     0.19861   0.37642   0.91720   0.00000  Uiso   1.00
O1175  O     0.24579   0.39371   0.92296   0.00000  Uiso   1.00
O1176  O     0.16790   0.38254   0.94752   0.00000  Uiso   1.00
C1177  C     0.25301   0.53994   0.72371   0.00000  Uiso   1.00
H1178  H     0.29267   0.53424   0.71793   0.00000  Uiso   1.00
O1179  O     0.24672   0.56644   0.75153   0.00000  Uiso   1.00
C1180  C     0.08032   0.46006   0.94295   0.00000  Uiso   1.00
H1181  H     0.04066   0.46576   0.94874   0.00000  Uiso   1.00
O1182  O     0.08661   0.43356   0.91513   0.00000  Uiso   1.00
N1183  N     0.25190   0.53603   0.96259   0.00000  Uiso   1.00
O1184  O     0.29653   0.51821   0.96776   0.00000  Uiso   1.00
O1185  O     0.24858   0.57192   0.94344   0.00000  Uiso   1.00
N1186  N     0.08143   0.46397   0.70408   0.00000  Uiso   1.00
O1187  O     0.03680   0.48179   0.69890   0.00000  Uiso   1.00
O1188  O     0.08475   0.42809   0.72323   0.00000  Uiso   1.00
O1189  O     0.50000   0.43892   0.87154   0.00000  Uiso   1.00
O1190  O     0.50000   0.56108   0.79513   0.00000  Uiso   1.00
O1191  O     0.50000   0.43893   0.79510   0.00000  Uiso   1.00
O1192  O     0.50000   0.56107   0.87157   0.00000  Uiso   1.00
C1193  C     0.50495   0.42024   0.83356   0.00000  Uiso   1.00
C1194  C     0.49505   0.57976   0.83310   0.00000  Uiso   1.00
O1195  O     0.42392   0.50000   0.86261   0.00000  Uiso   1.00
O1196  O     0.57608   0.50000   0.80405   0.00000  Uiso   1.00
O1197  O     0.42392   0.50000   0.78617   0.00000  Uiso   1.00
O1198  O     0.57608   0.50000   0.88050   0.00000  Uiso   1.00
C1199  C     0.40051   0.49953   0.82153   0.00000  Uiso   1.00
C1200  C     0.59949   0.50047   0.84513   0.00000  Uiso   1.00
Zn1201 Zn    0.50000   0.49999   0.88437   0.00000  Uiso   1.00
Zn1202 Zn    0.50000   0.50001   0.78229   0.00000  Uiso   1.00
N1203  N     0.49999   0.49999   0.95240   0.00000  Uiso   1.00
N1204  N     0.50001   0.50001   0.71427   0.00000  Uiso   1.00
C1205  C     0.34546   0.49773   0.81530   0.00000  Uiso   1.00
C1206  C     0.65454   0.50227   0.85137   0.00000  Uiso   1.00
H1207  H     0.65834   0.49190   0.78122   0.00000  Uiso   1.00
H1208  H     0.34166   0.50810   0.88545   0.00000  Uiso   1.00
C1209  C     0.50313   0.35333   0.79164   0.00000  Uiso   1.00
C1210  C     0.49687   0.64667   0.87503   0.00000  Uiso   1.00
C1211  C     0.48775   0.64488   0.79158   0.00000  Uiso   1.00
C1212  C     0.51225   0.35512   0.87509   0.00000  Uiso   1.00
C1213  C     0.48965   0.62433   0.83326   0.00000  Uiso   1.00
C1214  C     0.51035   0.37567   0.83340   0.00000  Uiso   1.00
C1215  C     0.54127   0.51828   0.69544   0.00000  Uiso   1.00
C1216  C     0.45873   0.48172   0.97122   0.00000  Uiso   1.00
C1217  C     0.54140   0.51767   0.98097   0.00000  Uiso   1.00
C1218  C     0.45860   0.48233   0.68569   0.00000  Uiso   1.00
C1219  C     0.51530   0.37265   0.74884   0.00000  Uiso   1.00
H1220  H     0.54908   0.39421   0.74984   0.00000  Uiso   1.00
O1221  O     0.48753   0.36565   0.71260   0.00000  Uiso   1.00
C1222  C     0.48469   0.62735   0.91783   0.00000  Uiso   1.00
H1223  H     0.45091   0.60579   0.91683   0.00000  Uiso   1.00
O1224  O     0.51246   0.63435   0.95407   0.00000  Uiso   1.00
N1225  N     0.46805   0.62358   0.74947   0.00000  Uiso   1.00
O1226  O     0.42088   0.60629   0.74371   0.00000  Uiso   1.00
O1227  O     0.49877   0.61746   0.71914   0.00000  Uiso   1.00
N1228  N     0.53195   0.37642   0.91720   0.00000  Uiso   1.00
O1229  O     0.57912   0.39371   0.92296   0.00000  Uiso   1.00
O1230  O     0.50123   0.38254   0.94752   0.00000  Uiso   1.00
C1231  C     0.58634   0.53994   0.72371   0.00000  Uiso   1.00
H1232  H     0.62600   0.53424   0.71793   0.00000  Uiso   1.00
O1233  O     0.58005   0.56644   0.75153   0.00000  Uiso   1.00
C1234  C     0.41366   0.46006   0.94295   0.00000  Uiso   1.00
H1235  H     0.37400   0.46576   0.94874   0.00000  Uiso   1.00
O1236  O     0.41995   0.43356   0.91513   0.00000  Uiso   1.00
N1237  N     0.58523   0.53603   0.96259   0.00000  Uiso   1.00
O1238  O     0.62986   0.51821   0.96776   0.00000  Uiso   1.00
O1239  O     0.58191   0.57192   0.94344   0.00000  Uiso   1.00
N1240  N     0.41477   0.46397   0.70408   0.00000  Uiso   1.00
O1241  O     0.37014   0.48179   0.69890   0.00000  Uiso   1.00
O1242  O     0.41809   0.42809   0.72323   0.00000  Uiso   1.00
O1243  O     0.83333   0.43892   0.87154   0.00000  Uiso   1.00
O1244  O     0.83334   0.56108   0.79513   0.00000  Uiso   1.00
O1245  O     0.83333   0.43893   0.79510   0.00000  Uiso   1.00
O1246  O     0.83334   0.56107   0.87157   0.00000  Uiso   1.00
C1247  C     0.83828   0.42024   0.83356   0.00000  Uiso   1.00
C1248  C     0.82838   0.57976   0.83310   0.00000  Uiso   1.00
O1249  O     0.75725   0.50000   0.86261   0.00000  Uiso   1.00
O1250  O     0.90942   0.50000   0.80405   0.00000  Uiso   1.00
O1251  O     0.75725   0.50000   0.78617   0.00000  Uiso   1.00
O1252  O     0.90942   0.50000   0.88050   0.00000  Uiso   1.00
C1253  C     0.73384   0.49953   0.82153   0.00000  Uiso   1.00
C1254  C     0.93283   0.50047   0.84513   0.00000  Uiso   1.00
Zn1255 Zn    0.83333   0.49999   0.88437   0.00000  Uiso   1.00
Zn1256 Zn    0.83333   0.50001   0.78229   0.00000  Uiso   1.00
N1257  N     0.83332   0.49999   0.95240   0.00000  Uiso   1.00
N1258  N     0.83335   0.50001   0.71427   0.00000  Uiso   1.00
C1259  C     0.67879   0.49773   0.81530   0.00000  Uiso   1.00
C1260  C     0.98788   0.50227   0.85137   0.00000  Uiso   1.00
H1261  H     0.99167   0.49190   0.78122   0.00000  Uiso   1.00
H1262  H     0.67499   0.50810   0.88545   0.00000  Uiso   1.00
C1263  C     0.83647   0.35333   0.79164   0.00000  Uiso   1.00
C1264  C     0.83020   0.64667   0.87503   0.00000  Uiso   1.00
C1265  C     0.82108   0.64488   0.79158   0.00000  Uiso   1.00
C1266  C     0.84558   0.35512   0.87509   0.00000  Uiso   1.00
C1267  C     0.82298   0.62433   0.83326   0.00000  Uiso   1.00
C1268  C     0.84368   0.37567   0.83340   0.00000  Uiso   1.00
C1269  C     0.87461   0.51828   0.69544   0.00000  Uiso   1.00
C1270  C     0.79206   0.48172   0.97122   0.00000  Uiso   1.00
C1271  C     0.87474   0.51767   0.98097   0.00000  Uiso   1.00
C1272  C     0.79193   0.48233   0.68569   0.00000  Uiso   1.00
C1273  C     0.84864   0.37265   0.74884   0.00000  Uiso   1.00
H1274  H     0.88242   0.39421   0.74984   0.00000  Uiso   1.00
O1275  O     0.82087   0.36565   0.71260   0.00000  Uiso   1.00
C1276  C     0.81802   0.62735   0.91783   0.00000  Uiso   1.00
H1277  H     0.78425   0.60579   0.91683   0.00000  Uiso   1.00
O1278  O     0.84579   0.63435   0.95407   0.00000  Uiso   1.00
N1279  N     0.80139   0.62358   0.74947   0.00000  Uiso   1.00
O1280  O     0.75421   0.60629   0.74371   0.00000  Uiso   1.00
O1281  O     0.83210   0.61746   0.71914   0.00000  Uiso   1.00
N1282  N     0.86528   0.37642   0.91720   0.00000  Uiso   1.00
O1283  O     0.91245   0.39371   0.92296   0.00000  Uiso   1.00
O1284  O     0.83457   0.38254   0.94752   0.00000  Uiso   1.00
C1285  C     0.91968   0.53994   0.72371   0.00000  Uiso   1.00
H1286  H     0.95934   0.53424   0.71793   0.00000  Uiso   1.00
O1287  O     0.91339   0.56644   0.75153   0.00000  Uiso   1.00
C1288  C     0.74699   0.46006   0.94295   0.00000  Uiso   1.00
H1289  H     0.70733   0.46576   0.94874   0.00000  Uiso   1.00
O1290  O     0.75328   0.43356   0.91513   0.00000  Uiso   1.00
N1291  N     0.91857   0.53603   0.96259   0.00000  Uiso   1.00
O1292  O     0.96320   0.51821   0.96776   0.00000  Uiso   1.00
O1293  O     0.91525   0.57192   0.94344   0.00000  Uiso   1.00
N1294  N     0.74810   0.46397   0.70408   0.00000  Uiso   1.00
O1295  O     0.70347   0.48179   0.69890   0.00000  Uiso   1.00
O1296  O     0.75142   0.42809   0.72323   0.00000  Uiso   1.00
O1297  O     0.16666   0.77225   0.87154   0.00000  Uiso   1.00
O1298  O     0.16667   0.89442   0.79513   0.00000  Uiso   1.00
O1299  O     0.16666   0.77226   0.79510   0.00000  Uiso   1.00
O1300  O     0.16667   0.89441   0.87157   0.00000  Uiso   1.00
C1301  C     0.17162   0.75357   0.83356   0.00000  Uiso   1.00
C1302  C     0.16172   0.91310   0.83310   0.00000  Uiso   1.00
O1303  O     0.09058   0.83333   0.86261   0.00000  Uiso   1.00
O1304  O     0.24275   0.83334   0.80405   0.00000  Uiso   1.00
O1305  O     0.09058   0.83334   0.78617   0.00000  Uiso   1.00
O1306  O     0.24275   0.83333   0.88050   0.00000  Uiso   1.00
C1307  C     0.06717   0.83286   0.82153   0.00000  Uiso   1.00
C1308  C     0.26616   0.83380   0.84513   0.00000  Uiso   1.00
Zn1309 Zn    0.16667   0.83333   0.88437   0.00000  Uiso   1.00
Zn1310 Zn    0.16667   0.83334   0.78229   0.00000  Uiso   1.00
N1311  N     0.16665   0.83332   0.95240   0.00000  Uiso   1.00
N1312  N     0.16668   0.83334   0.71427   0.00000  Uiso   1.00
C1313  C     0.01213   0.83107   0.81530   0.00000  Uiso   1.00
C1314  C     0.32121   0.83560   0.85137   0.00000  Uiso   1.00
H1315  H     0.32501   0.82523   0.78122   0.00000  Uiso   1.00
H1316  H     0.00833   0.84144   0.88545   0.00000  Uiso   1.00
C1317  C     0.16980   0.68666   0.79164   0.00000  Uiso   1.00
C1318  C     0.16353   0.98000   0.87503   0.00000  Uiso   1.00
C1319  C     0.15442   0.97822   0.79158   0.00000  Uiso   1.00
C1320  C     0.17891   0.68845   0.87509   0.00000  Uiso   1.00
C1321  C     0.15632   0.95767   0.83326   0.00000  Uiso   1.00
C1322  C     0.17702   0.70900   0.83340   0.00000  Uiso   1.00
C1323  C     0.20794   0.85161   0.69544   0.00000  Uiso   1.00
C1324  C     0.12539   0.81506   0.97122   0.00000  Uiso   1.00
C1325  C     0.20807   0.85101   0.98097   0.00000  Uiso   1.00
C1326  C     0.12526   0.81566   0.68569   0.00000  Uiso   1.00
C1327  C     0.18197   0.70599   0.74884   0.00000  Uiso   1.00
H1328  H     0.21575   0.72754   0.74984   0.00000  Uiso   1.00
O1329  O     0.15420   0.69898   0.71260   0.00000  Uiso   1.00
C1330  C     0.15136   0.96068   0.91783   0.00000  Uiso   1.00
H1331  H     0.11758   0.93912   0.91683   0.00000  Uiso   1.00
O1332  O     0.17913   0.96769   0.95407   0.00000  Uiso   1.00
N1333  N     0.13472   0.95691   0.74947   0.00000  Uiso   1.00
O1334  O     0.08755   0.93963   0.74371   0.00000  Uiso   1.00
O1335  O     0.16543   0.95079   0.71914   0.00000  Uiso   1.00
N1336  N     0.19861   0.70975   0.91720   0.00000  Uiso   1.00
O1337  O     0.24579   0.72704   0.92296   0.00000  Uiso   1.00
O1338  O     0.16790   0.71587   0.94752   0.00000  Uiso   1.00
C1339  C     0.25301   0.87327   0.72371   0.00000  Uiso   1.00
H1340  H     0.29267   0.86757   0.71793   0.00000  Uiso   1.00
O1341  O     0.24672   0.89978   0.75153   0.00000  Uiso   1.00
C1342  C     0.08032   0.79340   0.94295   0.00000  Uiso   1.00
H1343  H     0.04066   0.79909   0.94874   0.00000  Uiso   1.00
O1344  O     0.08661   0.76689   0.91513   0.00000  Uiso   1.00
N1345  N     0.25190   0.86936   0.96259   0.00000  Uiso   1.00
O1346  O     0.29653   0.85155   0.96776   0.00000  Uiso   1.00
O1347  O     0.24858   0.90525   0.94344   0.00000  Uiso   1.00
N1348  N     0.08143   0.79730   0.70408   0.00000  Uiso   1.00
O1349  O     0.03680   0.81512   0.69890   0.00000  Uiso   1.00
O1350  O     0.08475   0.76142   0.72323   0.00000  Uiso   1.00
O1351  O     0.50000   0.77225   0.87154   0.00000  Uiso   1.00
O1352  O     0.50000   0.89442   0.79513   0.00000  Uiso   1.00
O1353  O     0.50000   0.77226   0.79510   0.00000  Uiso   1.00
O1354  O     0.50000   0.89441   0.87157   0.00000  Uiso   1.00
C1355  C     0.50495   0.75357   0.83356   0.00000  Uiso   1.00
C1356  C     0.49505   0.91310   0.83310   0.00000  Uiso   1.00
O1357  O     0.42392   0.83333   0.86261   0.00000  Uiso   1.00
O1358  O     0.57608   0.83334   0.80405   0.00000  Uiso   1.00
O1359  O     0.42392   0.83334   0.78617   0.00000  Uiso   1.00
O1360  O     0.57608   0.83333   0.88050   0.00000  Uiso   1.00
C1361  C     0.40051   0.83286   0.82153   0.00000  Uiso   1.00
C1362  C     0.59949   0.83380   0.84513   0.00000  Uiso   1.00
Zn1363 Zn    0.50000   0.83333   0.88437   0.00000  Uiso   1.00
Zn1364 Zn    0.50000   0.83334   0.78229   0.00000  Uiso   1.00
N1365  N     0.49999   0.83332   0.95240   0.00000  Uiso   1.00
N1366  N     0.50001   0.83334   0.71427   0.00000  Uiso   1.00
C1367  C     0.34546   0.83107   0.81530   0.00000  Uiso   1.00
C1368  C     0.65454   0.83560   0.85137   0.00000  Uiso   1.00
H1369  H     0.65834   0.82523   0.78122   0.00000  Uiso   1.00
H1370  H     0.34166   0.84144   0.88545   0.00000  Uiso   1.00
C1371  C     0.50313   0.68666   0.79164   0.00000  Uiso   1.00
C1372  C     0.49687   0.98000   0.87503   0.00000  Uiso   1.00
C1373  C     0.48775   0.97822   0.79158   0.00000  Uiso   1.00
C1374  C     0.51225   0.68845   0.87509   0.00000  Uiso   1.00
C1375  C     0.48965   0.95767   0.83326   0.00000  Uiso   1.00
C1376  C     0.51035   0.70900   0.83340   0.00000  Uiso   1.00
C1377  C     0.54127   0.85161   0.69544   0.00000  Uiso   1.00
C1378  C     0.45873   0.81506   0.97122   0.00000  Uiso   1.00
C1379  C     0.54140   0.85101   0.98097   0.00000  Uiso   1.00
C1380  C     0.45860   0.81566   0.68569   0.00000  Uiso   1.00
C1381  C     0.51530   0.70599   0.74884   0.00000  Uiso   1.00
H1382  H     0.54908   0.72754   0.74984   0.00000  Uiso   1.00
O1383  O     0.48753   0.69898   0.71260   0.00000  Uiso   1.00
C1384  C     0.48469   0.96068   0.91783   0.00000  Uiso   1.00
H1385  H     0.45091   0.93912   0.91683   0.00000  Uiso   1.00
O1386  O     0.51246   0.96769   0.95407   0.00000  Uiso   1.00
N1387  N     0.46805   0.95691   0.74947   0.00000  Uiso   1.00
O1388  O     0.42088   0.93963   0.74371   0.00000  Uiso   1.00
O1389  O     0.49877   0.95079   0.71914   0.00000  Uiso   1.00
N1390  N     0.53195   0.70975   0.91720   0.00000  Uiso   1.00
O1391  O     0.57912   0.72704   0.92296   0.00000  Uiso   1.00
O1392  O     0.50123   0.71587   0.94752   0.00000  Uiso   1.00
C1393  C     0.58634   0.87327   0.72371   0.00000  Uiso   1.00
H1394  H     0.62600   0.86757   0.71793   0.00000  Uiso   1.00
O1395  O     0.58005   0.89978   0.75153   0.00000  Uiso   1.00
C1396  C     0.41366   0.79340   0.94295   0.00000  Uiso   1.00
H1397  H     0.37400   0.79909   0.94874   0.00000  Uiso   1.00
O1398  O     0.41995   0.76689   0.91513   0.00000  Uiso   1.00
N1399  N     0.58523   0.86936   0.96259   0.00000  Uiso   1.00
O1400  O     0.62986   0.85155   0.96776   0.00000  Uiso   1.00
O1401  O     0.58191   0.90525   0.94344   0.00000  Uiso   1.00
N1402  N     0.41477   0.79730   0.70408   0.00000  Uiso   1.00
O1403  O     0.37014   0.81512   0.69890   0.00000  Uiso   1.00
O1404  O     0.41809   0.76142   0.72323   0.00000  Uiso   1.00
O1405  O     0.83333   0.77225   0.87154   0.00000  Uiso   1.00
O1406  O     0.83334   0.89442   0.79513   0.00000  Uiso   1.00
O1407  O     0.83333   0.77226   0.79510   0.00000  Uiso   1.00
O1408  O     0.83334   0.89441   0.87157   0.00000  Uiso   1.00
C1409  C     0.83828   0.75357   0.83356   0.00000  Uiso   1.00
C1410  C     0.82838   0.91310   0.83310   0.00000  Uiso   1.00
O1411  O     0.75725   0.83333   0.86261   0.00000  Uiso   1.00
O1412  O     0.90942   0.83334   0.80405   0.00000  Uiso   1.00
O1413  O     0.75725   0.83334   0.78617   0.00000  Uiso   1.00
O1414  O     0.90942   0.83333   0.88050   0.00000  Uiso   1.00
C1415  C     0.73384   0.83286   0.82153   0.00000  Uiso   1.00
C1416  C     0.93283   0.83380   0.84513   0.00000  Uiso   1.00
Zn1417 Zn    0.83333   0.83333   0.88437   0.00000  Uiso   1.00
Zn1418 Zn    0.83333   0.83334   0.78229   0.00000  Uiso   1.00
N1419  N     0.83332   0.83332   0.95240   0.00000  Uiso   1.00
N1420  N     0.83335   0.83334   0.71427   0.00000  Uiso   1.00
C1421  C     0.67879   0.83107   0.81530   0.00000  Uiso   1.00
C1422  C     0.98788   0.83560   0.85137   0.00000  Uiso   1.00
H1423  H     0.99167   0.82523   0.78122   0.00000  Uiso   1.00
H1424  H     0.67499   0.84144   0.88545   0.00000  Uiso   1.00
C1425  C     0.83647   0.68666   0.79164   0.00000  Uiso   1.00
C1426  C     0.83020   0.98000   0.87503   0.00000  Uiso   1.00
C1427  C     0.82108   0.97822   0.79158   0.00000  Uiso   1.00
C1428  C     0.84558   0.68845   0.87509   0.00000  Uiso   1.00
C1429  C     0.82298   0.95767   0.83326   0.00000  Uiso   1.00
C1430  C     0.84368   0.70900   0.83340   0.00000  Uiso   1.00
C1431  C     0.87461   0.85161   0.69544   0.00000  Uiso   1.00
C1432  C     0.79206   0.81506   0.97122   0.00000  Uiso   1.00
C1433  C     0.87474   0.85101   0.98097   0.00000  Uiso   1.00
C1434  C     0.79193   0.81566   0.68569   0.00000  Uiso   1.00
C1435  C     0.84864   0.70599   0.74884   0.00000  Uiso   1.00
H1436  H     0.88242   0.72754   0.74984   0.00000  Uiso   1.00
O1437  O     0.82087   0.69898   0.71260   0.00000  Uiso   1.00
C1438  C     0.81802   0.96068   0.91783   0.00000  Uiso   1.00
H1439  H     0.78425   0.93912   0.91683   0.00000  Uiso   1.00
O1440  O     0.84579   0.96769   0.95407   0.00000  Uiso   1.00
N1441  N     0.80139   0.95691   0.74947   0.00000  Uiso   1.00
O1442  O     0.75421   0.93963   0.74371   0.00000  Uiso   1.00
O1443  O     0.83210   0.95079   0.71914   0.00000  Uiso   1.00
N1444  N     0.86528   0.70975   0.91720   0.00000  Uiso   1.00
O1445  O     0.91245   0.72704   0.92296   0.00000  Uiso   1.00
O1446  O     0.83457   0.71587   0.94752   0.00000  Uiso   1.00
C1447  C     0.91968   0.87327   0.72371   0.00000  Uiso   1.00
H1448  H     0.95934   0.86757   0.71793   0.00000  Uiso   1.00
O1449  O     0.91339   0.89978   0.75153   0.00000  Uiso   1.00
C1450  C     0.74699   0.79340   0.94295   0.00000  Uiso   1.00
H1451  H     0.70733   0.79909   0.94874   0.00000  Uiso   1.00
O1452  O     0.75328   0.76689   0.91513   0.00000  Uiso   1.00
N1453  N     0.91857   0.86936   0.96259   0.00000  Uiso   1.00
O1454  O     0.96320   0.85155   0.96776   0.00000  Uiso   1.00
O1455  O     0.91525   0.90525   0.94344   0.00000  Uiso   1.00
N1456  N     0.74810   0.79730   0.70408   0.00000  Uiso   1.00
O1457  O     0.70347   0.81512   0.69890   0.00000  Uiso   1.00
O1458  O     0.75142   0.76142   0.72323   0.00000  Uiso   1.00
loop_
_geom_bond_atom_site_label_1
_geom_bond_atom_site_label_2
_geom_bond_distance
_geom_bond_site_symmetry_2
_ccdc_geom_bond_type
O1     C5      1.301   .     A
O1     Zn13    2.006   .     S
O2     C6      1.301   .     A
O2     Zn14    2.006   .     S
O3     C5      1.294   .     A
O3     Zn14    2.014   .     S
O4     C6      1.294   .     A
O4     Zn13    2.014   .     S
C5     C26     1.453   .     S
C6     C25     1.453   .     S
O7     C11     1.285   .     A
O7     Zn13    1.975   .     S
O8     C12     1.285   .     A
O8     Zn14    1.975   .     S
O9     Zn14    1.979   .     S
O9     C11     1.285   .     A
O10    C12     1.285   .     A
O10    Zn13    1.979   .     S
C11    C17     1.402   .     S
C12    C18     1.402   .     S
Zn13   N15     2.026   .     S
Zn14   N16     2.026   .     S
N15    C28     1.382   .     A
N15    C29     1.366   .     A
N16    C27     1.382   .     A
N16    C30     1.366   .     A
C17    C126    1.327   1_455 S
C17    H127    1.086   1_455 S
C18    C71     1.327   .     S
C18    H74     1.086   .     S
H19    C71     1.086   .     S
H20    C126    1.086   1_455 S
C21    C31     1.492   .     S
C21    C26     1.416   .     A
C21    C347    1.389   1_545 S
C22    C34     1.492   .     S
C22    C25     1.416   .     A
C22    C186    1.389   .     S
C23    C25     1.410   .     A
C23    N37     1.440   .     S
C23    C183    1.389   .     S
C24    C26     1.410   .     A
C24    N40     1.440   .     S
C24    C346    1.389   1_545 S
C27    C43     1.477   .     S
C27    C1001   1.424   1_554 S
C28    C46     1.477   .     S
C28    C516    1.424   .     S
C29    N49     1.430   .     S
C29    C513    1.424   .     S
C30    N52     1.430   .     S
C30    C1000   1.424   1_554 S
C31    O33     1.220   .     D
C31    H32     1.086   .     S
C34    O36     1.220   .     D
C34    H35     1.086   .     S
N37    O38     1.301   .     A
N37    O39     1.301   .     A
N40    O42     1.301   .     A
N40    O41     1.301   .     A
C43    H44     1.083   .     S
C43    O45     1.217   .     D
C46    O48     1.217   .     D
C46    H47     1.083   .     S
N49    O50     1.300   .     A
N49    O51     1.299   .     A
N52    O53     1.300   .     A
N52    O54     1.299   .     A
O55    C59     1.301   .     A
O55    Zn67    2.006   .     S
O56    C60     1.301   .     A
O56    Zn68    2.006   .     S
O57    C59     1.294   .     A
O57    Zn68    2.014   .     S
O58    C60     1.294   .     A
O58    Zn67    2.014   .     S
C59    C80     1.453   .     S
C60    C79     1.453   .     S
O61    C65     1.285   .     A
O61    Zn67    1.975   .     S
O62    C66     1.285   .     A
O62    Zn68    1.975   .     S
O63    Zn68    1.979   .     S
O63    C65     1.285   .     A
O64    C66     1.285   .     A
O64    Zn67    1.979   .     S
C65    C71     1.402   .     S
C66    C72     1.402   .     S
Zn67   N69     2.026   .     S
Zn68   N70     2.026   .     S
N69    C82     1.382   .     A
N69    C83     1.366   .     A
N70    C81     1.382   .     A
N70    C84     1.366   .     A
C72    C125    1.327   .     S
C72    H128    1.086   .     S
H73    C125    1.086   .     S
C75    C85     1.492   .     S
C75    C80     1.416   .     A
C75    C401    1.389   1_545 S
C76    C88     1.492   .     S
C76    C79     1.416   .     A
C76    C240    1.389   .     S
C77    C79     1.410   .     A
C77    N91     1.440   .     S
C77    C237    1.389   .     S
C78    C80     1.410   .     A
C78    N94     1.440   .     S
C78    C400    1.389   1_545 S
C81    C97     1.477   .     S
C81    C1055   1.424   1_554 S
C82    C100    1.477   .     S
C82    C570    1.424   .     S
C83    N103    1.430   .     S
C83    C567    1.424   .     S
C84    N106    1.430   .     S
C84    C1054   1.424   1_554 S
C85    O87     1.220   .     D
C85    H86     1.086   .     S
C88    O90     1.220   .     D
C88    H89     1.086   .     S
N91    O92     1.301   .     A
N91    O93     1.301   .     A
N94    O96     1.301   .     A
N94    O95     1.301   .     A
C97    H98     1.083   .     S
C97    O99     1.217   .     D
C100   O102    1.217   .     D
C100   H101    1.083   .     S
N103   O104    1.300   .     A
N103   O105    1.299   .     A
N106   O107    1.300   .     A
N106   O108    1.299   .     A
O109   C113    1.301   .     A
O109   Zn121   2.006   .     S
O110   C114    1.301   .     A
O110   Zn122   2.006   .     S
O111   C113    1.294   .     A
O111   Zn122   2.014   .     S
O112   C114    1.294   .     A
O112   Zn121   2.014   .     S
C113   C134    1.453   .     S
C114   C133    1.453   .     S
O115   C119    1.285   .     A
O115   Zn121   1.975   .     S
O116   C120    1.285   .     A
O116   Zn122   1.975   .     S
O117   Zn122   1.979   .     S
O117   C119    1.285   .     A
O118   C120    1.285   .     A
O118   Zn121   1.979   .     S
C119   C125    1.402   .     S
C120   C126    1.402   .     S
Zn121  N123    2.026   .     S
Zn122  N124    2.026   .     S
N123   C136    1.382   .     A
N123   C137    1.366   .     A
N124   C135    1.382   .     A
N124   C138    1.366   .     A
C126   C17     1.327   1_655 S
C126   H20     1.086   1_655 S
H127   C17     1.086   1_655 S
C129   C139    1.492   .     S
C129   C134    1.416   .     A
C129   C455    1.389   1_545 S
C130   C142    1.492   .     S
C130   C133    1.416   .     A
C130   C294    1.389   .     S
C131   C133    1.410   .     A
C131   N145    1.440   .     S
C131   C291    1.389   .     S
C132   C134    1.410   .     A
C132   N148    1.440   .     S
C132   C454    1.389   1_545 S
C135   C151    1.477   .     S
C135   C1109   1.424   1_554 S
C136   C154    1.477   .     S
C136   C624    1.424   .     S
C137   N157    1.430   .     S
C137   C621    1.424   .     S
C138   N160    1.430   .     S
C138   C1108   1.424   1_554 S
C139   O141    1.220   .     D
C139   H140    1.086   .     S
C142   O144    1.220   .     D
C142   H143    1.086   .     S
N145   O146    1.301   .     A
N145   O147    1.301   .     A
N148   O150    1.301   .     A
N148   O149    1.301   .     A
C151   H152    1.083   .     S
C151   O153    1.217   .     D
C154   O156    1.217   .     D
C154   H155    1.083   .     S
N157   O158    1.300   .     A
N157   O159    1.299   .     A
N160   O161    1.300   .     A
N160   O162    1.299   .     A
O163   C167    1.301   .     A
O163   Zn175   2.006   .     S
O164   C168    1.301   .     A
O164   Zn176   2.006   .     S
O165   C167    1.294   .     A
O165   Zn176   2.014   .     S
O166   C168    1.294   .     A
O166   Zn175   2.014   .     S
C167   C188    1.453   .     S
C168   C187    1.453   .     S
O169   C173    1.285   .     A
O169   Zn175   1.975   .     S
O170   C174    1.285   .     A
O170   Zn176   1.975   .     S
O171   Zn176   1.979   .     S
O171   C173    1.285   .     A
O172   C174    1.285   .     A
O172   Zn175   1.979   .     S
C173   C179    1.402   .     S
C174   C180    1.402   .     S
Zn175  N177    2.026   .     S
Zn176  N178    2.026   .     S
N177   C190    1.382   .     A
N177   C191    1.366   .     A
N178   C189    1.382   .     A
N178   C192    1.366   .     A
C179   C288    1.327   1_455 S
C179   H289    1.086   1_455 S
C180   C233    1.327   .     S
C180   H236    1.086   .     S
H181   C233    1.086   .     S
H182   C288    1.086   1_455 S
C183   C193    1.492   .     S
C183   C188    1.416   .     A
C184   C196    1.492   .     S
C184   C187    1.416   .     A
C184   C348    1.389   .     S
C185   C187    1.410   .     A
C185   N199    1.440   .     S
C185   C345    1.389   .     S
C186   C188    1.410   .     A
C186   N202    1.440   .     S
C189   C205    1.477   .     S
C189   C1163   1.424   1_554 S
C190   C208    1.477   .     S
C190   C678    1.424   .     S
C191   N211    1.430   .     S
C191   C675    1.424   .     S
C192   N214    1.430   .     S
C192   C1162   1.424   1_554 S
C193   O195    1.220   .     D
C193   H194    1.086   .     S
C196   O198    1.220   .     D
C196   H197    1.086   .     S
N199   O200    1.301   .     A
N199   O201    1.301   .     A
N202   O204    1.301   .     A
N202   O203    1.301   .     A
C205   H206    1.083   .     S
C205   O207    1.217   .     D
C208   O210    1.217   .     D
C208   H209    1.083   .     S
N211   O212    1.300   .     A
N211   O213    1.299   .     A
N214   O215    1.300   .     A
N214   O216    1.299   .     A
O217   C221    1.301   .     A
O217   Zn229   2.006   .     S
O218   C222    1.301   .     A
O218   Zn230   2.006   .     S
O219   C221    1.294   .     A
O219   Zn230   2.014   .     S
O220   C222    1.294   .     A
O220   Zn229   2.014   .     S
C221   C242    1.453   .     S
C222   C241    1.453   .     S
O223   C227    1.285   .     A
O223   Zn229   1.975   .     S
O224   C228    1.285   .     A
O224   Zn230   1.975   .     S
O225   Zn230   1.979   .     S
O225   C227    1.285   .     A
O226   C228    1.285   .     A
O226   Zn229   1.979   .     S
C227   C233    1.402   .     S
C228   C234    1.402   .     S
Zn229  N231    2.026   .     S
Zn230  N232    2.026   .     S
N231   C244    1.382   .     A
N231   C245    1.366   .     A
N232   C243    1.382   .     A
N232   C246    1.366   .     A
C234   C287    1.327   .     S
C234   H290    1.086   .     S
H235   C287    1.086   .     S
C237   C247    1.492   .     S
C237   C242    1.416   .     A
C238   C250    1.492   .     S
C238   C241    1.416   .     A
C238   C402    1.389   .     S
C239   C241    1.410   .     A
C239   N253    1.440   .     S
C239   C399    1.389   .     S
C240   C242    1.410   .     A
C240   N256    1.440   .     S
C243   C259    1.477   .     S
C243   C1217   1.424   1_554 S
C244   C262    1.477   .     S
C244   C732    1.424   .     S
C245   N265    1.430   .     S
C245   C729    1.424   .     S
C246   N268    1.430   .     S
C246   C1216   1.424   1_554 S
C247   O249    1.220   .     D
C247   H248    1.086   .     S
C250   O252    1.220   .     D
C250   H251    1.086   .     S
N253   O254    1.301   .     A
N253   O255    1.301   .     A
N256   O258    1.301   .     A
N256   O257    1.301   .     A
C259   H260    1.083   .     S
C259   O261    1.217   .     D
C262   O264    1.217   .     D
C262   H263    1.083   .     S
N265   O266    1.300   .     A
N265   O267    1.299   .     A
N268   O269    1.300   .     A
N268   O270    1.299   .     A
O271   C275    1.301   .     A
O271   Zn283   2.006   .     S
O272   C276    1.301   .     A
O272   Zn284   2.006   .     S
O273   C275    1.294   .     A
O273   Zn284   2.014   .     S
O274   C276    1.294   .     A
O274   Zn283   2.014   .     S
C275   C296    1.453   .     S
C276   C295    1.453   .     S
O277   C281    1.285   .     A
O277   Zn283   1.975   .     S
O278   C282    1.285   .     A
O278   Zn284   1.975   .     S
O279   Zn284   1.979   .     S
O279   C281    1.285   .     A
O280   C282    1.285   .     A
O280   Zn283   1.979   .     S
C281   C287    1.402   .     S
C282   C288    1.402   .     S
Zn283  N285    2.026   .     S
Zn284  N286    2.026   .     S
N285   C298    1.382   .     A
N285   C299    1.366   .     A
N286   C297    1.382   .     A
N286   C300    1.366   .     A
C288   C179    1.327   1_655 S
C288   H182    1.086   1_655 S
H289   C179    1.086   1_655 S
C291   C301    1.492   .     S
C291   C296    1.416   .     A
C292   C304    1.492   .     S
C292   C295    1.416   .     A
C292   C456    1.389   .     S
C293   C295    1.410   .     A
C293   N307    1.440   .     S
C293   C453    1.389   .     S
C294   C296    1.410   .     A
C294   N310    1.440   .     S
C297   C313    1.477   .     S
C297   C1271   1.424   1_554 S
C298   C316    1.477   .     S
C298   C786    1.424   .     S
C299   N319    1.430   .     S
C299   C783    1.424   .     S
C300   N322    1.430   .     S
C300   C1270   1.424   1_554 S
C301   O303    1.220   .     D
C301   H302    1.086   .     S
C304   O306    1.220   .     D
C304   H305    1.086   .     S
N307   O308    1.301   .     A
N307   O309    1.301   .     A
N310   O312    1.301   .     A
N310   O311    1.301   .     A
C313   H314    1.083   .     S
C313   O315    1.217   .     D
C316   O318    1.217   .     D
C316   H317    1.083   .     S
N319   O320    1.300   .     A
N319   O321    1.299   .     A
N322   O323    1.300   .     A
N322   O324    1.299   .     A
O325   C329    1.301   .     A
O325   Zn337   2.006   .     S
O326   C330    1.301   .     A
O326   Zn338   2.006   .     S
O327   C329    1.294   .     A
O327   Zn338   2.014   .     S
O328   C330    1.294   .     A
O328   Zn337   2.014   .     S
C329   C350    1.453   .     S
C330   C349    1.453   .     S
O331   C335    1.285   .     A
O331   Zn337   1.975   .     S
O332   C336    1.285   .     A
O332   Zn338   1.975   .     S
O333   Zn338   1.979   .     S
O333   C335    1.285   .     A
O334   C336    1.285   .     A
O334   Zn337   1.979   .     S
C335   C341    1.402   .     S
C336   C342    1.402   .     S
Zn337  N339    2.026   .     S
Zn338  N340    2.026   .     S
N339   C352    1.382   .     A
N339   C353    1.366   .     A
N340   C351    1.382   .     A
N340   C354    1.366   .     A
C341   C450    1.327   1_455 S
C341   H451    1.086   1_455 S
C342   C395    1.327   .     S
C342   H398    1.086   .     S
H343   C395    1.086   .     S
H344   C450    1.086   1_455 S
C345   C355    1.492   .     S
C345   C350    1.416   .     A
C346   C358    1.492   .     S
C346   C349    1.416   .     A
C346   C24     1.389   1_565 S
C347   C349    1.410   .     A
C347   N361    1.440   .     S
C347   C21     1.389   1_565 S
C348   C350    1.410   .     A
C348   N364    1.440   .     S
C351   C367    1.477   .     S
C351   C1325   1.424   1_554 S
C352   C370    1.477   .     S
C352   C840    1.424   .     S
C353   N373    1.430   .     S
C353   C837    1.424   .     S
C354   N376    1.430   .     S
C354   C1324   1.424   1_554 S
C355   O357    1.220   .     D
C355   H356    1.086   .     S
C358   O360    1.220   .     D
C358   H359    1.086   .     S
N361   O362    1.301   .     A
N361   O363    1.301   .     A
N364   O366    1.301   .     A
N364   O365    1.301   .     A
C367   H368    1.083   .     S
C367   O369    1.217   .     D
C370   O372    1.217   .     D
C370   H371    1.083   .     S
N373   O374    1.300   .     A
N373   O375    1.299   .     A
N376   O377    1.300   .     A
N376   O378    1.299   .     A
O379   C383    1.301   .     A
O379   Zn391   2.006   .     S
O380   C384    1.301   .     A
O380   Zn392   2.006   .     S
O381   C383    1.294   .     A
O381   Zn392   2.014   .     S
O382   C384    1.294   .     A
O382   Zn391   2.014   .     S
C383   C404    1.453   .     S
C384   C403    1.453   .     S
O385   C389    1.285   .     A
O385   Zn391   1.975   .     S
O386   C390    1.285   .     A
O386   Zn392   1.975   .     S
O387   Zn392   1.979   .     S
O387   C389    1.285   .     A
O388   C390    1.285   .     A
O388   Zn391   1.979   .     S
C389   C395    1.402   .     S
C390   C396    1.402   .     S
Zn391  N393    2.026   .     S
Zn392  N394    2.026   .     S
N393   C406    1.382   .     A
N393   C407    1.366   .     A
N394   C405    1.382   .     A
N394   C408    1.366   .     A
C396   C449    1.327   .     S
C396   H452    1.086   .     S
H397   C449    1.086   .     S
C399   C409    1.492   .     S
C399   C404    1.416   .     A
C400   C412    1.492   .     S
C400   C403    1.416   .     A
C400   C78     1.389   1_565 S
C401   C403    1.410   .     A
C401   N415    1.440   .     S
C401   C75     1.389   1_565 S
C402   C404    1.410   .     A
C402   N418    1.440   .     S
C405   C421    1.477   .     S
C405   C1379   1.424   1_554 S
C406   C424    1.477   .     S
C406   C894    1.424   .     S
C407   N427    1.430   .     S
C407   C891    1.424   .     S
C408   N430    1.430   .     S
C408   C1378   1.424   1_554 S
C409   O411    1.220   .     D
C409   H410    1.086   .     S
C412   O414    1.220   .     D
C412   H413    1.086   .     S
N415   O416    1.301   .     A
N415   O417    1.301   .     A
N418   O420    1.301   .     A
N418   O419    1.301   .     A
C421   H422    1.083   .     S
C421   O423    1.217   .     D
C424   O426    1.217   .     D
C424   H425    1.083   .     S
N427   O428    1.300   .     A
N427   O429    1.299   .     A
N430   O431    1.300   .     A
N430   O432    1.299   .     A
O433   C437    1.301   .     A
O433   Zn445   2.006   .     S
O434   C438    1.301   .     A
O434   Zn446   2.006   .     S
O435   C437    1.294   .     A
O435   Zn446   2.014   .     S
O436   C438    1.294   .     A
O436   Zn445   2.014   .     S
C437   C458    1.453   .     S
C438   C457    1.453   .     S
O439   C443    1.285   .     A
O439   Zn445   1.975   .     S
O440   C444    1.285   .     A
O440   Zn446   1.975   .     S
O441   Zn446   1.979   .     S
O441   C443    1.285   .     A
O442   C444    1.285   .     A
O442   Zn445   1.979   .     S
C443   C449    1.402   .     S
C444   C450    1.402   .     S
Zn445  N447    2.026   .     S
Zn446  N448    2.026   .     S
N447   C460    1.382   .     A
N447   C461    1.366   .     A
N448   C459    1.382   .     A
N448   C462    1.366   .     A
C450   C341    1.327   1_655 S
C450   H344    1.086   1_655 S
H451   C341    1.086   1_655 S
C453   C463    1.492   .     S
C453   C458    1.416   .     A
C454   C466    1.492   .     S
C454   C457    1.416   .     A
C454   C132    1.389   1_565 S
C455   C457    1.410   .     A
C455   N469    1.440   .     S
C455   C129    1.389   1_565 S
C456   C458    1.410   .     A
C456   N472    1.440   .     S
C459   C475    1.477   .     S
C459   C1433   1.424   1_554 S
C460   C478    1.477   .     S
C460   C948    1.424   .     S
C461   N481    1.430   .     S
C461   C945    1.424   .     S
C462   N484    1.430   .     S
C462   C1432   1.424   1_554 S
C463   O465    1.220   .     D
C463   H464    1.086   .     S
C466   O468    1.220   .     D
C466   H467    1.086   .     S
N469   O470    1.301   .     A
N469   O471    1.301   .     A
N472   O474    1.301   .     A
N472   O473    1.301   .     A
C475   H476    1.083   .     S
C475   O477    1.217   .     D
C478   O480    1.217   .     D
C478   H479    1.083   .     S
N481   O482    1.300   .     A
N481   O483    1.299   .     A
N484   O485    1.300   .     A
N484   O486    1.299   .     A
O487   C491    1.301   .     A
O487   Zn499   2.006   .     S
O488   C492    1.301   .     A
O488   Zn500   2.006   .     S
O489   C491    1.294   .     A
O489   Zn500   2.014   .     S
O490   C492    1.294   .     A
O490   Zn499   2.014   .     S
C491   C512    1.453   .     S
C492   C511    1.453   .     S
O493   C497    1.285   .     A
O493   Zn499   1.975   .     S
O494   C498    1.285   .     A
O494   Zn500   1.975   .     S
O495   Zn500   1.979   .     S
O495   C497    1.285   .     A
O496   C498    1.285   .     A
O496   Zn499   1.979   .     S
C497   C503    1.402   .     S
C498   C504    1.402   .     S
Zn499  N501    2.026   .     S
Zn500  N502    2.026   .     S
N501   C514    1.382   .     A
N501   C515    1.366   .     A
N502   C513    1.382   .     A
N502   C516    1.366   .     A
C503   C612    1.327   1_455 S
C503   H613    1.086   1_455 S
C504   C557    1.327   .     S
C504   H560    1.086   .     S
H505   C557    1.086   .     S
H506   C612    1.086   1_455 S
C507   C517    1.492   .     S
C507   C512    1.416   .     A
C507   C833    1.389   1_545 S
C508   C520    1.492   .     S
C508   C511    1.416   .     A
C508   C672    1.389   .     S
C509   C511    1.410   .     A
C509   N523    1.440   .     S
C509   C669    1.389   .     S
C510   C512    1.410   .     A
C510   N526    1.440   .     S
C510   C832    1.389   1_545 S
C513   C529    1.477   .     S
C514   C532    1.477   .     S
C514   C1002   1.424   .     S
C515   N535    1.430   .     S
C515   C999    1.424   .     S
C516   N538    1.430   .     S
C517   O519    1.220   .     D
C517   H518    1.086   .     S
C520   O522    1.220   .     D
C520   H521    1.086   .     S
N523   O524    1.301   .     A
N523   O525    1.301   .     A
N526   O528    1.301   .     A
N526   O527    1.301   .     A
C529   H530    1.083   .     S
C529   O531    1.217   .     D
C532   O534    1.217   .     D
C532   H533    1.083   .     S
N535   O536    1.300   .     A
N535   O537    1.299   .     A
N538   O539    1.300   .     A
N538   O540    1.299   .     A
O541   C545    1.301   .     A
O541   Zn553   2.006   .     S
O542   C546    1.301   .     A
O542   Zn554   2.006   .     S
O543   C545    1.294   .     A
O543   Zn554   2.014   .     S
O544   C546    1.294   .     A
O544   Zn553   2.014   .     S
C545   C566    1.453   .     S
C546   C565    1.453   .     S
O547   C551    1.285   .     A
O547   Zn553   1.975   .     S
O548   C552    1.285   .     A
O548   Zn554   1.975   .     S
O549   Zn554   1.979   .     S
O549   C551    1.285   .     A
O550   C552    1.285   .     A
O550   Zn553   1.979   .     S
C551   C557    1.402   .     S
C552   C558    1.402   .     S
Zn553  N555    2.026   .     S
Zn554  N556    2.026   .     S
N555   C568    1.382   .     A
N555   C569    1.366   .     A
N556   C567    1.382   .     A
N556   C570    1.366   .     A
C558   C611    1.327   .     S
C558   H614    1.086   .     S
H559   C611    1.086   .     S
C561   C571    1.492   .     S
C561   C566    1.416   .     A
C561   C887    1.389   1_545 S
C562   C574    1.492   .     S
C562   C565    1.416   .     A
C562   C726    1.389   .     S
C563   C565    1.410   .     A
C563   N577    1.440   .     S
C563   C723    1.389   .     S
C564   C566    1.410   .     A
C564   N580    1.440   .     S
C564   C886    1.389   1_545 S
C567   C583    1.477   .     S
C568   C586    1.477   .     S
C568   C1056   1.424   .     S
C569   N589    1.430   .     S
C569   C1053   1.424   .     S
C570   N592    1.430   .     S
C571   O573    1.220   .     D
C571   H572    1.086   .     S
C574   O576    1.220   .     D
C574   H575    1.086   .     S
N577   O578    1.301   .     A
N577   O579    1.301   .     A
N580   O582    1.301   .     A
N580   O581    1.301   .     A
C583   H584    1.083   .     S
C583   O585    1.217   .     D
C586   O588    1.217   .     D
C586   H587    1.083   .     S
N589   O590    1.300   .     A
N589   O591    1.299   .     A
N592   O593    1.300   .     A
N592   O594    1.299   .     A
O595   C599    1.301   .     A
O595   Zn607   2.006   .     S
O596   C600    1.301   .     A
O596   Zn608   2.006   .     S
O597   C599    1.294   .     A
O597   Zn608   2.014   .     S
O598   C600    1.294   .     A
O598   Zn607   2.014   .     S
C599   C620    1.453   .     S
C600   C619    1.453   .     S
O601   C605    1.285   .     A
O601   Zn607   1.975   .     S
O602   C606    1.285   .     A
O602   Zn608   1.975   .     S
O603   Zn608   1.979   .     S
O603   C605    1.285   .     A
O604   C606    1.285   .     A
O604   Zn607   1.979   .     S
C605   C611    1.402   .     S
C606   C612    1.402   .     S
Zn607  N609    2.026   .     S
Zn608  N610    2.026   .     S
N609   C622    1.382   .     A
N609   C623    1.366   .     A
N610   C621    1.382   .     A
N610   C624    1.366   .     A
C612   C503    1.327   1_655 S
C612   H506    1.086   1_655 S
H613   C503    1.086   1_655 S
C615   C625    1.492   .     S
C615   C620    1.416   .     A
C615   C941    1.389   1_545 S
C616   C628    1.492   .     S
C616   C619    1.416   .     A
C616   C780    1.389   .     S
C617   C619    1.410   .     A
C617   N631    1.440   .     S
C617   C777    1.389   .     S
C618   C620    1.410   .     A
C618   N634    1.440   .     S
C618   C940    1.389   1_545 S
C621   C637    1.477   .     S
C622   C640    1.477   .     S
C622   C1110   1.424   .     S
C623   N643    1.430   .     S
C623   C1107   1.424   .     S
C624   N646    1.430   .     S
C625   O627    1.220   .     D
C625   H626    1.086   .     S
C628   O630    1.220   .     D
C628   H629    1.086   .     S
N631   O632    1.301   .     A
N631   O633    1.301   .     A
N634   O636    1.301   .     A
N634   O635    1.301   .     A
C637   H638    1.083   .     S
C637   O639    1.217   .     D
C640   O642    1.217   .     D
C640   H641    1.083   .     S
N643   O644    1.300   .     A
N643   O645    1.299   .     A
N646   O647    1.300   .     A
N646   O648    1.299   .     A
O649   C653    1.301   .     A
O649   Zn661   2.006   .     S
O650   C654    1.301   .     A
O650   Zn662   2.006   .     S
O651   C653    1.294   .     A
O651   Zn662   2.014   .     S
O652   C654    1.294   .     A
O652   Zn661   2.014   .     S
C653   C674    1.453   .     S
C654   C673    1.453   .     S
O655   C659    1.285   .     A
O655   Zn661   1.975   .     S
O656   C660    1.285   .     A
O656   Zn662   1.975   .     S
O657   Zn662   1.979   .     S
O657   C659    1.285   .     A
O658   C660    1.285   .     A
O658   Zn661   1.979   .     S
C659   C665    1.402   .     S
C660   C666    1.402   .     S
Zn661  N663    2.026   .     S
Zn662  N664    2.026   .     S
N663   C676    1.382   .     A
N663   C677    1.366   .     A
N664   C675    1.382   .     A
N664   C678    1.366   .     A
C665   C774    1.327   1_455 S
C665   H775    1.086   1_455 S
C666   C719    1.327   .     S
C666   H722    1.086   .     S
H667   C719    1.086   .     S
H668   C774    1.086   1_455 S
C669   C679    1.492   .     S
C669   C674    1.416   .     A
C670   C682    1.492   .     S
C670   C673    1.416   .     A
C670   C834    1.389   .     S
C671   C673    1.410   .     A
C671   N685    1.440   .     S
C671   C831    1.389   .     S
C672   C674    1.410   .     A
C672   N688    1.440   .     S
C675   C691    1.477   .     S
C676   C694    1.477   .     S
C676   C1164   1.424   .     S
C677   N697    1.430   .     S
C677   C1161   1.424   .     S
C678   N700    1.430   .     S
C679   O681    1.220   .     D
C679   H680    1.086   .     S
C682   O684    1.220   .     D
C682   H683    1.086   .     S
N685   O686    1.301   .     A
N685   O687    1.301   .     A
N688   O690    1.301   .     A
N688   O689    1.301   .     A
C691   H692    1.083   .     S
C691   O693    1.217   .     D
C694   O696    1.217   .     D
C694   H695    1.083   .     S
N697   O698    1.300   .     A
N697   O699    1.299   .     A
N700   O701    1.300   .     A
N700   O702    1.299   .     A
O703   C707    1.301   .     A
O703   Zn715   2.006   .     S
O704   C708    1.301   .     A
O704   Zn716   2.006   .     S
O705   C707    1.294   .     A
O705   Zn716   2.014   .     S
O706   C708    1.294   .     A
O706   Zn715   2.014   .     S
C707   C728    1.453   .     S
C708   C727    1.453   .     S
O709   C713    1.285   .     A
O709   Zn715   1.975   .     S
O710   C714    1.285   .     A
O710   Zn716   1.975   .     S
O711   Zn716   1.979   .     S
O711   C713    1.285   .     A
O712   C714    1.285   .     A
O712   Zn715   1.979   .     S
C713   C719    1.402   .     S
C714   C720    1.402   .     S
Zn715  N717    2.026   .     S
Zn716  N718    2.026   .     S
N717   C730    1.382   .     A
N717   C731    1.366   .     A
N718   C729    1.382   .     A
N718   C732    1.366   .     A
C720   C773    1.327   .     S
C720   H776    1.086   .     S
H721   C773    1.086   .     S
C723   C733    1.492   .     S
C723   C728    1.416   .     A
C724   C736    1.492   .     S
C724   C727    1.416   .     A
C724   C888    1.389   .     S
C725   C727    1.410   .     A
C725   N739    1.440   .     S
C725   C885    1.389   .     S
C726   C728    1.410   .     A
C726   N742    1.440   .     S
C729   C745    1.477   .     S
C730   C748    1.477   .     S
C730   C1218   1.424   .     S
C731   N751    1.430   .     S
C731   C1215   1.424   .     S
C732   N754    1.430   .     S
C733   O735    1.220   .     D
C733   H734    1.086   .     S
C736   O738    1.220   .     D
C736   H737    1.086   .     S
N739   O740    1.301   .     A
N739   O741    1.301   .     A
N742   O744    1.301   .     A
N742   O743    1.301   .     A
C745   H746    1.083   .     S
C745   O747    1.217   .     D
C748   O750    1.217   .     D
C748   H749    1.083   .     S
N751   O752    1.300   .     A
N751   O753    1.299   .     A
N754   O755    1.300   .     A
N754   O756    1.299   .     A
O757   C761    1.301   .     A
O757   Zn769   2.006   .     S
O758   C762    1.301   .     A
O758   Zn770   2.006   .     S
O759   C761    1.294   .     A
O759   Zn770   2.014   .     S
O760   C762    1.294   .     A
O760   Zn769   2.014   .     S
C761   C782    1.453   .     S
C762   C781    1.453   .     S
O763   C767    1.285   .     A
O763   Zn769   1.975   .     S
O764   C768    1.285   .     A
O764   Zn770   1.975   .     S
O765   Zn770   1.979   .     S
O765   C767    1.285   .     A
O766   C768    1.285   .     A
O766   Zn769   1.979   .     S
C767   C773    1.402   .     S
C768   C774    1.402   .     S
Zn769  N771    2.026   .     S
Zn770  N772    2.026   .     S
N771   C784    1.382   .     A
N771   C785    1.366   .     A
N772   C783    1.382   .     A
N772   C786    1.366   .     A
C774   C665    1.327   1_655 S
C774   H668    1.086   1_655 S
H775   C665    1.086   1_655 S
C777   C787    1.492   .     S
C777   C782    1.416   .     A
C778   C790    1.492   .     S
C778   C781    1.416   .     A
C778   C942    1.389   .     S
C779   C781    1.410   .     A
C779   N793    1.440   .     S
C779   C939    1.389   .     S
C780   C782    1.410   .     A
C780   N796    1.440   .     S
C783   C799    1.477   .     S
C784   C802    1.477   .     S
C784   C1272   1.424   .     S
C785   N805    1.430   .     S
C785   C1269   1.424   .     S
C786   N808    1.430   .     S
C787   O789    1.220   .     D
C787   H788    1.086   .     S
C790   O792    1.220   .     D
C790   H791    1.086   .     S
N793   O794    1.301   .     A
N793   O795    1.301   .     A
N796   O798    1.301   .     A
N796   O797    1.301   .     A
C799   H800    1.083   .     S
C799   O801    1.217   .     D
C802   O804    1.217   .     D
C802   H803    1.083   .     S
N805   O806    1.300   .     A
N805   O807    1.299   .     A
N808   O809    1.300   .     A
N808   O810    1.299   .     A
O811   C815    1.301   .     A
O811   Zn823   2.006   .     S
O812   C816    1.301   .     A
O812   Zn824   2.006   .     S
O813   C815    1.294   .     A
O813   Zn824   2.014   .     S
O814   C816    1.294   .     A
O814   Zn823   2.014   .     S
C815   C836    1.453   .     S
C816   C835    1.453   .     S
O817   C821    1.285   .     A
O817   Zn823   1.975   .     S
O818   C822    1.285   .     A
O818   Zn824   1.975   .     S
O819   Zn824   1.979   .     S
O819   C821    1.285   .     A
O820   C822    1.285   .     A
O820   Zn823   1.979   .     S
C821   C827    1.402   .     S
C822   C828    1.402   .     S
Zn823  N825    2.026   .     S
Zn824  N826    2.026   .     S
N825   C838    1.382   .     A
N825   C839    1.366   .     A
N826   C837    1.382   .     A
N826   C840    1.366   .     A
C827   C936    1.327   1_455 S
C827   H937    1.086   1_455 S
C828   C881    1.327   .     S
C828   H884    1.086   .     S
H829   C881    1.086   .     S
H830   C936    1.086   1_455 S
C831   C841    1.492   .     S
C831   C836    1.416   .     A
C832   C844    1.492   .     S
C832   C835    1.416   .     A
C832   C510    1.389   1_565 S
C833   C835    1.410   .     A
C833   N847    1.440   .     S
C833   C507    1.389   1_565 S
C834   C836    1.410   .     A
C834   N850    1.440   .     S
C837   C853    1.477   .     S
C838   C856    1.477   .     S
C838   C1326   1.424   .     S
C839   N859    1.430   .     S
C839   C1323   1.424   .     S
C840   N862    1.430   .     S
C841   O843    1.220   .     D
C841   H842    1.086   .     S
C844   O846    1.220   .     D
C844   H845    1.086   .     S
N847   O848    1.301   .     A
N847   O849    1.301   .     A
N850   O852    1.301   .     A
N850   O851    1.301   .     A
C853   H854    1.083   .     S
C853   O855    1.217   .     D
C856   O858    1.217   .     D
C856   H857    1.083   .     S
N859   O860    1.300   .     A
N859   O861    1.299   .     A
N862   O863    1.300   .     A
N862   O864    1.299   .     A
O865   C869    1.301   .     A
O865   Zn877   2.006   .     S
O866   C870    1.301   .     A
O866   Zn878   2.006   .     S
O867   C869    1.294   .     A
O867   Zn878   2.014   .     S
O868   C870    1.294   .     A
O868   Zn877   2.014   .     S
C869   C890    1.453   .     S
C870   C889    1.453   .     S
O871   C875    1.285   .     A
O871   Zn877   1.975   .     S
O872   C876    1.285   .     A
O872   Zn878   1.975   .     S
O873   Zn878   1.979   .     S
O873   C875    1.285   .     A
O874   C876    1.285   .     A
O874   Zn877   1.979   .     S
C875   C881    1.402   .     S
C876   C882    1.402   .     S
Zn877  N879    2.026   .     S
Zn878  N880    2.026   .     S
N879   C892    1.382   .     A
N879   C893    1.366   .     A
N880   C891    1.382   .     A
N880   C894    1.366   .     A
C882   C935    1.327   .     S
C882   H938    1.086   .     S
H883   C935    1.086   .     S
C885   C895    1.492   .     S
C885   C890    1.416   .     A
C886   C898    1.492   .     S
C886   C889    1.416   .     A
C886   C564    1.389   1_565 S
C887   C889    1.410   .     A
C887   N901    1.440   .     S
C887   C561    1.389   1_565 S
C888   C890    1.410   .     A
C888   N904    1.440   .     S
C891   C907    1.477   .     S
C892   C910    1.477   .     S
C892   C1380   1.424   .     S
C893   N913    1.430   .     S
C893   C1377   1.424   .     S
C894   N916    1.430   .     S
C895   O897    1.220   .     D
C895   H896    1.086   .     S
C898   O900    1.220   .     D
C898   H899    1.086   .     S
N901   O902    1.301   .     A
N901   O903    1.301   .     A
N904   O906    1.301   .     A
N904   O905    1.301   .     A
C907   H908    1.083   .     S
C907   O909    1.217   .     D
C910   O912    1.217   .     D
C910   H911    1.083   .     S
N913   O914    1.300   .     A
N913   O915    1.299   .     A
N916   O917    1.300   .     A
N916   O918    1.299   .     A
O919   C923    1.301   .     A
O919   Zn931   2.006   .     S
O920   C924    1.301   .     A
O920   Zn932   2.006   .     S
O921   C923    1.294   .     A
O921   Zn932   2.014   .     S
O922   C924    1.294   .     A
O922   Zn931   2.014   .     S
C923   C944    1.453   .     S
C924   C943    1.453   .     S
O925   C929    1.285   .     A
O925   Zn931   1.975   .     S
O926   C930    1.285   .     A
O926   Zn932   1.975   .     S
O927   Zn932   1.979   .     S
O927   C929    1.285   .     A
O928   C930    1.285   .     A
O928   Zn931   1.979   .     S
C929   C935    1.402   .     S
C930   C936    1.402   .     S
Zn931  N933    2.026   .     S
Zn932  N934    2.026   .     S
N933   C946    1.382   .     A
N933   C947    1.366   .     A
N934   C945    1.382   .     A
N934   C948    1.366   .     A
C936   C827    1.327   1_655 S
C936   H830    1.086   1_655 S
H937   C827    1.086   1_655 S
C939   C949    1.492   .     S
C939   C944    1.416   .     A
C940   C952    1.492   .     S
C940   C943    1.416   .     A
C940   C618    1.389   1_565 S
C941   C943    1.410   .     A
C941   N955    1.440   .     S
C941   C615    1.389   1_565 S
C942   C944    1.410   .     A
C942   N958    1.440   .     S
C945   C961    1.477   .     S
C946   C964    1.477   .     S
C946   C1434   1.424   .     S
C947   N967    1.430   .     S
C947   C1431   1.424   .     S
C948   N970    1.430   .     S
C949   O951    1.220   .     D
C949   H950    1.086   .     S
C952   O954    1.220   .     D
C952   H953    1.086   .     S
N955   O956    1.301   .     A
N955   O957    1.301   .     A
N958   O960    1.301   .     A
N958   O959    1.301   .     A
C961   H962    1.083   .     S
C961   O963    1.217   .     D
C964   O966    1.217   .     D
C964   H965    1.083   .     S
N967   O968    1.300   .     A
N967   O969    1.299   .     A
N970   O971    1.300   .     A
N970   O972    1.299   .     A
O973   C977    1.301   .     A
O973   Zn985   2.006   .     S
O974   C978    1.301   .     A
O974   Zn986   2.006   .     S
O975   C977    1.294   .     A
O975   Zn986   2.014   .     S
O976   C978    1.294   .     A
O976   Zn985   2.014   .     S
C977   C998    1.453   .     S
C978   C997    1.453   .     S
O979   C983    1.285   .     A
O979   Zn985   1.975   .     S
O980   C984    1.285   .     A
O980   Zn986   1.975   .     S
O981   Zn986   1.979   .     S
O981   C983    1.285   .     A
O982   C984    1.285   .     A
O982   Zn985   1.979   .     S
C983   C989    1.402   .     S
C984   C990    1.402   .     S
Zn985  N987    2.026   .     S
Zn986  N988    2.026   .     S
N987   C1000   1.382   .     A
N987   C1001   1.366   .     A
N988   C999    1.382   .     A
N988   C1002   1.366   .     A
C989   C1098   1.327   1_455 S
C989   H1099   1.086   1_455 S
C990   C1043   1.327   .     S
C990   H1046   1.086   .     S
H991   C1043   1.086   .     S
H992   C1098   1.086   1_455 S
C993   C1003   1.492   .     S
C993   C998    1.416   .     A
C993   C1319   1.389   1_545 S
C994   C1006   1.492   .     S
C994   C997    1.416   .     A
C994   C1158   1.389   .     S
C995   C997    1.410   .     A
C995   N1009   1.440   .     S
C995   C1155   1.389   .     S
C996   C998    1.410   .     A
C996   N1012   1.440   .     S
C996   C1318   1.389   1_545 S
C999   C1015   1.477   .     S
C1000  C1018   1.477   .     S
C1000  C30     1.424   1_556 S
C1001  N1021   1.430   .     S
C1001  C27     1.424   1_556 S
C1002  N1024   1.430   .     S
C1003  O1005   1.220   .     D
C1003  H1004   1.086   .     S
C1006  O1008   1.220   .     D
C1006  H1007   1.086   .     S
N1009  O1010   1.301   .     A
N1009  O1011   1.301   .     A
N1012  O1014   1.301   .     A
N1012  O1013   1.301   .     A
C1015  H1016   1.083   .     S
C1015  O1017   1.217   .     D
C1018  O1020   1.217   .     D
C1018  H1019   1.083   .     S
N1021  O1022   1.300   .     A
N1021  O1023   1.299   .     A
N1024  O1025   1.300   .     A
N1024  O1026   1.299   .     A
O1027  C1031   1.301   .     A
O1027  Zn1039  2.006   .     S
O1028  C1032   1.301   .     A
O1028  Zn1040  2.006   .     S
O1029  C1031   1.294   .     A
O1029  Zn1040  2.014   .     S
O1030  C1032   1.294   .     A
O1030  Zn1039  2.014   .     S
C1031  C1052   1.453   .     S
C1032  C1051   1.453   .     S
O1033  C1037   1.285   .     A
O1033  Zn1039  1.975   .     S
O1034  C1038   1.285   .     A
O1034  Zn1040  1.975   .     S
O1035  Zn1040  1.979   .     S
O1035  C1037   1.285   .     A
O1036  C1038   1.285   .     A
O1036  Zn1039  1.979   .     S
C1037  C1043   1.402   .     S
C1038  C1044   1.402   .     S
Zn1039 N1041   2.026   .     S
Zn1040 N1042   2.026   .     S
N1041  C1054   1.382   .     A
N1041  C1055   1.366   .     A
N1042  C1053   1.382   .     A
N1042  C1056   1.366   .     A
C1044  C1097   1.327   .     S
C1044  H1100   1.086   .     S
H1045  C1097   1.086   .     S
C1047  C1057   1.492   .     S
C1047  C1052   1.416   .     A
C1047  C1373   1.389   1_545 S
C1048  C1060   1.492   .     S
C1048  C1051   1.416   .     A
C1048  C1212   1.389   .     S
C1049  C1051   1.410   .     A
C1049  N1063   1.440   .     S
C1049  C1209   1.389   .     S
C1050  C1052   1.410   .     A
C1050  N1066   1.440   .     S
C1050  C1372   1.389   1_545 S
C1053  C1069   1.477   .     S
C1054  C1072   1.477   .     S
C1054  C84     1.424   1_556 S
C1055  N1075   1.430   .     S
C1055  C81     1.424   1_556 S
C1056  N1078   1.430   .     S
C1057  O1059   1.220   .     D
C1057  H1058   1.086   .     S
C1060  O1062   1.220   .     D
C1060  H1061   1.086   .     S
N1063  O1064   1.301   .     A
N1063  O1065   1.301   .     A
N1066  O1068   1.301   .     A
N1066  O1067   1.301   .     A
C1069  H1070   1.083   .     S
C1069  O1071   1.217   .     D
C1072  O1074   1.217   .     D
C1072  H1073   1.083   .     S
N1075  O1076   1.300   .     A
N1075  O1077   1.299   .     A
N1078  O1079   1.300   .     A
N1078  O1080   1.299   .     A
O1081  C1085   1.301   .     A
O1081  Zn1093  2.006   .     S
O1082  C1086   1.301   .     A
O1082  Zn1094  2.006   .     S
O1083  C1085   1.294   .     A
O1083  Zn1094  2.014   .     S
O1084  C1086   1.294   .     A
O1084  Zn1093  2.014   .     S
C1085  C1106   1.453   .     S
C1086  C1105   1.453   .     S
O1087  C1091   1.285   .     A
O1087  Zn1093  1.975   .     S
O1088  C1092   1.285   .     A
O1088  Zn1094  1.975   .     S
O1089  Zn1094  1.979   .     S
O1089  C1091   1.285   .     A
O1090  C1092   1.285   .     A
O1090  Zn1093  1.979   .     S
C1091  C1097   1.402   .     S
C1092  C1098   1.402   .     S
Zn1093 N1095   2.026   .     S
Zn1094 N1096   2.026   .     S
N1095  C1108   1.382   .     A
N1095  C1109   1.366   .     A
N1096  C1107   1.382   .     A
N1096  C1110   1.366   .     A
C1098  C989    1.327   1_655 S
C1098  H992    1.086   1_655 S
H1099  C989    1.086   1_655 S
C1101  C1111   1.492   .     S
C1101  C1106   1.416   .     A
C1101  C1427   1.389   1_545 S
C1102  C1114   1.492   .     S
C1102  C1105   1.416   .     A
C1102  C1266   1.389   .     S
C1103  C1105   1.410   .     A
C1103  N1117   1.440   .     S
C1103  C1263   1.389   .     S
C1104  C1106   1.410   .     A
C1104  N1120   1.440   .     S
C1104  C1426   1.389   1_545 S
C1107  C1123   1.477   .     S
C1108  C1126   1.477   .     S
C1108  C138    1.424   1_556 S
C1109  N1129   1.430   .     S
C1109  C135    1.424   1_556 S
C1110  N1132   1.430   .     S
C1111  O1113   1.220   .     D
C1111  H1112   1.086   .     S
C1114  O1116   1.220   .     D
C1114  H1115   1.086   .     S
N1117  O1118   1.301   .     A
N1117  O1119   1.301   .     A
N1120  O1122   1.301   .     A
N1120  O1121   1.301   .     A
C1123  H1124   1.083   .     S
C1123  O1125   1.217   .     D
C1126  O1128   1.217   .     D
C1126  H1127   1.083   .     S
N1129  O1130   1.300   .     A
N1129  O1131   1.299   .     A
N1132  O1133   1.300   .     A
N1132  O1134   1.299   .     A
O1135  C1139   1.301   .     A
O1135  Zn1147  2.006   .     S
O1136  C1140   1.301   .     A
O1136  Zn1148  2.006   .     S
O1137  C1139   1.294   .     A
O1137  Zn1148  2.014   .     S
O1138  C1140   1.294   .     A
O1138  Zn1147  2.014   .     S
C1139  C1160   1.453   .     S
C1140  C1159   1.453   .     S
O1141  C1145   1.285   .     A
O1141  Zn1147  1.975   .     S
O1142  C1146   1.285   .     A
O1142  Zn1148  1.975   .     S
O1143  Zn1148  1.979   .     S
O1143  C1145   1.285   .     A
O1144  C1146   1.285   .     A
O1144  Zn1147  1.979   .     S
C1145  C1151   1.402   .     S
C1146  C1152   1.402   .     S
Zn1147 N1149   2.026   .     S
Zn1148 N1150   2.026   .     S
N1149  C1162   1.382   .     A
N1149  C1163   1.366   .     A
N1150  C1161   1.382   .     A
N1150  C1164   1.366   .     A
C1151  C1260   1.327   1_455 S
C1151  H1261   1.086   1_455 S
C1152  C1205   1.327   .     S
C1152  H1208   1.086   .     S
H1153  C1205   1.086   .     S
H1154  C1260   1.086   1_455 S
C1155  C1165   1.492   .     S
C1155  C1160   1.416   .     A
C1156  C1168   1.492   .     S
C1156  C1159   1.416   .     A
C1156  C1320   1.389   .     S
C1157  C1159   1.410   .     A
C1157  N1171   1.440   .     S
C1157  C1317   1.389   .     S
C1158  C1160   1.410   .     A
C1158  N1174   1.440   .     S
C1161  C1177   1.477   .     S
C1162  C1180   1.477   .     S
C1162  C192    1.424   1_556 S
C1163  N1183   1.430   .     S
C1163  C189    1.424   1_556 S
C1164  N1186   1.430   .     S
C1165  O1167   1.220   .     D
C1165  H1166   1.086   .     S
C1168  O1170   1.220   .     D
C1168  H1169   1.086   .     S
N1171  O1172   1.301   .     A
N1171  O1173   1.301   .     A
N1174  O1176   1.301   .     A
N1174  O1175   1.301   .     A
C1177  H1178   1.083   .     S
C1177  O1179   1.217   .     D
C1180  O1182   1.217   .     D
C1180  H1181   1.083   .     S
N1183  O1184   1.300   .     A
N1183  O1185   1.299   .     A
N1186  O1187   1.300   .     A
N1186  O1188   1.299   .     A
O1189  C1193   1.301   .     A
O1189  Zn1201  2.006   .     S
O1190  C1194   1.301   .     A
O1190  Zn1202  2.006   .     S
O1191  C1193   1.294   .     A
O1191  Zn1202  2.014   .     S
O1192  C1194   1.294   .     A
O1192  Zn1201  2.014   .     S
C1193  C1214   1.453   .     S
C1194  C1213   1.453   .     S
O1195  C1199   1.285   .     A
O1195  Zn1201  1.975   .     S
O1196  C1200   1.285   .     A
O1196  Zn1202  1.975   .     S
O1197  Zn1202  1.979   .     S
O1197  C1199   1.285   .     A
O1198  C1200   1.285   .     A
O1198  Zn1201  1.979   .     S
C1199  C1205   1.402   .     S
C1200  C1206   1.402   .     S
Zn1201 N1203   2.026   .     S
Zn1202 N1204   2.026   .     S
N1203  C1216   1.382   .     A
N1203  C1217   1.366   .     A
N1204  C1215   1.382   .     A
N1204  C1218   1.366   .     A
C1206  C1259   1.327   .     S
C1206  H1262   1.086   .     S
H1207  C1259   1.086   .     S
C1209  C1219   1.492   .     S
C1209  C1214   1.416   .     A
C1210  C1222   1.492   .     S
C1210  C1213   1.416   .     A
C1210  C1374   1.389   .     S
C1211  C1213   1.410   .     A
C1211  N1225   1.440   .     S
C1211  C1371   1.389   .     S
C1212  C1214   1.410   .     A
C1212  N1228   1.440   .     S
C1215  C1231   1.477   .     S
C1216  C1234   1.477   .     S
C1216  C246    1.424   1_556 S
C1217  N1237   1.430   .     S
C1217  C243    1.424   1_556 S
C1218  N1240   1.430   .     S
C1219  O1221   1.220   .     D
C1219  H1220   1.086   .     S
C1222  O1224   1.220   .     D
C1222  H1223   1.086   .     S
N1225  O1226   1.301   .     A
N1225  O1227   1.301   .     A
N1228  O1230   1.301   .     A
N1228  O1229   1.301   .     A
C1231  H1232   1.083   .     S
C1231  O1233   1.217   .     D
C1234  O1236   1.217   .     D
C1234  H1235   1.083   .     S
N1237  O1238   1.300   .     A
N1237  O1239   1.299   .     A
N1240  O1241   1.300   .     A
N1240  O1242   1.299   .     A
O1243  C1247   1.301   .     A
O1243  Zn1255  2.006   .     S
O1244  C1248   1.301   .     A
O1244  Zn1256  2.006   .     S
O1245  C1247   1.294   .     A
O1245  Zn1256  2.014   .     S
O1246  C1248   1.294   .     A
O1246  Zn1255  2.014   .     S
C1247  C1268   1.453   .     S
C1248  C1267   1.453   .     S
O1249  C1253   1.285   .     A
O1249  Zn1255  1.975   .     S
O1250  C1254   1.285   .     A
O1250  Zn1256  1.975   .     S
O1251  Zn1256  1.979   .     S
O1251  C1253   1.285   .     A
O1252  C1254   1.285   .     A
O1252  Zn1255  1.979   .     S
C1253  C1259   1.402   .     S
C1254  C1260   1.402   .     S
Zn1255 N1257   2.026   .     S
Zn1256 N1258   2.026   .     S
N1257  C1270   1.382   .     A
N1257  C1271   1.366   .     A
N1258  C1269   1.382   .     A
N1258  C1272   1.366   .     A
C1260  C1151   1.327   1_655 S
C1260  H1154   1.086   1_655 S
H1261  C1151   1.086   1_655 S
C1263  C1273   1.492   .     S
C1263  C1268   1.416   .     A
C1264  C1276   1.492   .     S
C1264  C1267   1.416   .     A
C1264  C1428   1.389   .     S
C1265  C1267   1.410   .     A
C1265  N1279   1.440   .     S
C1265  C1425   1.389   .     S
C1266  C1268   1.410   .     A
C1266  N1282   1.440   .     S
C1269  C1285   1.477   .     S
C1270  C1288   1.477   .     S
C1270  C300    1.424   1_556 S
C1271  N1291   1.430   .     S
C1271  C297    1.424   1_556 S
C1272  N1294   1.430   .     S
C1273  O1275   1.220   .     D
C1273  H1274   1.086   .     S
C1276  O1278   1.220   .     D
C1276  H1277   1.086   .     S
N1279  O1280   1.301   .     A
N1279  O1281   1.301   .     A
N1282  O1284   1.301   .     A
N1282  O1283   1.301   .     A
C1285  H1286   1.083   .     S
C1285  O1287   1.217   .     D
C1288  O1290   1.217   .     D
C1288  H1289   1.083   .     S
N1291  O1292   1.300   .     A
N1291  O1293   1.299   .     A
N1294  O1295   1.300   .     A
N1294  O1296   1.299   .     A
O1297  C1301   1.301   .     A
O1297  Zn1309  2.006   .     S
O1298  C1302   1.301   .     A
O1298  Zn1310  2.006   .     S
O1299  C1301   1.294   .     A
O1299  Zn1310  2.014   .     S
O1300  C1302   1.294   .     A
O1300  Zn1309  2.014   .     S
C1301  C1322   1.453   .     S
C1302  C1321   1.453   .     S
O1303  C1307   1.285   .     A
O1303  Zn1309  1.975   .     S
O1304  C1308   1.285   .     A
O1304  Zn1310  1.975   .     S
O1305  Zn1310  1.979   .     S
O1305  C1307   1.285   .     A
O1306  C1308   1.285   .     A
O1306  Zn1309  1.979   .     S
C1307  C1313   1.402   .     S
C1308  C1314   1.402   .     S
Zn1309 N1311   2.026   .     S
Zn1310 N1312   2.026   .     S
N1311  C1324   1.382   .     A
N1311  C1325   1.366   .     A
N1312  C1323   1.382   .     A
N1312  C1326   1.366   .     A
C1313  C1422   1.327   1_455 S
C1313  H1423   1.086   1_455 S
C1314  C1367   1.327   .     S
C1314  H1370   1.086   .     S
H1315  C1367   1.086   .     S
H1316  C1422   1.086   1_455 S
C1317  C1327   1.492   .     S
C1317  C1322   1.416   .     A
C1318  C1330   1.492   .     S
C1318  C1321   1.416   .     A
C1318  C996    1.389   1_565 S
C1319  C1321   1.410   .     A
C1319  N1333   1.440   .     S
C1319  C993    1.389   1_565 S
C1320  C1322   1.410   .     A
C1320  N1336   1.440   .     S
C1323  C1339   1.477   .     S
C1324  C1342   1.477   .     S
C1324  C354    1.424   1_556 S
C1325  N1345   1.430   .     S
C1325  C351    1.424   1_556 S
C1326  N1348   1.430   .     S
C1327  O1329   1.220   .     D
C1327  H1328   1.086   .     S
C1330  O1332   1.220   .     D
C1330  H1331   1.086   .     S
N1333  O1334   1.301   .     A
N1333  O1335   1.301   .     A
N1336  O1338   1.301   .     A
N1336  O1337   1.301   .     A
C1339  H1340   1.083   .     S
C1339  O1341   1.217   .     D
C1342  O1344   1.217   .     D
C1342  H1343   1.083   .     S
N1345  O1346   1.300   .     A
N1345  O1347   1.299   .     A
N1348  O1349   1.300   .     A
N1348  O1350   1.299   .     A
O1351  C1355   1.301   .     A
O1351  Zn1363  2.006   .     S
O1352  C1356   1.301   .     A
O1352  Zn1364  2.006   .     S
O1353  C1355   1.294   .     A
O1353  Zn1364  2.014   .     S
O1354  C1356   1.294   .     A
O1354  Zn1363  2.014   .     S
C1355  C1376   1.453   .     S
C1356  C1375   1.453   .     S
O1357  C1361   1.285   .     A
O1357  Zn1363  1.975   .     S
O1358  C1362   1.285   .     A
O1358  Zn1364  1.975   .     S
O1359  Zn1364  1.979   .     S
O1359  C1361   1.285   .     A
O1360  C1362   1.285   .     A
O1360  Zn1363  1.979   .     S
C1361  C1367   1.402   .     S
C1362  C1368   1.402   .     S
Zn1363 N1365   2.026   .     S
Zn1364 N1366   2.026   .     S
N1365  C1378   1.382   .     A
N1365  C1379   1.366   .     A
N1366  C1377   1.382   .     A
N1366  C1380   1.366   .     A
C1368  C1421   1.327   .     S
C1368  H1424   1.086   .     S
H1369  C1421   1.086   .     S
C1371  C1381   1.492   .     S
C1371  C1376   1.416   .     A
C1372  C1384   1.492   .     S
C1372  C1375   1.416   .     A
C1372  C1050   1.389   1_565 S
C1373  C1375   1.410   .     A
C1373  N1387   1.440   .     S
C1373  C1047   1.389   1_565 S
C1374  C1376   1.410   .     A
C1374  N1390   1.440   .     S
C1377  C1393   1.477   .     S
C1378  C1396   1.477   .     S
C1378  C408    1.424   1_556 S
C1379  N1399   1.430   .     S
C1379  C405    1.424   1_556 S
C1380  N1402   1.430   .     S
C1381  O1383   1.220   .     D
C1381  H1382   1.086   .     S
C1384  O1386   1.220   .     D
C1384  H1385   1.086   .     S
N1387  O1388   1.301   .     A
N1387  O1389   1.301   .     A
N1390  O1392   1.301   .     A
N1390  O1391   1.301   .     A
C1393  H1394   1.083   .     S
C1393  O1395   1.217   .     D
C1396  O1398   1.217   .     D
C1396  H1397   1.083   .     S
N1399  O1400   1.300   .     A
N1399  O1401   1.299   .     A
N1402  O1403   1.300   .     A
N1402  O1404   1.299   .     A
O1405  C1409   1.301   .     A
O1405  Zn1417  2.006   .     S
O1406  C1410   1.301   .     A
O1406  Zn1418  2.006   .     S
O1407  C1409   1.294   .     A
O1407  Zn1418  2.014   .     S
O1408  C1410   1.294   .     A
O1408  Zn1417  2.014   .     S
C1409  C1430   1.453   .     S
C1410  C1429   1.453   .     S
O1411  C1415   1.285   .     A
O1411  Zn1417  1.975   .     S
O1412  C1416   1.285   .     A
O1412  Zn1418  1.975   .     S
O1413  Zn1418  1.979   .     S
O1413  C1415   1.285   .     A
O1414  C1416   1.285   .     A
O1414  Zn1417  1.979   .     S
C1415  C1421   1.402   .     S
C1416  C1422   1.402   .     S
Zn1417 N1419   2.026   .     S
Zn1418 N1420   2.026   .     S
N1419  C1432   1.382   .     A
N1419  C1433   1.366   .     A
N1420  C1431   1.382   .     A
N1420  C1434   1.366   .     A
C1422  C1313   1.327   1_655 S
C1422  H1316   1.086   1_655 S
H1423  C1313   1.086   1_655 S
C1425  C1435   1.492   .     S
C1425  C1430   1.416   .     A
C1426  C1438   1.492   .     S
C1426  C1429   1.416   .     A
C1426  C1104   1.389   1_565 S
C1427  C1429   1.410   .     A
C1427  N1441   1.440   .     S
C1427  C1101   1.389   1_565 S
C1428  C1430   1.410   .     A
C1428  N1444   1.440   .     S
C1431  C1447   1.477   .     S
C1432  C1450   1.477   .     S
C1432  C462    1.424   1_556 S
C1433  N1453   1.430   .     S
C1433  C459    1.424   1_556 S
C1434  N1456   1.430   .     S
C1435  O1437   1.220   .     D
C1435  H1436   1.086   .     S
C1438  O1440   1.220   .     D
C1438  H1439   1.086   .     S
N1441  O1442   1.301   .     A
N1441  O1443   1.301   .     A
N1444  O1446   1.301   .     A
N1444  O1445   1.301   .     A
C1447  H1448   1.083   .     S
C1447  O1449   1.217   .     D
C1450  O1452   1.217   .     D
C1450  H1451   1.083   .     S
N1453  O1454   1.300   .     A
N1453  O1455   1.299   .     A
N1456  O1457   1.300   .     A
N1456  O1458   1.299   .     A
