data_str_m3_o2_o5_pcu_sym.44
_audit_creation_date              2020-01-03
_audit_creation_method            'Materials Studio'
_symmetry_space_group_name_H-M    'P1'
_symmetry_Int_Tables_number       1
_symmetry_cell_setting            triclinic
loop_
_symmetry_equiv_pos_as_xyz
  x,y,z
_cell_length_a                    29.9873
_cell_length_b                    28.3677
_cell_length_c                    26.6358
_cell_angle_alpha                 90.0000
_cell_angle_beta                  89.9864
_cell_angle_gamma                 89.9995
loop_
_atom_site_label
_atom_site_type_symbol
_atom_site_fract_x
_atom_site_fract_y
_atom_site_fract_z
_atom_site_U_iso_or_equiv
_atom_site_adp_type
_atom_site_occupancy
C1     C     0.16391   0.25000   0.16668   0.00000  Uiso   1.00
C2     C     0.26117   0.44739   0.12328   0.00000  Uiso   1.00
C3     C     0.25000   0.25000   0.07287   0.00000  Uiso   1.00
C4     C     0.25000   0.25000   0.26046   0.00000  Uiso   1.00
C5     C     0.25000   0.02667   0.16667   0.00000  Uiso   1.00
C6     C     0.25000   0.47333   0.16667   0.00000  Uiso   1.00
C7     C     0.25000   0.25000   0.02181   0.00000  Uiso   1.00
C8     C     0.25000   0.25000   0.31152   0.00000  Uiso   1.00
C9     C     0.04623   0.28204   0.19679   0.00000  Uiso   1.00
C10    C     0.45372   0.21779   0.19676   0.00000  Uiso   1.00
C11    C     0.45377   0.28204   0.13655   0.00000  Uiso   1.00
C12    C     0.33609   0.25000   0.16665   0.00000  Uiso   1.00
C13    C     0.04628   0.21779   0.13658   0.00000  Uiso   1.00
C14    C     0.09242   0.28206   0.19782   0.00000  Uiso   1.00
C15    C     0.40752   0.21785   0.19777   0.00000  Uiso   1.00
C16    C     0.40758   0.28206   0.13553   0.00000  Uiso   1.00
C17    C     0.09248   0.21785   0.13556   0.00000  Uiso   1.00
C18    C     0.11579   0.24998   0.16668   0.00000  Uiso   1.00
C19    C     0.38421   0.24998   0.16665   0.00000  Uiso   1.00
C20    C     0.02380   0.24990   0.16669   0.00000  Uiso   1.00
C21    C     0.47620   0.24990   0.16666   0.00000  Uiso   1.00
C22    C     0.11476   0.31443   0.23350   0.00000  Uiso   1.00
C23    C     0.24012   0.10218   0.12379   0.00000  Uiso   1.00
C24    C     0.13820   0.29648   0.27494   0.00000  Uiso   1.00
C25    C     0.15709   0.32724   0.31006   0.00000  Uiso   1.00
C26    C     0.15293   0.37595   0.30389   0.00000  Uiso   1.00
C27    C     0.12983   0.39405   0.26260   0.00000  Uiso   1.00
C28    C     0.11058   0.36344   0.22762   0.00000  Uiso   1.00
C29    C     0.38510   0.18546   0.23338   0.00000  Uiso   1.00
C30    C     0.36183   0.20338   0.27497   0.00000  Uiso   1.00
C31    C     0.34273   0.17259   0.30991   0.00000  Uiso   1.00
C32    C     0.34649   0.12388   0.30341   0.00000  Uiso   1.00
C33    C     0.36942   0.10582   0.26197   0.00000  Uiso   1.00
C34    C     0.23925   0.39781   0.20929   0.00000  Uiso   1.00
C35    C     0.38890   0.13646   0.22717   0.00000  Uiso   1.00
C36    C     0.38524   0.31444   0.09984   0.00000  Uiso   1.00
C37    C     0.36179   0.29649   0.05840   0.00000  Uiso   1.00
C38    C     0.34291   0.32725   0.02328   0.00000  Uiso   1.00
C39    C     0.34708   0.37596   0.02945   0.00000  Uiso   1.00
C40    C     0.37018   0.39405   0.07074   0.00000  Uiso   1.00
C41    C     0.38943   0.36344   0.10572   0.00000  Uiso   1.00
C42    C     0.11489   0.18546   0.09995   0.00000  Uiso   1.00
C43    C     0.13819   0.20338   0.05838   0.00000  Uiso   1.00
C44    C     0.15729   0.17259   0.02343   0.00000  Uiso   1.00
C45    C     0.25988   0.10218   0.20955   0.00000  Uiso   1.00
C46    C     0.15350   0.12387   0.02992   0.00000  Uiso   1.00
C47    C     0.13054   0.10582   0.07134   0.00000  Uiso   1.00
C48    C     0.11107   0.13646   0.10614   0.00000  Uiso   1.00
C49    C     0.26075   0.39781   0.12405   0.00000  Uiso   1.00
C50    C     0.23971   0.05260   0.12301   0.00000  Uiso   1.00
C51    C     0.23883   0.44739   0.21006   0.00000  Uiso   1.00
C52    C     0.26029   0.05260   0.21033   0.00000  Uiso   1.00
H53    H     0.23234   0.12138   0.08989   0.00000  Uiso   1.00
H54    H     0.22917   0.46509   0.24436   0.00000  Uiso   1.00
H55    H     0.26924   0.03490   0.24486   0.00000  Uiso   1.00
H56    H     0.27083   0.46509   0.08897   0.00000  Uiso   1.00
H57    H     0.14128   0.25879   0.28034   0.00000  Uiso   1.00
H58    H     0.17475   0.31339   0.00890   0.00000  Uiso   1.00
H59    H     0.16770   0.39967   0.33103   0.00000  Uiso   1.00
H60    H     0.12673   0.43179   0.25779   0.00000  Uiso   1.00
H61    H     0.09241   0.37785   0.19601   0.00000  Uiso   1.00
H62    H     0.35902   0.24106   0.28059   0.00000  Uiso   1.00
H63    H     0.32519   0.18641   0.00886   0.00000  Uiso   1.00
H64    H     0.23080   0.37859   0.24296   0.00000  Uiso   1.00
H65    H     0.33153   0.10013   0.33040   0.00000  Uiso   1.00
H66    H     0.37222   0.06808   0.25690   0.00000  Uiso   1.00
H67    H     0.40692   0.12207   0.19543   0.00000  Uiso   1.00
H68    H     0.35871   0.25880   0.05301   0.00000  Uiso   1.00
H69    H     0.32525   0.31340   0.32445   0.00000  Uiso   1.00
H70    H     0.33231   0.39968   0.00231   0.00000  Uiso   1.00
H71    H     0.37329   0.43179   0.07555   0.00000  Uiso   1.00
H72    H     0.40761   0.37785   0.13733   0.00000  Uiso   1.00
H73    H     0.14102   0.24106   0.05277   0.00000  Uiso   1.00
H74    H     0.17485   0.18640   0.32450   0.00000  Uiso   1.00
H75    H     0.26765   0.12138   0.24344   0.00000  Uiso   1.00
H76    H     0.16845   0.10013   0.00292   0.00000  Uiso   1.00
H77    H     0.12772   0.06808   0.07639   0.00000  Uiso   1.00
H78    H     0.09302   0.12208   0.13787   0.00000  Uiso   1.00
H79    H     0.26920   0.37859   0.09037   0.00000  Uiso   1.00
H80    H     0.02759   0.30625   0.22035   0.00000  Uiso   1.00
H81    H     0.47231   0.19354   0.22032   0.00000  Uiso   1.00
H82    H     0.47241   0.30626   0.11299   0.00000  Uiso   1.00
H83    H     0.02769   0.19354   0.11302   0.00000  Uiso   1.00
H84    H     0.23075   0.03490   0.08847   0.00000  Uiso   1.00
N85    N     0.25000   0.12623   0.16667   0.00000  Uiso   1.00
N86    N     0.25000   0.37376   0.16667   0.00000  Uiso   1.00
O87    O     0.18453   0.28974   0.16667   0.00000  Uiso   1.00
O88    O     0.31547   0.21026   0.16666   0.00000  Uiso   1.00
O89    O     0.31547   0.28974   0.16666   0.00000  Uiso   1.00
O90    O     0.18453   0.21026   0.16667   0.00000  Uiso   1.00
O91    O     0.25000   0.28973   0.09511   0.00000  Uiso   1.00
O92    O     0.25000   0.21027   0.23822   0.00000  Uiso   1.00
O93    O     0.25000   0.28973   0.23822   0.00000  Uiso   1.00
O94    O     0.25000   0.21027   0.09511   0.00000  Uiso   1.00
Zn95   Zn    0.25000   0.30307   0.16667   0.00000  Uiso   1.00
Zn96   Zn    0.25000   0.19693   0.16667   0.00000  Uiso   1.00
C97    C     0.66391   0.25000   0.16668   0.00000  Uiso   1.00
C98    C     0.76117   0.44739   0.12328   0.00000  Uiso   1.00
C99    C     0.75000   0.25000   0.07287   0.00000  Uiso   1.00
C100   C     0.75000   0.25000   0.26046   0.00000  Uiso   1.00
C101   C     0.75000   0.02667   0.16667   0.00000  Uiso   1.00
C102   C     0.75000   0.47333   0.16667   0.00000  Uiso   1.00
C103   C     0.75000   0.25000   0.02181   0.00000  Uiso   1.00
C104   C     0.75000   0.25000   0.31152   0.00000  Uiso   1.00
C105   C     0.54623   0.28204   0.19679   0.00000  Uiso   1.00
C106   C     0.95372   0.21779   0.19676   0.00000  Uiso   1.00
C107   C     0.95377   0.28204   0.13655   0.00000  Uiso   1.00
C108   C     0.83609   0.25000   0.16665   0.00000  Uiso   1.00
C109   C     0.54628   0.21779   0.13658   0.00000  Uiso   1.00
C110   C     0.59242   0.28206   0.19782   0.00000  Uiso   1.00
C111   C     0.90752   0.21785   0.19777   0.00000  Uiso   1.00
C112   C     0.90758   0.28206   0.13553   0.00000  Uiso   1.00
C113   C     0.59248   0.21785   0.13556   0.00000  Uiso   1.00
C114   C     0.61579   0.24998   0.16668   0.00000  Uiso   1.00
C115   C     0.88421   0.24998   0.16665   0.00000  Uiso   1.00
C116   C     0.52380   0.24990   0.16669   0.00000  Uiso   1.00
C117   C     0.97620   0.24990   0.16666   0.00000  Uiso   1.00
C118   C     0.61476   0.31443   0.23350   0.00000  Uiso   1.00
C119   C     0.74012   0.10218   0.12379   0.00000  Uiso   1.00
C120   C     0.63820   0.29648   0.27494   0.00000  Uiso   1.00
C121   C     0.65709   0.32724   0.31006   0.00000  Uiso   1.00
C122   C     0.65293   0.37595   0.30389   0.00000  Uiso   1.00
C123   C     0.62983   0.39405   0.26260   0.00000  Uiso   1.00
C124   C     0.61058   0.36344   0.22762   0.00000  Uiso   1.00
C125   C     0.88510   0.18546   0.23338   0.00000  Uiso   1.00
C126   C     0.86183   0.20338   0.27497   0.00000  Uiso   1.00
C127   C     0.84273   0.17259   0.30991   0.00000  Uiso   1.00
C128   C     0.84649   0.12388   0.30341   0.00000  Uiso   1.00
C129   C     0.86942   0.10582   0.26197   0.00000  Uiso   1.00
C130   C     0.73925   0.39781   0.20929   0.00000  Uiso   1.00
C131   C     0.88890   0.13646   0.22717   0.00000  Uiso   1.00
C132   C     0.88524   0.31444   0.09984   0.00000  Uiso   1.00
C133   C     0.86179   0.29649   0.05840   0.00000  Uiso   1.00
C134   C     0.84291   0.32725   0.02328   0.00000  Uiso   1.00
C135   C     0.84708   0.37596   0.02945   0.00000  Uiso   1.00
C136   C     0.87018   0.39405   0.07074   0.00000  Uiso   1.00
C137   C     0.88943   0.36344   0.10572   0.00000  Uiso   1.00
C138   C     0.61489   0.18546   0.09995   0.00000  Uiso   1.00
C139   C     0.63819   0.20338   0.05838   0.00000  Uiso   1.00
C140   C     0.65729   0.17259   0.02343   0.00000  Uiso   1.00
C141   C     0.75988   0.10218   0.20955   0.00000  Uiso   1.00
C142   C     0.65350   0.12387   0.02992   0.00000  Uiso   1.00
C143   C     0.63054   0.10582   0.07134   0.00000  Uiso   1.00
C144   C     0.61107   0.13646   0.10614   0.00000  Uiso   1.00
C145   C     0.76075   0.39781   0.12405   0.00000  Uiso   1.00
C146   C     0.73971   0.05260   0.12301   0.00000  Uiso   1.00
C147   C     0.73883   0.44739   0.21006   0.00000  Uiso   1.00
C148   C     0.76029   0.05260   0.21033   0.00000  Uiso   1.00
H149   H     0.73234   0.12138   0.08989   0.00000  Uiso   1.00
H150   H     0.72917   0.46509   0.24436   0.00000  Uiso   1.00
H151   H     0.76924   0.03490   0.24486   0.00000  Uiso   1.00
H152   H     0.77083   0.46509   0.08897   0.00000  Uiso   1.00
H153   H     0.64128   0.25879   0.28034   0.00000  Uiso   1.00
H154   H     0.67475   0.31339   0.00890   0.00000  Uiso   1.00
H155   H     0.66770   0.39967   0.33103   0.00000  Uiso   1.00
H156   H     0.62673   0.43179   0.25779   0.00000  Uiso   1.00
H157   H     0.59241   0.37785   0.19601   0.00000  Uiso   1.00
H158   H     0.85902   0.24106   0.28059   0.00000  Uiso   1.00
H159   H     0.82519   0.18641   0.00886   0.00000  Uiso   1.00
H160   H     0.73080   0.37859   0.24296   0.00000  Uiso   1.00
H161   H     0.83153   0.10013   0.33040   0.00000  Uiso   1.00
H162   H     0.87222   0.06808   0.25690   0.00000  Uiso   1.00
H163   H     0.90692   0.12207   0.19543   0.00000  Uiso   1.00
H164   H     0.85871   0.25880   0.05301   0.00000  Uiso   1.00
H165   H     0.82525   0.31340   0.32445   0.00000  Uiso   1.00
H166   H     0.83231   0.39968   0.00231   0.00000  Uiso   1.00
H167   H     0.87329   0.43179   0.07555   0.00000  Uiso   1.00
H168   H     0.90761   0.37785   0.13733   0.00000  Uiso   1.00
H169   H     0.64102   0.24106   0.05277   0.00000  Uiso   1.00
H170   H     0.67485   0.18640   0.32450   0.00000  Uiso   1.00
H171   H     0.76765   0.12138   0.24344   0.00000  Uiso   1.00
H172   H     0.66845   0.10013   0.00292   0.00000  Uiso   1.00
H173   H     0.62772   0.06808   0.07639   0.00000  Uiso   1.00
H174   H     0.59302   0.12208   0.13787   0.00000  Uiso   1.00
H175   H     0.76920   0.37859   0.09037   0.00000  Uiso   1.00
H176   H     0.52759   0.30625   0.22035   0.00000  Uiso   1.00
H177   H     0.97231   0.19354   0.22032   0.00000  Uiso   1.00
H178   H     0.97241   0.30626   0.11299   0.00000  Uiso   1.00
H179   H     0.52769   0.19354   0.11302   0.00000  Uiso   1.00
H180   H     0.73075   0.03490   0.08847   0.00000  Uiso   1.00
N181   N     0.75000   0.12623   0.16667   0.00000  Uiso   1.00
N182   N     0.75000   0.37376   0.16667   0.00000  Uiso   1.00
O183   O     0.68453   0.28974   0.16667   0.00000  Uiso   1.00
O184   O     0.81547   0.21026   0.16666   0.00000  Uiso   1.00
O185   O     0.81547   0.28974   0.16666   0.00000  Uiso   1.00
O186   O     0.68453   0.21026   0.16667   0.00000  Uiso   1.00
O187   O     0.75000   0.28973   0.09511   0.00000  Uiso   1.00
O188   O     0.75000   0.21027   0.23822   0.00000  Uiso   1.00
O189   O     0.75000   0.28973   0.23822   0.00000  Uiso   1.00
O190   O     0.75000   0.21027   0.09511   0.00000  Uiso   1.00
Zn191  Zn    0.75000   0.30307   0.16667   0.00000  Uiso   1.00
Zn192  Zn    0.75000   0.19693   0.16667   0.00000  Uiso   1.00
C193   C     0.16391   0.75000   0.16668   0.00000  Uiso   1.00
C194   C     0.26117   0.94739   0.12328   0.00000  Uiso   1.00
C195   C     0.25000   0.75000   0.07287   0.00000  Uiso   1.00
C196   C     0.25000   0.75000   0.26046   0.00000  Uiso   1.00
C197   C     0.25000   0.52667   0.16667   0.00000  Uiso   1.00
C198   C     0.25000   0.97333   0.16667   0.00000  Uiso   1.00
C199   C     0.25000   0.75000   0.02181   0.00000  Uiso   1.00
C200   C     0.25000   0.75000   0.31152   0.00000  Uiso   1.00
C201   C     0.04623   0.78204   0.19679   0.00000  Uiso   1.00
C202   C     0.45372   0.71779   0.19676   0.00000  Uiso   1.00
C203   C     0.45377   0.78204   0.13655   0.00000  Uiso   1.00
C204   C     0.33609   0.75000   0.16665   0.00000  Uiso   1.00
C205   C     0.04628   0.71779   0.13658   0.00000  Uiso   1.00
C206   C     0.09242   0.78206   0.19782   0.00000  Uiso   1.00
C207   C     0.40752   0.71785   0.19777   0.00000  Uiso   1.00
C208   C     0.40758   0.78206   0.13553   0.00000  Uiso   1.00
C209   C     0.09248   0.71785   0.13556   0.00000  Uiso   1.00
C210   C     0.11579   0.74998   0.16668   0.00000  Uiso   1.00
C211   C     0.38421   0.74998   0.16665   0.00000  Uiso   1.00
C212   C     0.02380   0.74990   0.16669   0.00000  Uiso   1.00
C213   C     0.47620   0.74990   0.16666   0.00000  Uiso   1.00
C214   C     0.11476   0.81443   0.23350   0.00000  Uiso   1.00
C215   C     0.24012   0.60218   0.12379   0.00000  Uiso   1.00
C216   C     0.13820   0.79648   0.27494   0.00000  Uiso   1.00
C217   C     0.15709   0.82724   0.31006   0.00000  Uiso   1.00
C218   C     0.15293   0.87595   0.30389   0.00000  Uiso   1.00
C219   C     0.12983   0.89405   0.26260   0.00000  Uiso   1.00
C220   C     0.11058   0.86344   0.22762   0.00000  Uiso   1.00
C221   C     0.38510   0.68546   0.23338   0.00000  Uiso   1.00
C222   C     0.36183   0.70338   0.27497   0.00000  Uiso   1.00
C223   C     0.34273   0.67259   0.30991   0.00000  Uiso   1.00
C224   C     0.34649   0.62388   0.30341   0.00000  Uiso   1.00
C225   C     0.36942   0.60582   0.26197   0.00000  Uiso   1.00
C226   C     0.23925   0.89781   0.20929   0.00000  Uiso   1.00
C227   C     0.38890   0.63646   0.22717   0.00000  Uiso   1.00
C228   C     0.38524   0.81444   0.09984   0.00000  Uiso   1.00
C229   C     0.36179   0.79649   0.05840   0.00000  Uiso   1.00
C230   C     0.34291   0.82725   0.02328   0.00000  Uiso   1.00
C231   C     0.34708   0.87596   0.02945   0.00000  Uiso   1.00
C232   C     0.37018   0.89405   0.07074   0.00000  Uiso   1.00
C233   C     0.38943   0.86344   0.10572   0.00000  Uiso   1.00
C234   C     0.11489   0.68546   0.09995   0.00000  Uiso   1.00
C235   C     0.13819   0.70338   0.05838   0.00000  Uiso   1.00
C236   C     0.15729   0.67259   0.02343   0.00000  Uiso   1.00
C237   C     0.25988   0.60218   0.20955   0.00000  Uiso   1.00
C238   C     0.15350   0.62387   0.02992   0.00000  Uiso   1.00
C239   C     0.13054   0.60582   0.07134   0.00000  Uiso   1.00
C240   C     0.11107   0.63646   0.10614   0.00000  Uiso   1.00
C241   C     0.26075   0.89781   0.12405   0.00000  Uiso   1.00
C242   C     0.23971   0.55260   0.12301   0.00000  Uiso   1.00
C243   C     0.23883   0.94739   0.21006   0.00000  Uiso   1.00
C244   C     0.26029   0.55260   0.21033   0.00000  Uiso   1.00
H245   H     0.23234   0.62138   0.08989   0.00000  Uiso   1.00
H246   H     0.22917   0.96509   0.24436   0.00000  Uiso   1.00
H247   H     0.26924   0.53490   0.24486   0.00000  Uiso   1.00
H248   H     0.27083   0.96509   0.08897   0.00000  Uiso   1.00
H249   H     0.14128   0.75879   0.28034   0.00000  Uiso   1.00
H250   H     0.17475   0.81339   0.00890   0.00000  Uiso   1.00
H251   H     0.16770   0.89967   0.33103   0.00000  Uiso   1.00
H252   H     0.12673   0.93179   0.25779   0.00000  Uiso   1.00
H253   H     0.09241   0.87785   0.19601   0.00000  Uiso   1.00
H254   H     0.35902   0.74106   0.28059   0.00000  Uiso   1.00
H255   H     0.32519   0.68641   0.00886   0.00000  Uiso   1.00
H256   H     0.23080   0.87859   0.24296   0.00000  Uiso   1.00
H257   H     0.33153   0.60013   0.33040   0.00000  Uiso   1.00
H258   H     0.37222   0.56808   0.25690   0.00000  Uiso   1.00
H259   H     0.40692   0.62207   0.19543   0.00000  Uiso   1.00
H260   H     0.35871   0.75880   0.05301   0.00000  Uiso   1.00
H261   H     0.32525   0.81340   0.32445   0.00000  Uiso   1.00
H262   H     0.33231   0.89968   0.00231   0.00000  Uiso   1.00
H263   H     0.37329   0.93179   0.07555   0.00000  Uiso   1.00
H264   H     0.40761   0.87785   0.13733   0.00000  Uiso   1.00
H265   H     0.14102   0.74106   0.05277   0.00000  Uiso   1.00
H266   H     0.17485   0.68640   0.32450   0.00000  Uiso   1.00
H267   H     0.26765   0.62138   0.24344   0.00000  Uiso   1.00
H268   H     0.16845   0.60013   0.00292   0.00000  Uiso   1.00
H269   H     0.12772   0.56808   0.07639   0.00000  Uiso   1.00
H270   H     0.09302   0.62208   0.13787   0.00000  Uiso   1.00
H271   H     0.26920   0.87859   0.09037   0.00000  Uiso   1.00
H272   H     0.02759   0.80625   0.22035   0.00000  Uiso   1.00
H273   H     0.47231   0.69354   0.22032   0.00000  Uiso   1.00
H274   H     0.47241   0.80626   0.11299   0.00000  Uiso   1.00
H275   H     0.02769   0.69354   0.11302   0.00000  Uiso   1.00
H276   H     0.23075   0.53490   0.08847   0.00000  Uiso   1.00
N277   N     0.25000   0.62623   0.16667   0.00000  Uiso   1.00
N278   N     0.25000   0.87376   0.16667   0.00000  Uiso   1.00
O279   O     0.18453   0.78974   0.16667   0.00000  Uiso   1.00
O280   O     0.31547   0.71026   0.16666   0.00000  Uiso   1.00
O281   O     0.31547   0.78974   0.16666   0.00000  Uiso   1.00
O282   O     0.18453   0.71026   0.16667   0.00000  Uiso   1.00
O283   O     0.25000   0.78973   0.09511   0.00000  Uiso   1.00
O284   O     0.25000   0.71027   0.23822   0.00000  Uiso   1.00
O285   O     0.25000   0.78973   0.23822   0.00000  Uiso   1.00
O286   O     0.25000   0.71027   0.09511   0.00000  Uiso   1.00
Zn287  Zn    0.25000   0.80307   0.16667   0.00000  Uiso   1.00
Zn288  Zn    0.25000   0.69693   0.16667   0.00000  Uiso   1.00
C289   C     0.66391   0.75000   0.16668   0.00000  Uiso   1.00
C290   C     0.76117   0.94739   0.12328   0.00000  Uiso   1.00
C291   C     0.75000   0.75000   0.07287   0.00000  Uiso   1.00
C292   C     0.75000   0.75000   0.26046   0.00000  Uiso   1.00
C293   C     0.75000   0.52667   0.16667   0.00000  Uiso   1.00
C294   C     0.75000   0.97333   0.16667   0.00000  Uiso   1.00
C295   C     0.75000   0.75000   0.02181   0.00000  Uiso   1.00
C296   C     0.75000   0.75000   0.31152   0.00000  Uiso   1.00
C297   C     0.54623   0.78204   0.19679   0.00000  Uiso   1.00
C298   C     0.95372   0.71779   0.19676   0.00000  Uiso   1.00
C299   C     0.95377   0.78204   0.13655   0.00000  Uiso   1.00
C300   C     0.83609   0.75000   0.16665   0.00000  Uiso   1.00
C301   C     0.54628   0.71779   0.13658   0.00000  Uiso   1.00
C302   C     0.59242   0.78206   0.19782   0.00000  Uiso   1.00
C303   C     0.90752   0.71785   0.19777   0.00000  Uiso   1.00
C304   C     0.90758   0.78206   0.13553   0.00000  Uiso   1.00
C305   C     0.59248   0.71785   0.13556   0.00000  Uiso   1.00
C306   C     0.61579   0.74998   0.16668   0.00000  Uiso   1.00
C307   C     0.88421   0.74998   0.16665   0.00000  Uiso   1.00
C308   C     0.52380   0.74990   0.16669   0.00000  Uiso   1.00
C309   C     0.97620   0.74990   0.16666   0.00000  Uiso   1.00
C310   C     0.61476   0.81443   0.23350   0.00000  Uiso   1.00
C311   C     0.74012   0.60218   0.12379   0.00000  Uiso   1.00
C312   C     0.63820   0.79648   0.27494   0.00000  Uiso   1.00
C313   C     0.65709   0.82724   0.31006   0.00000  Uiso   1.00
C314   C     0.65293   0.87595   0.30389   0.00000  Uiso   1.00
C315   C     0.62983   0.89405   0.26260   0.00000  Uiso   1.00
C316   C     0.61058   0.86344   0.22762   0.00000  Uiso   1.00
C317   C     0.88510   0.68546   0.23338   0.00000  Uiso   1.00
C318   C     0.86183   0.70338   0.27497   0.00000  Uiso   1.00
C319   C     0.84273   0.67259   0.30991   0.00000  Uiso   1.00
C320   C     0.84649   0.62388   0.30341   0.00000  Uiso   1.00
C321   C     0.86942   0.60582   0.26197   0.00000  Uiso   1.00
C322   C     0.73925   0.89781   0.20929   0.00000  Uiso   1.00
C323   C     0.88890   0.63646   0.22717   0.00000  Uiso   1.00
C324   C     0.88524   0.81444   0.09984   0.00000  Uiso   1.00
C325   C     0.86179   0.79649   0.05840   0.00000  Uiso   1.00
C326   C     0.84291   0.82725   0.02328   0.00000  Uiso   1.00
C327   C     0.84708   0.87596   0.02945   0.00000  Uiso   1.00
C328   C     0.87018   0.89405   0.07074   0.00000  Uiso   1.00
C329   C     0.88943   0.86344   0.10572   0.00000  Uiso   1.00
C330   C     0.61489   0.68546   0.09995   0.00000  Uiso   1.00
C331   C     0.63819   0.70338   0.05838   0.00000  Uiso   1.00
C332   C     0.65729   0.67259   0.02343   0.00000  Uiso   1.00
C333   C     0.75988   0.60218   0.20955   0.00000  Uiso   1.00
C334   C     0.65350   0.62387   0.02992   0.00000  Uiso   1.00
C335   C     0.63054   0.60582   0.07134   0.00000  Uiso   1.00
C336   C     0.61107   0.63646   0.10614   0.00000  Uiso   1.00
C337   C     0.76075   0.89781   0.12405   0.00000  Uiso   1.00
C338   C     0.73971   0.55260   0.12301   0.00000  Uiso   1.00
C339   C     0.73883   0.94739   0.21006   0.00000  Uiso   1.00
C340   C     0.76029   0.55260   0.21033   0.00000  Uiso   1.00
H341   H     0.73234   0.62138   0.08989   0.00000  Uiso   1.00
H342   H     0.72917   0.96509   0.24436   0.00000  Uiso   1.00
H343   H     0.76924   0.53490   0.24486   0.00000  Uiso   1.00
H344   H     0.77083   0.96509   0.08897   0.00000  Uiso   1.00
H345   H     0.64128   0.75879   0.28034   0.00000  Uiso   1.00
H346   H     0.67475   0.81339   0.00890   0.00000  Uiso   1.00
H347   H     0.66770   0.89967   0.33103   0.00000  Uiso   1.00
H348   H     0.62673   0.93179   0.25779   0.00000  Uiso   1.00
H349   H     0.59241   0.87785   0.19601   0.00000  Uiso   1.00
H350   H     0.85902   0.74106   0.28059   0.00000  Uiso   1.00
H351   H     0.82519   0.68641   0.00886   0.00000  Uiso   1.00
H352   H     0.73080   0.87859   0.24296   0.00000  Uiso   1.00
H353   H     0.83153   0.60013   0.33040   0.00000  Uiso   1.00
H354   H     0.87222   0.56808   0.25690   0.00000  Uiso   1.00
H355   H     0.90692   0.62207   0.19543   0.00000  Uiso   1.00
H356   H     0.85871   0.75880   0.05301   0.00000  Uiso   1.00
H357   H     0.82525   0.81340   0.32445   0.00000  Uiso   1.00
H358   H     0.83231   0.89968   0.00231   0.00000  Uiso   1.00
H359   H     0.87329   0.93179   0.07555   0.00000  Uiso   1.00
H360   H     0.90761   0.87785   0.13733   0.00000  Uiso   1.00
H361   H     0.64102   0.74106   0.05277   0.00000  Uiso   1.00
H362   H     0.67485   0.68640   0.32450   0.00000  Uiso   1.00
H363   H     0.76765   0.62138   0.24344   0.00000  Uiso   1.00
H364   H     0.66845   0.60013   0.00292   0.00000  Uiso   1.00
H365   H     0.62772   0.56808   0.07639   0.00000  Uiso   1.00
H366   H     0.59302   0.62208   0.13787   0.00000  Uiso   1.00
H367   H     0.76920   0.87859   0.09037   0.00000  Uiso   1.00
H368   H     0.52759   0.80625   0.22035   0.00000  Uiso   1.00
H369   H     0.97231   0.69354   0.22032   0.00000  Uiso   1.00
H370   H     0.97241   0.80626   0.11299   0.00000  Uiso   1.00
H371   H     0.52769   0.69354   0.11302   0.00000  Uiso   1.00
H372   H     0.73075   0.53490   0.08847   0.00000  Uiso   1.00
N373   N     0.75000   0.62623   0.16667   0.00000  Uiso   1.00
N374   N     0.75000   0.87376   0.16667   0.00000  Uiso   1.00
O375   O     0.68453   0.78974   0.16667   0.00000  Uiso   1.00
O376   O     0.81547   0.71026   0.16666   0.00000  Uiso   1.00
O377   O     0.81547   0.78974   0.16666   0.00000  Uiso   1.00
O378   O     0.68453   0.71026   0.16667   0.00000  Uiso   1.00
O379   O     0.75000   0.78973   0.09511   0.00000  Uiso   1.00
O380   O     0.75000   0.71027   0.23822   0.00000  Uiso   1.00
O381   O     0.75000   0.78973   0.23822   0.00000  Uiso   1.00
O382   O     0.75000   0.71027   0.09511   0.00000  Uiso   1.00
Zn383  Zn    0.75000   0.80307   0.16667   0.00000  Uiso   1.00
Zn384  Zn    0.75000   0.69693   0.16667   0.00000  Uiso   1.00
C385   C     0.16391   0.25000   0.50001   0.00000  Uiso   1.00
C386   C     0.26117   0.44739   0.45661   0.00000  Uiso   1.00
C387   C     0.25000   0.25000   0.40621   0.00000  Uiso   1.00
C388   C     0.25000   0.25000   0.59379   0.00000  Uiso   1.00
C389   C     0.25000   0.02667   0.50000   0.00000  Uiso   1.00
C390   C     0.25000   0.47333   0.50000   0.00000  Uiso   1.00
C391   C     0.25000   0.25000   0.35515   0.00000  Uiso   1.00
C392   C     0.25000   0.25000   0.64485   0.00000  Uiso   1.00
C393   C     0.04623   0.28204   0.53013   0.00000  Uiso   1.00
C394   C     0.45372   0.21779   0.53009   0.00000  Uiso   1.00
C395   C     0.45377   0.28204   0.46989   0.00000  Uiso   1.00
C396   C     0.33609   0.25000   0.49999   0.00000  Uiso   1.00
C397   C     0.04628   0.21779   0.46991   0.00000  Uiso   1.00
C398   C     0.09242   0.28206   0.53115   0.00000  Uiso   1.00
C399   C     0.40752   0.21785   0.53111   0.00000  Uiso   1.00
C400   C     0.40758   0.28206   0.46886   0.00000  Uiso   1.00
C401   C     0.09248   0.21785   0.46889   0.00000  Uiso   1.00
C402   C     0.11579   0.24998   0.50001   0.00000  Uiso   1.00
C403   C     0.38421   0.24998   0.49999   0.00000  Uiso   1.00
C404   C     0.02380   0.24990   0.50002   0.00000  Uiso   1.00
C405   C     0.47620   0.24990   0.49999   0.00000  Uiso   1.00
C406   C     0.11476   0.31443   0.56683   0.00000  Uiso   1.00
C407   C     0.24012   0.10218   0.45712   0.00000  Uiso   1.00
C408   C     0.13820   0.29648   0.60828   0.00000  Uiso   1.00
C409   C     0.15709   0.32724   0.64339   0.00000  Uiso   1.00
C410   C     0.15293   0.37595   0.63723   0.00000  Uiso   1.00
C411   C     0.12983   0.39405   0.59593   0.00000  Uiso   1.00
C412   C     0.11058   0.36344   0.56095   0.00000  Uiso   1.00
C413   C     0.38510   0.18546   0.56671   0.00000  Uiso   1.00
C414   C     0.36183   0.20338   0.60830   0.00000  Uiso   1.00
C415   C     0.34273   0.17259   0.64325   0.00000  Uiso   1.00
C416   C     0.34649   0.12388   0.63674   0.00000  Uiso   1.00
C417   C     0.36942   0.10582   0.59531   0.00000  Uiso   1.00
C418   C     0.23925   0.39781   0.54262   0.00000  Uiso   1.00
C419   C     0.38890   0.13646   0.56051   0.00000  Uiso   1.00
C420   C     0.38524   0.31444   0.43318   0.00000  Uiso   1.00
C421   C     0.36179   0.29649   0.39173   0.00000  Uiso   1.00
C422   C     0.34291   0.32725   0.35662   0.00000  Uiso   1.00
C423   C     0.34708   0.37596   0.36278   0.00000  Uiso   1.00
C424   C     0.37018   0.39405   0.40407   0.00000  Uiso   1.00
C425   C     0.38943   0.36344   0.43905   0.00000  Uiso   1.00
C426   C     0.11489   0.18546   0.43329   0.00000  Uiso   1.00
C427   C     0.13819   0.20338   0.39171   0.00000  Uiso   1.00
C428   C     0.15729   0.17259   0.35677   0.00000  Uiso   1.00
C429   C     0.25988   0.10218   0.54288   0.00000  Uiso   1.00
C430   C     0.15350   0.12387   0.36325   0.00000  Uiso   1.00
C431   C     0.13054   0.10582   0.40467   0.00000  Uiso   1.00
C432   C     0.11107   0.13646   0.43947   0.00000  Uiso   1.00
C433   C     0.26075   0.39781   0.45738   0.00000  Uiso   1.00
C434   C     0.23971   0.05260   0.45634   0.00000  Uiso   1.00
C435   C     0.23883   0.44739   0.54339   0.00000  Uiso   1.00
C436   C     0.26029   0.05260   0.54366   0.00000  Uiso   1.00
H437   H     0.23234   0.12138   0.42323   0.00000  Uiso   1.00
H438   H     0.22917   0.46509   0.57769   0.00000  Uiso   1.00
H439   H     0.26924   0.03490   0.57820   0.00000  Uiso   1.00
H440   H     0.27083   0.46509   0.42231   0.00000  Uiso   1.00
H441   H     0.14128   0.25879   0.61367   0.00000  Uiso   1.00
H442   H     0.17475   0.31339   0.34223   0.00000  Uiso   1.00
H443   H     0.16770   0.39967   0.66436   0.00000  Uiso   1.00
H444   H     0.12673   0.43179   0.59112   0.00000  Uiso   1.00
H445   H     0.09241   0.37785   0.52934   0.00000  Uiso   1.00
H446   H     0.35902   0.24106   0.61392   0.00000  Uiso   1.00
H447   H     0.32519   0.18641   0.34219   0.00000  Uiso   1.00
H448   H     0.23080   0.37859   0.57630   0.00000  Uiso   1.00
H449   H     0.33153   0.10013   0.66374   0.00000  Uiso   1.00
H450   H     0.37222   0.06808   0.59024   0.00000  Uiso   1.00
H451   H     0.40692   0.12207   0.52877   0.00000  Uiso   1.00
H452   H     0.35871   0.25880   0.38634   0.00000  Uiso   1.00
H453   H     0.32525   0.31340   0.65778   0.00000  Uiso   1.00
H454   H     0.33231   0.39968   0.33565   0.00000  Uiso   1.00
H455   H     0.37329   0.43179   0.40888   0.00000  Uiso   1.00
H456   H     0.40761   0.37785   0.47066   0.00000  Uiso   1.00
H457   H     0.14102   0.24106   0.38611   0.00000  Uiso   1.00
H458   H     0.17485   0.18640   0.65783   0.00000  Uiso   1.00
H459   H     0.26765   0.12138   0.57677   0.00000  Uiso   1.00
H460   H     0.16845   0.10013   0.33626   0.00000  Uiso   1.00
H461   H     0.12772   0.06808   0.40973   0.00000  Uiso   1.00
H462   H     0.09302   0.12208   0.47120   0.00000  Uiso   1.00
H463   H     0.26920   0.37859   0.42370   0.00000  Uiso   1.00
H464   H     0.02759   0.30625   0.55369   0.00000  Uiso   1.00
H465   H     0.47231   0.19354   0.55365   0.00000  Uiso   1.00
H466   H     0.47241   0.30626   0.44633   0.00000  Uiso   1.00
H467   H     0.02769   0.19354   0.44636   0.00000  Uiso   1.00
H468   H     0.23075   0.03490   0.42180   0.00000  Uiso   1.00
N469   N     0.25000   0.12623   0.50000   0.00000  Uiso   1.00
N470   N     0.25000   0.37376   0.50000   0.00000  Uiso   1.00
O471   O     0.18453   0.28974   0.50000   0.00000  Uiso   1.00
O472   O     0.31547   0.21026   0.50000   0.00000  Uiso   1.00
O473   O     0.31547   0.28974   0.50000   0.00000  Uiso   1.00
O474   O     0.18453   0.21026   0.50000   0.00000  Uiso   1.00
O475   O     0.25000   0.28973   0.42845   0.00000  Uiso   1.00
O476   O     0.25000   0.21027   0.57155   0.00000  Uiso   1.00
O477   O     0.25000   0.28973   0.57155   0.00000  Uiso   1.00
O478   O     0.25000   0.21027   0.42845   0.00000  Uiso   1.00
Zn479  Zn    0.25000   0.30307   0.50000   0.00000  Uiso   1.00
Zn480  Zn    0.25000   0.19693   0.50000   0.00000  Uiso   1.00
C481   C     0.66391   0.25000   0.50001   0.00000  Uiso   1.00
C482   C     0.76117   0.44739   0.45661   0.00000  Uiso   1.00
C483   C     0.75000   0.25000   0.40621   0.00000  Uiso   1.00
C484   C     0.75000   0.25000   0.59379   0.00000  Uiso   1.00
C485   C     0.75000   0.02667   0.50000   0.00000  Uiso   1.00
C486   C     0.75000   0.47333   0.50000   0.00000  Uiso   1.00
C487   C     0.75000   0.25000   0.35515   0.00000  Uiso   1.00
C488   C     0.75000   0.25000   0.64485   0.00000  Uiso   1.00
C489   C     0.54623   0.28204   0.53013   0.00000  Uiso   1.00
C490   C     0.95372   0.21779   0.53009   0.00000  Uiso   1.00
C491   C     0.95377   0.28204   0.46989   0.00000  Uiso   1.00
C492   C     0.83609   0.25000   0.49999   0.00000  Uiso   1.00
C493   C     0.54628   0.21779   0.46991   0.00000  Uiso   1.00
C494   C     0.59242   0.28206   0.53115   0.00000  Uiso   1.00
C495   C     0.90752   0.21785   0.53111   0.00000  Uiso   1.00
C496   C     0.90758   0.28206   0.46886   0.00000  Uiso   1.00
C497   C     0.59248   0.21785   0.46889   0.00000  Uiso   1.00
C498   C     0.61579   0.24998   0.50001   0.00000  Uiso   1.00
C499   C     0.88421   0.24998   0.49999   0.00000  Uiso   1.00
C500   C     0.52380   0.24990   0.50002   0.00000  Uiso   1.00
C501   C     0.97620   0.24990   0.49999   0.00000  Uiso   1.00
C502   C     0.61476   0.31443   0.56683   0.00000  Uiso   1.00
C503   C     0.74012   0.10218   0.45712   0.00000  Uiso   1.00
C504   C     0.63820   0.29648   0.60828   0.00000  Uiso   1.00
C505   C     0.65709   0.32724   0.64339   0.00000  Uiso   1.00
C506   C     0.65293   0.37595   0.63723   0.00000  Uiso   1.00
C507   C     0.62983   0.39405   0.59593   0.00000  Uiso   1.00
C508   C     0.61058   0.36344   0.56095   0.00000  Uiso   1.00
C509   C     0.88510   0.18546   0.56671   0.00000  Uiso   1.00
C510   C     0.86183   0.20338   0.60830   0.00000  Uiso   1.00
C511   C     0.84273   0.17259   0.64325   0.00000  Uiso   1.00
C512   C     0.84649   0.12388   0.63674   0.00000  Uiso   1.00
C513   C     0.86942   0.10582   0.59531   0.00000  Uiso   1.00
C514   C     0.73925   0.39781   0.54262   0.00000  Uiso   1.00
C515   C     0.88890   0.13646   0.56051   0.00000  Uiso   1.00
C516   C     0.88524   0.31444   0.43318   0.00000  Uiso   1.00
C517   C     0.86179   0.29649   0.39173   0.00000  Uiso   1.00
C518   C     0.84291   0.32725   0.35662   0.00000  Uiso   1.00
C519   C     0.84708   0.37596   0.36278   0.00000  Uiso   1.00
C520   C     0.87018   0.39405   0.40407   0.00000  Uiso   1.00
C521   C     0.88943   0.36344   0.43905   0.00000  Uiso   1.00
C522   C     0.61489   0.18546   0.43329   0.00000  Uiso   1.00
C523   C     0.63819   0.20338   0.39171   0.00000  Uiso   1.00
C524   C     0.65729   0.17259   0.35677   0.00000  Uiso   1.00
C525   C     0.75988   0.10218   0.54288   0.00000  Uiso   1.00
C526   C     0.65350   0.12387   0.36325   0.00000  Uiso   1.00
C527   C     0.63054   0.10582   0.40467   0.00000  Uiso   1.00
C528   C     0.61107   0.13646   0.43947   0.00000  Uiso   1.00
C529   C     0.76075   0.39781   0.45738   0.00000  Uiso   1.00
C530   C     0.73971   0.05260   0.45634   0.00000  Uiso   1.00
C531   C     0.73883   0.44739   0.54339   0.00000  Uiso   1.00
C532   C     0.76029   0.05260   0.54366   0.00000  Uiso   1.00
H533   H     0.73234   0.12138   0.42323   0.00000  Uiso   1.00
H534   H     0.72917   0.46509   0.57769   0.00000  Uiso   1.00
H535   H     0.76924   0.03490   0.57820   0.00000  Uiso   1.00
H536   H     0.77083   0.46509   0.42231   0.00000  Uiso   1.00
H537   H     0.64128   0.25879   0.61367   0.00000  Uiso   1.00
H538   H     0.67475   0.31339   0.34223   0.00000  Uiso   1.00
H539   H     0.66770   0.39967   0.66436   0.00000  Uiso   1.00
H540   H     0.62673   0.43179   0.59112   0.00000  Uiso   1.00
H541   H     0.59241   0.37785   0.52934   0.00000  Uiso   1.00
H542   H     0.85902   0.24106   0.61392   0.00000  Uiso   1.00
H543   H     0.82519   0.18641   0.34219   0.00000  Uiso   1.00
H544   H     0.73080   0.37859   0.57630   0.00000  Uiso   1.00
H545   H     0.83153   0.10013   0.66374   0.00000  Uiso   1.00
H546   H     0.87222   0.06808   0.59024   0.00000  Uiso   1.00
H547   H     0.90692   0.12207   0.52877   0.00000  Uiso   1.00
H548   H     0.85871   0.25880   0.38634   0.00000  Uiso   1.00
H549   H     0.82525   0.31340   0.65778   0.00000  Uiso   1.00
H550   H     0.83231   0.39968   0.33565   0.00000  Uiso   1.00
H551   H     0.87329   0.43179   0.40888   0.00000  Uiso   1.00
H552   H     0.90761   0.37785   0.47066   0.00000  Uiso   1.00
H553   H     0.64102   0.24106   0.38611   0.00000  Uiso   1.00
H554   H     0.67485   0.18640   0.65783   0.00000  Uiso   1.00
H555   H     0.76765   0.12138   0.57677   0.00000  Uiso   1.00
H556   H     0.66845   0.10013   0.33626   0.00000  Uiso   1.00
H557   H     0.62772   0.06808   0.40973   0.00000  Uiso   1.00
H558   H     0.59302   0.12208   0.47120   0.00000  Uiso   1.00
H559   H     0.76920   0.37859   0.42370   0.00000  Uiso   1.00
H560   H     0.52759   0.30625   0.55369   0.00000  Uiso   1.00
H561   H     0.97231   0.19354   0.55365   0.00000  Uiso   1.00
H562   H     0.97241   0.30626   0.44633   0.00000  Uiso   1.00
H563   H     0.52769   0.19354   0.44636   0.00000  Uiso   1.00
H564   H     0.73075   0.03490   0.42180   0.00000  Uiso   1.00
N565   N     0.75000   0.12623   0.50000   0.00000  Uiso   1.00
N566   N     0.75000   0.37376   0.50000   0.00000  Uiso   1.00
O567   O     0.68453   0.28974   0.50000   0.00000  Uiso   1.00
O568   O     0.81547   0.21026   0.50000   0.00000  Uiso   1.00
O569   O     0.81547   0.28974   0.50000   0.00000  Uiso   1.00
O570   O     0.68453   0.21026   0.50000   0.00000  Uiso   1.00
O571   O     0.75000   0.28973   0.42845   0.00000  Uiso   1.00
O572   O     0.75000   0.21027   0.57155   0.00000  Uiso   1.00
O573   O     0.75000   0.28973   0.57155   0.00000  Uiso   1.00
O574   O     0.75000   0.21027   0.42845   0.00000  Uiso   1.00
Zn575  Zn    0.75000   0.30307   0.50000   0.00000  Uiso   1.00
Zn576  Zn    0.75000   0.19693   0.50000   0.00000  Uiso   1.00
C577   C     0.16391   0.75000   0.50001   0.00000  Uiso   1.00
C578   C     0.26117   0.94739   0.45661   0.00000  Uiso   1.00
C579   C     0.25000   0.75000   0.40621   0.00000  Uiso   1.00
C580   C     0.25000   0.75000   0.59379   0.00000  Uiso   1.00
C581   C     0.25000   0.52667   0.50000   0.00000  Uiso   1.00
C582   C     0.25000   0.97333   0.50000   0.00000  Uiso   1.00
C583   C     0.25000   0.75000   0.35515   0.00000  Uiso   1.00
C584   C     0.25000   0.75000   0.64485   0.00000  Uiso   1.00
C585   C     0.04623   0.78204   0.53013   0.00000  Uiso   1.00
C586   C     0.45372   0.71779   0.53009   0.00000  Uiso   1.00
C587   C     0.45377   0.78204   0.46989   0.00000  Uiso   1.00
C588   C     0.33609   0.75000   0.49999   0.00000  Uiso   1.00
C589   C     0.04628   0.71779   0.46991   0.00000  Uiso   1.00
C590   C     0.09242   0.78206   0.53115   0.00000  Uiso   1.00
C591   C     0.40752   0.71785   0.53111   0.00000  Uiso   1.00
C592   C     0.40758   0.78206   0.46886   0.00000  Uiso   1.00
C593   C     0.09248   0.71785   0.46889   0.00000  Uiso   1.00
C594   C     0.11579   0.74998   0.50001   0.00000  Uiso   1.00
C595   C     0.38421   0.74998   0.49999   0.00000  Uiso   1.00
C596   C     0.02380   0.74990   0.50002   0.00000  Uiso   1.00
C597   C     0.47620   0.74990   0.49999   0.00000  Uiso   1.00
C598   C     0.11476   0.81443   0.56683   0.00000  Uiso   1.00
C599   C     0.24012   0.60218   0.45712   0.00000  Uiso   1.00
C600   C     0.13820   0.79648   0.60828   0.00000  Uiso   1.00
C601   C     0.15709   0.82724   0.64339   0.00000  Uiso   1.00
C602   C     0.15293   0.87595   0.63723   0.00000  Uiso   1.00
C603   C     0.12983   0.89405   0.59593   0.00000  Uiso   1.00
C604   C     0.11058   0.86344   0.56095   0.00000  Uiso   1.00
C605   C     0.38510   0.68546   0.56671   0.00000  Uiso   1.00
C606   C     0.36183   0.70338   0.60830   0.00000  Uiso   1.00
C607   C     0.34273   0.67259   0.64325   0.00000  Uiso   1.00
C608   C     0.34649   0.62388   0.63674   0.00000  Uiso   1.00
C609   C     0.36942   0.60582   0.59531   0.00000  Uiso   1.00
C610   C     0.23925   0.89781   0.54262   0.00000  Uiso   1.00
C611   C     0.38890   0.63646   0.56051   0.00000  Uiso   1.00
C612   C     0.38524   0.81444   0.43318   0.00000  Uiso   1.00
C613   C     0.36179   0.79649   0.39173   0.00000  Uiso   1.00
C614   C     0.34291   0.82725   0.35662   0.00000  Uiso   1.00
C615   C     0.34708   0.87596   0.36278   0.00000  Uiso   1.00
C616   C     0.37018   0.89405   0.40407   0.00000  Uiso   1.00
C617   C     0.38943   0.86344   0.43905   0.00000  Uiso   1.00
C618   C     0.11489   0.68546   0.43329   0.00000  Uiso   1.00
C619   C     0.13819   0.70338   0.39171   0.00000  Uiso   1.00
C620   C     0.15729   0.67259   0.35677   0.00000  Uiso   1.00
C621   C     0.25988   0.60218   0.54288   0.00000  Uiso   1.00
C622   C     0.15350   0.62387   0.36325   0.00000  Uiso   1.00
C623   C     0.13054   0.60582   0.40467   0.00000  Uiso   1.00
C624   C     0.11107   0.63646   0.43947   0.00000  Uiso   1.00
C625   C     0.26075   0.89781   0.45738   0.00000  Uiso   1.00
C626   C     0.23971   0.55260   0.45634   0.00000  Uiso   1.00
C627   C     0.23883   0.94739   0.54339   0.00000  Uiso   1.00
C628   C     0.26029   0.55260   0.54366   0.00000  Uiso   1.00
H629   H     0.23234   0.62138   0.42323   0.00000  Uiso   1.00
H630   H     0.22917   0.96509   0.57769   0.00000  Uiso   1.00
H631   H     0.26924   0.53490   0.57820   0.00000  Uiso   1.00
H632   H     0.27083   0.96509   0.42231   0.00000  Uiso   1.00
H633   H     0.14128   0.75879   0.61367   0.00000  Uiso   1.00
H634   H     0.17475   0.81339   0.34223   0.00000  Uiso   1.00
H635   H     0.16770   0.89967   0.66436   0.00000  Uiso   1.00
H636   H     0.12673   0.93179   0.59112   0.00000  Uiso   1.00
H637   H     0.09241   0.87785   0.52934   0.00000  Uiso   1.00
H638   H     0.35902   0.74106   0.61392   0.00000  Uiso   1.00
H639   H     0.32519   0.68641   0.34219   0.00000  Uiso   1.00
H640   H     0.23080   0.87859   0.57630   0.00000  Uiso   1.00
H641   H     0.33153   0.60013   0.66374   0.00000  Uiso   1.00
H642   H     0.37222   0.56808   0.59024   0.00000  Uiso   1.00
H643   H     0.40692   0.62207   0.52877   0.00000  Uiso   1.00
H644   H     0.35871   0.75880   0.38634   0.00000  Uiso   1.00
H645   H     0.32525   0.81340   0.65778   0.00000  Uiso   1.00
H646   H     0.33231   0.89968   0.33565   0.00000  Uiso   1.00
H647   H     0.37329   0.93179   0.40888   0.00000  Uiso   1.00
H648   H     0.40761   0.87785   0.47066   0.00000  Uiso   1.00
H649   H     0.14102   0.74106   0.38611   0.00000  Uiso   1.00
H650   H     0.17485   0.68640   0.65783   0.00000  Uiso   1.00
H651   H     0.26765   0.62138   0.57677   0.00000  Uiso   1.00
H652   H     0.16845   0.60013   0.33626   0.00000  Uiso   1.00
H653   H     0.12772   0.56808   0.40973   0.00000  Uiso   1.00
H654   H     0.09302   0.62208   0.47120   0.00000  Uiso   1.00
H655   H     0.26920   0.87859   0.42370   0.00000  Uiso   1.00
H656   H     0.02759   0.80625   0.55369   0.00000  Uiso   1.00
H657   H     0.47231   0.69354   0.55365   0.00000  Uiso   1.00
H658   H     0.47241   0.80626   0.44633   0.00000  Uiso   1.00
H659   H     0.02769   0.69354   0.44636   0.00000  Uiso   1.00
H660   H     0.23075   0.53490   0.42180   0.00000  Uiso   1.00
N661   N     0.25000   0.62623   0.50000   0.00000  Uiso   1.00
N662   N     0.25000   0.87376   0.50000   0.00000  Uiso   1.00
O663   O     0.18453   0.78974   0.50000   0.00000  Uiso   1.00
O664   O     0.31547   0.71026   0.50000   0.00000  Uiso   1.00
O665   O     0.31547   0.78974   0.50000   0.00000  Uiso   1.00
O666   O     0.18453   0.71026   0.50000   0.00000  Uiso   1.00
O667   O     0.25000   0.78973   0.42845   0.00000  Uiso   1.00
O668   O     0.25000   0.71027   0.57155   0.00000  Uiso   1.00
O669   O     0.25000   0.78973   0.57155   0.00000  Uiso   1.00
O670   O     0.25000   0.71027   0.42845   0.00000  Uiso   1.00
Zn671  Zn    0.25000   0.80307   0.50000   0.00000  Uiso   1.00
Zn672  Zn    0.25000   0.69693   0.50000   0.00000  Uiso   1.00
C673   C     0.66391   0.75000   0.50001   0.00000  Uiso   1.00
C674   C     0.76117   0.94739   0.45661   0.00000  Uiso   1.00
C675   C     0.75000   0.75000   0.40621   0.00000  Uiso   1.00
C676   C     0.75000   0.75000   0.59379   0.00000  Uiso   1.00
C677   C     0.75000   0.52667   0.50000   0.00000  Uiso   1.00
C678   C     0.75000   0.97333   0.50000   0.00000  Uiso   1.00
C679   C     0.75000   0.75000   0.35515   0.00000  Uiso   1.00
C680   C     0.75000   0.75000   0.64485   0.00000  Uiso   1.00
C681   C     0.54623   0.78204   0.53013   0.00000  Uiso   1.00
C682   C     0.95372   0.71779   0.53009   0.00000  Uiso   1.00
C683   C     0.95377   0.78204   0.46989   0.00000  Uiso   1.00
C684   C     0.83609   0.75000   0.49999   0.00000  Uiso   1.00
C685   C     0.54628   0.71779   0.46991   0.00000  Uiso   1.00
C686   C     0.59242   0.78206   0.53115   0.00000  Uiso   1.00
C687   C     0.90752   0.71785   0.53111   0.00000  Uiso   1.00
C688   C     0.90758   0.78206   0.46886   0.00000  Uiso   1.00
C689   C     0.59248   0.71785   0.46889   0.00000  Uiso   1.00
C690   C     0.61579   0.74998   0.50001   0.00000  Uiso   1.00
C691   C     0.88421   0.74998   0.49999   0.00000  Uiso   1.00
C692   C     0.52380   0.74990   0.50002   0.00000  Uiso   1.00
C693   C     0.97620   0.74990   0.49999   0.00000  Uiso   1.00
C694   C     0.61476   0.81443   0.56683   0.00000  Uiso   1.00
C695   C     0.74012   0.60218   0.45712   0.00000  Uiso   1.00
C696   C     0.63820   0.79648   0.60828   0.00000  Uiso   1.00
C697   C     0.65709   0.82724   0.64339   0.00000  Uiso   1.00
C698   C     0.65293   0.87595   0.63723   0.00000  Uiso   1.00
C699   C     0.62983   0.89405   0.59593   0.00000  Uiso   1.00
C700   C     0.61058   0.86344   0.56095   0.00000  Uiso   1.00
C701   C     0.88510   0.68546   0.56671   0.00000  Uiso   1.00
C702   C     0.86183   0.70338   0.60830   0.00000  Uiso   1.00
C703   C     0.84273   0.67259   0.64325   0.00000  Uiso   1.00
C704   C     0.84649   0.62388   0.63674   0.00000  Uiso   1.00
C705   C     0.86942   0.60582   0.59531   0.00000  Uiso   1.00
C706   C     0.73925   0.89781   0.54262   0.00000  Uiso   1.00
C707   C     0.88890   0.63646   0.56051   0.00000  Uiso   1.00
C708   C     0.88524   0.81444   0.43318   0.00000  Uiso   1.00
C709   C     0.86179   0.79649   0.39173   0.00000  Uiso   1.00
C710   C     0.84291   0.82725   0.35662   0.00000  Uiso   1.00
C711   C     0.84708   0.87596   0.36278   0.00000  Uiso   1.00
C712   C     0.87018   0.89405   0.40407   0.00000  Uiso   1.00
C713   C     0.88943   0.86344   0.43905   0.00000  Uiso   1.00
C714   C     0.61489   0.68546   0.43329   0.00000  Uiso   1.00
C715   C     0.63819   0.70338   0.39171   0.00000  Uiso   1.00
C716   C     0.65729   0.67259   0.35677   0.00000  Uiso   1.00
C717   C     0.75988   0.60218   0.54288   0.00000  Uiso   1.00
C718   C     0.65350   0.62387   0.36325   0.00000  Uiso   1.00
C719   C     0.63054   0.60582   0.40467   0.00000  Uiso   1.00
C720   C     0.61107   0.63646   0.43947   0.00000  Uiso   1.00
C721   C     0.76075   0.89781   0.45738   0.00000  Uiso   1.00
C722   C     0.73971   0.55260   0.45634   0.00000  Uiso   1.00
C723   C     0.73883   0.94739   0.54339   0.00000  Uiso   1.00
C724   C     0.76029   0.55260   0.54366   0.00000  Uiso   1.00
H725   H     0.73234   0.62138   0.42323   0.00000  Uiso   1.00
H726   H     0.72917   0.96509   0.57769   0.00000  Uiso   1.00
H727   H     0.76924   0.53490   0.57820   0.00000  Uiso   1.00
H728   H     0.77083   0.96509   0.42231   0.00000  Uiso   1.00
H729   H     0.64128   0.75879   0.61367   0.00000  Uiso   1.00
H730   H     0.67475   0.81339   0.34223   0.00000  Uiso   1.00
H731   H     0.66770   0.89967   0.66436   0.00000  Uiso   1.00
H732   H     0.62673   0.93179   0.59112   0.00000  Uiso   1.00
H733   H     0.59241   0.87785   0.52934   0.00000  Uiso   1.00
H734   H     0.85902   0.74106   0.61392   0.00000  Uiso   1.00
H735   H     0.82519   0.68641   0.34219   0.00000  Uiso   1.00
H736   H     0.73080   0.87859   0.57630   0.00000  Uiso   1.00
H737   H     0.83153   0.60013   0.66374   0.00000  Uiso   1.00
H738   H     0.87222   0.56808   0.59024   0.00000  Uiso   1.00
H739   H     0.90692   0.62207   0.52877   0.00000  Uiso   1.00
H740   H     0.85871   0.75880   0.38634   0.00000  Uiso   1.00
H741   H     0.82525   0.81340   0.65778   0.00000  Uiso   1.00
H742   H     0.83231   0.89968   0.33565   0.00000  Uiso   1.00
H743   H     0.87329   0.93179   0.40888   0.00000  Uiso   1.00
H744   H     0.90761   0.87785   0.47066   0.00000  Uiso   1.00
H745   H     0.64102   0.74106   0.38611   0.00000  Uiso   1.00
H746   H     0.67485   0.68640   0.65783   0.00000  Uiso   1.00
H747   H     0.76765   0.62138   0.57677   0.00000  Uiso   1.00
H748   H     0.66845   0.60013   0.33626   0.00000  Uiso   1.00
H749   H     0.62772   0.56808   0.40973   0.00000  Uiso   1.00
H750   H     0.59302   0.62208   0.47120   0.00000  Uiso   1.00
H751   H     0.76920   0.87859   0.42370   0.00000  Uiso   1.00
H752   H     0.52759   0.80625   0.55369   0.00000  Uiso   1.00
H753   H     0.97231   0.69354   0.55365   0.00000  Uiso   1.00
H754   H     0.97241   0.80626   0.44633   0.00000  Uiso   1.00
H755   H     0.52769   0.69354   0.44636   0.00000  Uiso   1.00
H756   H     0.73075   0.53490   0.42180   0.00000  Uiso   1.00
N757   N     0.75000   0.62623   0.50000   0.00000  Uiso   1.00
N758   N     0.75000   0.87376   0.50000   0.00000  Uiso   1.00
O759   O     0.68453   0.78974   0.50000   0.00000  Uiso   1.00
O760   O     0.81547   0.71026   0.50000   0.00000  Uiso   1.00
O761   O     0.81547   0.78974   0.50000   0.00000  Uiso   1.00
O762   O     0.68453   0.71026   0.50000   0.00000  Uiso   1.00
O763   O     0.75000   0.78973   0.42845   0.00000  Uiso   1.00
O764   O     0.75000   0.71027   0.57155   0.00000  Uiso   1.00
O765   O     0.75000   0.78973   0.57155   0.00000  Uiso   1.00
O766   O     0.75000   0.71027   0.42845   0.00000  Uiso   1.00
Zn767  Zn    0.75000   0.80307   0.50000   0.00000  Uiso   1.00
Zn768  Zn    0.75000   0.69693   0.50000   0.00000  Uiso   1.00
C769   C     0.16391   0.25000   0.83335   0.00000  Uiso   1.00
C770   C     0.26117   0.44739   0.78994   0.00000  Uiso   1.00
C771   C     0.25000   0.25000   0.73954   0.00000  Uiso   1.00
C772   C     0.25000   0.25000   0.92713   0.00000  Uiso   1.00
C773   C     0.25000   0.02667   0.83333   0.00000  Uiso   1.00
C774   C     0.25000   0.47333   0.83333   0.00000  Uiso   1.00
C775   C     0.25000   0.25000   0.68848   0.00000  Uiso   1.00
C776   C     0.25000   0.25000   0.97819   0.00000  Uiso   1.00
C777   C     0.04623   0.28204   0.86346   0.00000  Uiso   1.00
C778   C     0.45372   0.21779   0.86343   0.00000  Uiso   1.00
C779   C     0.45377   0.28204   0.80322   0.00000  Uiso   1.00
C780   C     0.33609   0.25000   0.83332   0.00000  Uiso   1.00
C781   C     0.04628   0.21779   0.80325   0.00000  Uiso   1.00
C782   C     0.09242   0.28206   0.86448   0.00000  Uiso   1.00
C783   C     0.40752   0.21785   0.86444   0.00000  Uiso   1.00
C784   C     0.40758   0.28206   0.80219   0.00000  Uiso   1.00
C785   C     0.09248   0.21785   0.80223   0.00000  Uiso   1.00
C786   C     0.11579   0.24998   0.83335   0.00000  Uiso   1.00
C787   C     0.38421   0.24998   0.83332   0.00000  Uiso   1.00
C788   C     0.02380   0.24990   0.83335   0.00000  Uiso   1.00
C789   C     0.47620   0.24990   0.83333   0.00000  Uiso   1.00
C790   C     0.11476   0.31443   0.90016   0.00000  Uiso   1.00
C791   C     0.24012   0.10218   0.79045   0.00000  Uiso   1.00
C792   C     0.13820   0.29648   0.94161   0.00000  Uiso   1.00
C793   C     0.15709   0.32724   0.97673   0.00000  Uiso   1.00
C794   C     0.15293   0.37595   0.97056   0.00000  Uiso   1.00
C795   C     0.12983   0.39405   0.92926   0.00000  Uiso   1.00
C796   C     0.11058   0.36344   0.89428   0.00000  Uiso   1.00
C797   C     0.38510   0.18546   0.90005   0.00000  Uiso   1.00
C798   C     0.36183   0.20338   0.94164   0.00000  Uiso   1.00
C799   C     0.34273   0.17259   0.97658   0.00000  Uiso   1.00
C800   C     0.34649   0.12388   0.97008   0.00000  Uiso   1.00
C801   C     0.36942   0.10582   0.92864   0.00000  Uiso   1.00
C802   C     0.23925   0.39781   0.87595   0.00000  Uiso   1.00
C803   C     0.38890   0.13646   0.89384   0.00000  Uiso   1.00
C804   C     0.38524   0.31444   0.76651   0.00000  Uiso   1.00
C805   C     0.36179   0.29649   0.72507   0.00000  Uiso   1.00
C806   C     0.34291   0.32725   0.68995   0.00000  Uiso   1.00
C807   C     0.34708   0.37596   0.69612   0.00000  Uiso   1.00
C808   C     0.37018   0.39405   0.73741   0.00000  Uiso   1.00
C809   C     0.38943   0.36344   0.77239   0.00000  Uiso   1.00
C810   C     0.11489   0.18546   0.76662   0.00000  Uiso   1.00
C811   C     0.13819   0.20338   0.72504   0.00000  Uiso   1.00
C812   C     0.15729   0.17259   0.69010   0.00000  Uiso   1.00
C813   C     0.25988   0.10218   0.87621   0.00000  Uiso   1.00
C814   C     0.15350   0.12387   0.69658   0.00000  Uiso   1.00
C815   C     0.13054   0.10582   0.73800   0.00000  Uiso   1.00
C816   C     0.11107   0.13646   0.77281   0.00000  Uiso   1.00
C817   C     0.26075   0.39781   0.79071   0.00000  Uiso   1.00
C818   C     0.23971   0.05260   0.78968   0.00000  Uiso   1.00
C819   C     0.23883   0.44739   0.87672   0.00000  Uiso   1.00
C820   C     0.26029   0.05260   0.87699   0.00000  Uiso   1.00
H821   H     0.23234   0.12138   0.75656   0.00000  Uiso   1.00
H822   H     0.22917   0.46509   0.91103   0.00000  Uiso   1.00
H823   H     0.26924   0.03490   0.91153   0.00000  Uiso   1.00
H824   H     0.27083   0.46509   0.75564   0.00000  Uiso   1.00
H825   H     0.14128   0.25879   0.94700   0.00000  Uiso   1.00
H826   H     0.17475   0.31339   0.67556   0.00000  Uiso   1.00
H827   H     0.16770   0.39967   0.99769   0.00000  Uiso   1.00
H828   H     0.12673   0.43179   0.92445   0.00000  Uiso   1.00
H829   H     0.09241   0.37785   0.86268   0.00000  Uiso   1.00
H830   H     0.35902   0.24106   0.94726   0.00000  Uiso   1.00
H831   H     0.32519   0.18641   0.67553   0.00000  Uiso   1.00
H832   H     0.23080   0.37859   0.90963   0.00000  Uiso   1.00
H833   H     0.33153   0.10013   0.99707   0.00000  Uiso   1.00
H834   H     0.37222   0.06808   0.92357   0.00000  Uiso   1.00
H835   H     0.40692   0.12207   0.86210   0.00000  Uiso   1.00
H836   H     0.35871   0.25880   0.71968   0.00000  Uiso   1.00
H837   H     0.32525   0.31340   0.99111   0.00000  Uiso   1.00
H838   H     0.33231   0.39968   0.66898   0.00000  Uiso   1.00
H839   H     0.37329   0.43179   0.74221   0.00000  Uiso   1.00
H840   H     0.40761   0.37785   0.80399   0.00000  Uiso   1.00
H841   H     0.14102   0.24106   0.71944   0.00000  Uiso   1.00
H842   H     0.17485   0.18640   0.99117   0.00000  Uiso   1.00
H843   H     0.26765   0.12138   0.91011   0.00000  Uiso   1.00
H844   H     0.16845   0.10013   0.66959   0.00000  Uiso   1.00
H845   H     0.12772   0.06808   0.74306   0.00000  Uiso   1.00
H846   H     0.09302   0.12208   0.80453   0.00000  Uiso   1.00
H847   H     0.26920   0.37859   0.75704   0.00000  Uiso   1.00
H848   H     0.02759   0.30625   0.88702   0.00000  Uiso   1.00
H849   H     0.47231   0.19354   0.88698   0.00000  Uiso   1.00
H850   H     0.47241   0.30626   0.77966   0.00000  Uiso   1.00
H851   H     0.02769   0.19354   0.77969   0.00000  Uiso   1.00
H852   H     0.23075   0.03490   0.75514   0.00000  Uiso   1.00
N853   N     0.25000   0.12623   0.83333   0.00000  Uiso   1.00
N854   N     0.25000   0.37376   0.83333   0.00000  Uiso   1.00
O855   O     0.18453   0.28974   0.83334   0.00000  Uiso   1.00
O856   O     0.31547   0.21026   0.83333   0.00000  Uiso   1.00
O857   O     0.31547   0.28974   0.83333   0.00000  Uiso   1.00
O858   O     0.18453   0.21026   0.83334   0.00000  Uiso   1.00
O859   O     0.25000   0.28973   0.76178   0.00000  Uiso   1.00
O860   O     0.25000   0.21027   0.90489   0.00000  Uiso   1.00
O861   O     0.25000   0.28973   0.90489   0.00000  Uiso   1.00
O862   O     0.25000   0.21027   0.76178   0.00000  Uiso   1.00
Zn863  Zn    0.25000   0.30307   0.83333   0.00000  Uiso   1.00
Zn864  Zn    0.25000   0.19693   0.83333   0.00000  Uiso   1.00
C865   C     0.66391   0.25000   0.83335   0.00000  Uiso   1.00
C866   C     0.76117   0.44739   0.78994   0.00000  Uiso   1.00
C867   C     0.75000   0.25000   0.73954   0.00000  Uiso   1.00
C868   C     0.75000   0.25000   0.92713   0.00000  Uiso   1.00
C869   C     0.75000   0.02667   0.83333   0.00000  Uiso   1.00
C870   C     0.75000   0.47333   0.83333   0.00000  Uiso   1.00
C871   C     0.75000   0.25000   0.68848   0.00000  Uiso   1.00
C872   C     0.75000   0.25000   0.97819   0.00000  Uiso   1.00
C873   C     0.54623   0.28204   0.86346   0.00000  Uiso   1.00
C874   C     0.95372   0.21779   0.86343   0.00000  Uiso   1.00
C875   C     0.95377   0.28204   0.80322   0.00000  Uiso   1.00
C876   C     0.83609   0.25000   0.83332   0.00000  Uiso   1.00
C877   C     0.54628   0.21779   0.80325   0.00000  Uiso   1.00
C878   C     0.59242   0.28206   0.86448   0.00000  Uiso   1.00
C879   C     0.90752   0.21785   0.86444   0.00000  Uiso   1.00
C880   C     0.90758   0.28206   0.80219   0.00000  Uiso   1.00
C881   C     0.59248   0.21785   0.80223   0.00000  Uiso   1.00
C882   C     0.61579   0.24998   0.83335   0.00000  Uiso   1.00
C883   C     0.88421   0.24998   0.83332   0.00000  Uiso   1.00
C884   C     0.52380   0.24990   0.83335   0.00000  Uiso   1.00
C885   C     0.97620   0.24990   0.83333   0.00000  Uiso   1.00
C886   C     0.61476   0.31443   0.90016   0.00000  Uiso   1.00
C887   C     0.74012   0.10218   0.79045   0.00000  Uiso   1.00
C888   C     0.63820   0.29648   0.94161   0.00000  Uiso   1.00
C889   C     0.65709   0.32724   0.97673   0.00000  Uiso   1.00
C890   C     0.65293   0.37595   0.97056   0.00000  Uiso   1.00
C891   C     0.62983   0.39405   0.92926   0.00000  Uiso   1.00
C892   C     0.61058   0.36344   0.89428   0.00000  Uiso   1.00
C893   C     0.88510   0.18546   0.90005   0.00000  Uiso   1.00
C894   C     0.86183   0.20338   0.94164   0.00000  Uiso   1.00
C895   C     0.84273   0.17259   0.97658   0.00000  Uiso   1.00
C896   C     0.84649   0.12388   0.97008   0.00000  Uiso   1.00
C897   C     0.86942   0.10582   0.92864   0.00000  Uiso   1.00
C898   C     0.73925   0.39781   0.87595   0.00000  Uiso   1.00
C899   C     0.88890   0.13646   0.89384   0.00000  Uiso   1.00
C900   C     0.88524   0.31444   0.76651   0.00000  Uiso   1.00
C901   C     0.86179   0.29649   0.72507   0.00000  Uiso   1.00
C902   C     0.84291   0.32725   0.68995   0.00000  Uiso   1.00
C903   C     0.84708   0.37596   0.69612   0.00000  Uiso   1.00
C904   C     0.87018   0.39405   0.73741   0.00000  Uiso   1.00
C905   C     0.88943   0.36344   0.77239   0.00000  Uiso   1.00
C906   C     0.61489   0.18546   0.76662   0.00000  Uiso   1.00
C907   C     0.63819   0.20338   0.72504   0.00000  Uiso   1.00
C908   C     0.65729   0.17259   0.69010   0.00000  Uiso   1.00
C909   C     0.75988   0.10218   0.87621   0.00000  Uiso   1.00
C910   C     0.65350   0.12387   0.69658   0.00000  Uiso   1.00
C911   C     0.63054   0.10582   0.73800   0.00000  Uiso   1.00
C912   C     0.61107   0.13646   0.77281   0.00000  Uiso   1.00
C913   C     0.76075   0.39781   0.79071   0.00000  Uiso   1.00
C914   C     0.73971   0.05260   0.78968   0.00000  Uiso   1.00
C915   C     0.73883   0.44739   0.87672   0.00000  Uiso   1.00
C916   C     0.76029   0.05260   0.87699   0.00000  Uiso   1.00
H917   H     0.73234   0.12138   0.75656   0.00000  Uiso   1.00
H918   H     0.72917   0.46509   0.91103   0.00000  Uiso   1.00
H919   H     0.76924   0.03490   0.91153   0.00000  Uiso   1.00
H920   H     0.77083   0.46509   0.75564   0.00000  Uiso   1.00
H921   H     0.64128   0.25879   0.94700   0.00000  Uiso   1.00
H922   H     0.67475   0.31339   0.67556   0.00000  Uiso   1.00
H923   H     0.66770   0.39967   0.99769   0.00000  Uiso   1.00
H924   H     0.62673   0.43179   0.92445   0.00000  Uiso   1.00
H925   H     0.59241   0.37785   0.86268   0.00000  Uiso   1.00
H926   H     0.85902   0.24106   0.94726   0.00000  Uiso   1.00
H927   H     0.82519   0.18641   0.67553   0.00000  Uiso   1.00
H928   H     0.73080   0.37859   0.90963   0.00000  Uiso   1.00
H929   H     0.83153   0.10013   0.99707   0.00000  Uiso   1.00
H930   H     0.87222   0.06808   0.92357   0.00000  Uiso   1.00
H931   H     0.90692   0.12207   0.86210   0.00000  Uiso   1.00
H932   H     0.85871   0.25880   0.71968   0.00000  Uiso   1.00
H933   H     0.82525   0.31340   0.99111   0.00000  Uiso   1.00
H934   H     0.83231   0.39968   0.66898   0.00000  Uiso   1.00
H935   H     0.87329   0.43179   0.74221   0.00000  Uiso   1.00
H936   H     0.90761   0.37785   0.80399   0.00000  Uiso   1.00
H937   H     0.64102   0.24106   0.71944   0.00000  Uiso   1.00
H938   H     0.67485   0.18640   0.99117   0.00000  Uiso   1.00
H939   H     0.76765   0.12138   0.91011   0.00000  Uiso   1.00
H940   H     0.66845   0.10013   0.66959   0.00000  Uiso   1.00
H941   H     0.62772   0.06808   0.74306   0.00000  Uiso   1.00
H942   H     0.59302   0.12208   0.80453   0.00000  Uiso   1.00
H943   H     0.76920   0.37859   0.75704   0.00000  Uiso   1.00
H944   H     0.52759   0.30625   0.88702   0.00000  Uiso   1.00
H945   H     0.97231   0.19354   0.88698   0.00000  Uiso   1.00
H946   H     0.97241   0.30626   0.77966   0.00000  Uiso   1.00
H947   H     0.52769   0.19354   0.77969   0.00000  Uiso   1.00
H948   H     0.73075   0.03490   0.75514   0.00000  Uiso   1.00
N949   N     0.75000   0.12623   0.83333   0.00000  Uiso   1.00
N950   N     0.75000   0.37376   0.83333   0.00000  Uiso   1.00
O951   O     0.68453   0.28974   0.83334   0.00000  Uiso   1.00
O952   O     0.81547   0.21026   0.83333   0.00000  Uiso   1.00
O953   O     0.81547   0.28974   0.83333   0.00000  Uiso   1.00
O954   O     0.68453   0.21026   0.83334   0.00000  Uiso   1.00
O955   O     0.75000   0.28973   0.76178   0.00000  Uiso   1.00
O956   O     0.75000   0.21027   0.90489   0.00000  Uiso   1.00
O957   O     0.75000   0.28973   0.90489   0.00000  Uiso   1.00
O958   O     0.75000   0.21027   0.76178   0.00000  Uiso   1.00
Zn959  Zn    0.75000   0.30307   0.83333   0.00000  Uiso   1.00
Zn960  Zn    0.75000   0.19693   0.83333   0.00000  Uiso   1.00
C961   C     0.16391   0.75000   0.83335   0.00000  Uiso   1.00
C962   C     0.26117   0.94739   0.78994   0.00000  Uiso   1.00
C963   C     0.25000   0.75000   0.73954   0.00000  Uiso   1.00
C964   C     0.25000   0.75000   0.92713   0.00000  Uiso   1.00
C965   C     0.25000   0.52667   0.83333   0.00000  Uiso   1.00
C966   C     0.25000   0.97333   0.83333   0.00000  Uiso   1.00
C967   C     0.25000   0.75000   0.68848   0.00000  Uiso   1.00
C968   C     0.25000   0.75000   0.97819   0.00000  Uiso   1.00
C969   C     0.04623   0.78204   0.86346   0.00000  Uiso   1.00
C970   C     0.45372   0.71779   0.86343   0.00000  Uiso   1.00
C971   C     0.45377   0.78204   0.80322   0.00000  Uiso   1.00
C972   C     0.33609   0.75000   0.83332   0.00000  Uiso   1.00
C973   C     0.04628   0.71779   0.80325   0.00000  Uiso   1.00
C974   C     0.09242   0.78206   0.86448   0.00000  Uiso   1.00
C975   C     0.40752   0.71785   0.86444   0.00000  Uiso   1.00
C976   C     0.40758   0.78206   0.80219   0.00000  Uiso   1.00
C977   C     0.09248   0.71785   0.80223   0.00000  Uiso   1.00
C978   C     0.11579   0.74998   0.83335   0.00000  Uiso   1.00
C979   C     0.38421   0.74998   0.83332   0.00000  Uiso   1.00
C980   C     0.02380   0.74990   0.83335   0.00000  Uiso   1.00
C981   C     0.47620   0.74990   0.83333   0.00000  Uiso   1.00
C982   C     0.11476   0.81443   0.90016   0.00000  Uiso   1.00
C983   C     0.24012   0.60218   0.79045   0.00000  Uiso   1.00
C984   C     0.13820   0.79648   0.94161   0.00000  Uiso   1.00
C985   C     0.15709   0.82724   0.97673   0.00000  Uiso   1.00
C986   C     0.15293   0.87595   0.97056   0.00000  Uiso   1.00
C987   C     0.12983   0.89405   0.92926   0.00000  Uiso   1.00
C988   C     0.11058   0.86344   0.89428   0.00000  Uiso   1.00
C989   C     0.38510   0.68546   0.90005   0.00000  Uiso   1.00
C990   C     0.36183   0.70338   0.94164   0.00000  Uiso   1.00
C991   C     0.34273   0.67259   0.97658   0.00000  Uiso   1.00
C992   C     0.34649   0.62388   0.97008   0.00000  Uiso   1.00
C993   C     0.36942   0.60582   0.92864   0.00000  Uiso   1.00
C994   C     0.23925   0.89781   0.87595   0.00000  Uiso   1.00
C995   C     0.38890   0.63646   0.89384   0.00000  Uiso   1.00
C996   C     0.38524   0.81444   0.76651   0.00000  Uiso   1.00
C997   C     0.36179   0.79649   0.72507   0.00000  Uiso   1.00
C998   C     0.34291   0.82725   0.68995   0.00000  Uiso   1.00
C999   C     0.34708   0.87596   0.69612   0.00000  Uiso   1.00
C1000  C     0.37018   0.89405   0.73741   0.00000  Uiso   1.00
C1001  C     0.38943   0.86344   0.77239   0.00000  Uiso   1.00
C1002  C     0.11489   0.68546   0.76662   0.00000  Uiso   1.00
C1003  C     0.13819   0.70338   0.72504   0.00000  Uiso   1.00
C1004  C     0.15729   0.67259   0.69010   0.00000  Uiso   1.00
C1005  C     0.25988   0.60218   0.87621   0.00000  Uiso   1.00
C1006  C     0.15350   0.62387   0.69658   0.00000  Uiso   1.00
C1007  C     0.13054   0.60582   0.73800   0.00000  Uiso   1.00
C1008  C     0.11107   0.63646   0.77281   0.00000  Uiso   1.00
C1009  C     0.26075   0.89781   0.79071   0.00000  Uiso   1.00
C1010  C     0.23971   0.55260   0.78968   0.00000  Uiso   1.00
C1011  C     0.23883   0.94739   0.87672   0.00000  Uiso   1.00
C1012  C     0.26029   0.55260   0.87699   0.00000  Uiso   1.00
H1013  H     0.23234   0.62138   0.75656   0.00000  Uiso   1.00
H1014  H     0.22917   0.96509   0.91103   0.00000  Uiso   1.00
H1015  H     0.26924   0.53490   0.91153   0.00000  Uiso   1.00
H1016  H     0.27083   0.96509   0.75564   0.00000  Uiso   1.00
H1017  H     0.14128   0.75879   0.94700   0.00000  Uiso   1.00
H1018  H     0.17475   0.81339   0.67556   0.00000  Uiso   1.00
H1019  H     0.16770   0.89967   0.99769   0.00000  Uiso   1.00
H1020  H     0.12673   0.93179   0.92445   0.00000  Uiso   1.00
H1021  H     0.09241   0.87785   0.86268   0.00000  Uiso   1.00
H1022  H     0.35902   0.74106   0.94726   0.00000  Uiso   1.00
H1023  H     0.32519   0.68641   0.67553   0.00000  Uiso   1.00
H1024  H     0.23080   0.87859   0.90963   0.00000  Uiso   1.00
H1025  H     0.33153   0.60013   0.99707   0.00000  Uiso   1.00
H1026  H     0.37222   0.56808   0.92357   0.00000  Uiso   1.00
H1027  H     0.40692   0.62207   0.86210   0.00000  Uiso   1.00
H1028  H     0.35871   0.75880   0.71968   0.00000  Uiso   1.00
H1029  H     0.32525   0.81340   0.99111   0.00000  Uiso   1.00
H1030  H     0.33231   0.89968   0.66898   0.00000  Uiso   1.00
H1031  H     0.37329   0.93179   0.74221   0.00000  Uiso   1.00
H1032  H     0.40761   0.87785   0.80399   0.00000  Uiso   1.00
H1033  H     0.14102   0.74106   0.71944   0.00000  Uiso   1.00
H1034  H     0.17485   0.68640   0.99117   0.00000  Uiso   1.00
H1035  H     0.26765   0.62138   0.91011   0.00000  Uiso   1.00
H1036  H     0.16845   0.60013   0.66959   0.00000  Uiso   1.00
H1037  H     0.12772   0.56808   0.74306   0.00000  Uiso   1.00
H1038  H     0.09302   0.62208   0.80453   0.00000  Uiso   1.00
H1039  H     0.26920   0.87859   0.75704   0.00000  Uiso   1.00
H1040  H     0.02759   0.80625   0.88702   0.00000  Uiso   1.00
H1041  H     0.47231   0.69354   0.88698   0.00000  Uiso   1.00
H1042  H     0.47241   0.80626   0.77966   0.00000  Uiso   1.00
H1043  H     0.02769   0.69354   0.77969   0.00000  Uiso   1.00
H1044  H     0.23075   0.53490   0.75514   0.00000  Uiso   1.00
N1045  N     0.25000   0.62623   0.83333   0.00000  Uiso   1.00
N1046  N     0.25000   0.87376   0.83333   0.00000  Uiso   1.00
O1047  O     0.18453   0.78974   0.83334   0.00000  Uiso   1.00
O1048  O     0.31547   0.71026   0.83333   0.00000  Uiso   1.00
O1049  O     0.31547   0.78974   0.83333   0.00000  Uiso   1.00
O1050  O     0.18453   0.71026   0.83334   0.00000  Uiso   1.00
O1051  O     0.25000   0.78973   0.76178   0.00000  Uiso   1.00
O1052  O     0.25000   0.71027   0.90489   0.00000  Uiso   1.00
O1053  O     0.25000   0.78973   0.90489   0.00000  Uiso   1.00
O1054  O     0.25000   0.71027   0.76178   0.00000  Uiso   1.00
Zn1055 Zn    0.25000   0.80307   0.83333   0.00000  Uiso   1.00
Zn1056 Zn    0.25000   0.69693   0.83333   0.00000  Uiso   1.00
C1057  C     0.66391   0.75000   0.83335   0.00000  Uiso   1.00
C1058  C     0.76117   0.94739   0.78994   0.00000  Uiso   1.00
C1059  C     0.75000   0.75000   0.73954   0.00000  Uiso   1.00
C1060  C     0.75000   0.75000   0.92713   0.00000  Uiso   1.00
C1061  C     0.75000   0.52667   0.83333   0.00000  Uiso   1.00
C1062  C     0.75000   0.97333   0.83333   0.00000  Uiso   1.00
C1063  C     0.75000   0.75000   0.68848   0.00000  Uiso   1.00
C1064  C     0.75000   0.75000   0.97819   0.00000  Uiso   1.00
C1065  C     0.54623   0.78204   0.86346   0.00000  Uiso   1.00
C1066  C     0.95372   0.71779   0.86343   0.00000  Uiso   1.00
C1067  C     0.95377   0.78204   0.80322   0.00000  Uiso   1.00
C1068  C     0.83609   0.75000   0.83332   0.00000  Uiso   1.00
C1069  C     0.54628   0.71779   0.80325   0.00000  Uiso   1.00
C1070  C     0.59242   0.78206   0.86448   0.00000  Uiso   1.00
C1071  C     0.90752   0.71785   0.86444   0.00000  Uiso   1.00
C1072  C     0.90758   0.78206   0.80219   0.00000  Uiso   1.00
C1073  C     0.59248   0.71785   0.80223   0.00000  Uiso   1.00
C1074  C     0.61579   0.74998   0.83335   0.00000  Uiso   1.00
C1075  C     0.88421   0.74998   0.83332   0.00000  Uiso   1.00
C1076  C     0.52380   0.74990   0.83335   0.00000  Uiso   1.00
C1077  C     0.97620   0.74990   0.83333   0.00000  Uiso   1.00
C1078  C     0.61476   0.81443   0.90016   0.00000  Uiso   1.00
C1079  C     0.74012   0.60218   0.79045   0.00000  Uiso   1.00
C1080  C     0.63820   0.79648   0.94161   0.00000  Uiso   1.00
C1081  C     0.65709   0.82724   0.97673   0.00000  Uiso   1.00
C1082  C     0.65293   0.87595   0.97056   0.00000  Uiso   1.00
C1083  C     0.62983   0.89405   0.92926   0.00000  Uiso   1.00
C1084  C     0.61058   0.86344   0.89428   0.00000  Uiso   1.00
C1085  C     0.88510   0.68546   0.90005   0.00000  Uiso   1.00
C1086  C     0.86183   0.70338   0.94164   0.00000  Uiso   1.00
C1087  C     0.84273   0.67259   0.97658   0.00000  Uiso   1.00
C1088  C     0.84649   0.62388   0.97008   0.00000  Uiso   1.00
C1089  C     0.86942   0.60582   0.92864   0.00000  Uiso   1.00
C1090  C     0.73925   0.89781   0.87595   0.00000  Uiso   1.00
C1091  C     0.88890   0.63646   0.89384   0.00000  Uiso   1.00
C1092  C     0.88524   0.81444   0.76651   0.00000  Uiso   1.00
C1093  C     0.86179   0.79649   0.72507   0.00000  Uiso   1.00
C1094  C     0.84291   0.82725   0.68995   0.00000  Uiso   1.00
C1095  C     0.84708   0.87596   0.69612   0.00000  Uiso   1.00
C1096  C     0.87018   0.89405   0.73741   0.00000  Uiso   1.00
C1097  C     0.88943   0.86344   0.77239   0.00000  Uiso   1.00
C1098  C     0.61489   0.68546   0.76662   0.00000  Uiso   1.00
C1099  C     0.63819   0.70338   0.72504   0.00000  Uiso   1.00
C1100  C     0.65729   0.67259   0.69010   0.00000  Uiso   1.00
C1101  C     0.75988   0.60218   0.87621   0.00000  Uiso   1.00
C1102  C     0.65350   0.62387   0.69658   0.00000  Uiso   1.00
C1103  C     0.63054   0.60582   0.73800   0.00000  Uiso   1.00
C1104  C     0.61107   0.63646   0.77281   0.00000  Uiso   1.00
C1105  C     0.76075   0.89781   0.79071   0.00000  Uiso   1.00
C1106  C     0.73971   0.55260   0.78968   0.00000  Uiso   1.00
C1107  C     0.73883   0.94739   0.87672   0.00000  Uiso   1.00
C1108  C     0.76029   0.55260   0.87699   0.00000  Uiso   1.00
H1109  H     0.73234   0.62138   0.75656   0.00000  Uiso   1.00
H1110  H     0.72917   0.96509   0.91103   0.00000  Uiso   1.00
H1111  H     0.76924   0.53490   0.91153   0.00000  Uiso   1.00
H1112  H     0.77083   0.96509   0.75564   0.00000  Uiso   1.00
H1113  H     0.64128   0.75879   0.94700   0.00000  Uiso   1.00
H1114  H     0.67475   0.81339   0.67556   0.00000  Uiso   1.00
H1115  H     0.66770   0.89967   0.99769   0.00000  Uiso   1.00
H1116  H     0.62673   0.93179   0.92445   0.00000  Uiso   1.00
H1117  H     0.59241   0.87785   0.86268   0.00000  Uiso   1.00
H1118  H     0.85902   0.74106   0.94726   0.00000  Uiso   1.00
H1119  H     0.82519   0.68641   0.67553   0.00000  Uiso   1.00
H1120  H     0.73080   0.87859   0.90963   0.00000  Uiso   1.00
H1121  H     0.83153   0.60013   0.99707   0.00000  Uiso   1.00
H1122  H     0.87222   0.56808   0.92357   0.00000  Uiso   1.00
H1123  H     0.90692   0.62207   0.86210   0.00000  Uiso   1.00
H1124  H     0.85871   0.75880   0.71968   0.00000  Uiso   1.00
H1125  H     0.82525   0.81340   0.99111   0.00000  Uiso   1.00
H1126  H     0.83231   0.89968   0.66898   0.00000  Uiso   1.00
H1127  H     0.87329   0.93179   0.74221   0.00000  Uiso   1.00
H1128  H     0.90761   0.87785   0.80399   0.00000  Uiso   1.00
H1129  H     0.64102   0.74106   0.71944   0.00000  Uiso   1.00
H1130  H     0.67485   0.68640   0.99117   0.00000  Uiso   1.00
H1131  H     0.76765   0.62138   0.91011   0.00000  Uiso   1.00
H1132  H     0.66845   0.60013   0.66959   0.00000  Uiso   1.00
H1133  H     0.62772   0.56808   0.74306   0.00000  Uiso   1.00
H1134  H     0.59302   0.62208   0.80453   0.00000  Uiso   1.00
H1135  H     0.76920   0.87859   0.75704   0.00000  Uiso   1.00
H1136  H     0.52759   0.80625   0.88702   0.00000  Uiso   1.00
H1137  H     0.97231   0.69354   0.88698   0.00000  Uiso   1.00
H1138  H     0.97241   0.80626   0.77966   0.00000  Uiso   1.00
H1139  H     0.52769   0.69354   0.77969   0.00000  Uiso   1.00
H1140  H     0.73075   0.53490   0.75514   0.00000  Uiso   1.00
N1141  N     0.75000   0.62623   0.83333   0.00000  Uiso   1.00
N1142  N     0.75000   0.87376   0.83333   0.00000  Uiso   1.00
O1143  O     0.68453   0.78974   0.83334   0.00000  Uiso   1.00
O1144  O     0.81547   0.71026   0.83333   0.00000  Uiso   1.00
O1145  O     0.81547   0.78974   0.83333   0.00000  Uiso   1.00
O1146  O     0.68453   0.71026   0.83334   0.00000  Uiso   1.00
O1147  O     0.75000   0.78973   0.76178   0.00000  Uiso   1.00
O1148  O     0.75000   0.71027   0.90489   0.00000  Uiso   1.00
O1149  O     0.75000   0.78973   0.90489   0.00000  Uiso   1.00
O1150  O     0.75000   0.71027   0.76178   0.00000  Uiso   1.00
Zn1151 Zn    0.75000   0.80307   0.83333   0.00000  Uiso   1.00
Zn1152 Zn    0.75000   0.69693   0.83333   0.00000  Uiso   1.00
loop_
_geom_bond_atom_site_label_1
_geom_bond_atom_site_label_2
_geom_bond_distance
_geom_bond_site_symmetry_2
_ccdc_geom_bond_type
C1     O87     1.286   .     A
C1     O90     1.286   .     A
C1     C18     1.443   .     S
C2     C6      1.410   .     A
C2     C49     1.407   .     A
C2     H56     1.082   .     S
C3     C7      1.360   .     S
C3     O91     1.273   .     A
C3     O94     1.273   .     A
C4     C8      1.360   .     S
C4     O93     1.273   .     A
C4     O92     1.273   .     A
C5     C52     1.410   .     A
C5     C50     1.410   .     A
C5     C198    1.513   1_545 S
C6     C51     1.410   .     A
C6     C197    1.513   .     S
C7     C776    1.162   1_554 S
C8     C391    1.162   .     S
C9     H80     1.085   .     S
C9     C14     1.386   .     A
C9     C20     1.388   .     A
C10    C21     1.388   .     A
C10    H81     1.085   .     S
C10    C15     1.385   .     A
C11    H82     1.085   .     S
C11    C21     1.388   .     A
C11    C16     1.386   .     A
C12    O88     1.286   .     A
C12    O89     1.286   .     A
C12    C19     1.443   .     S
C13    H83     1.085   .     S
C13    C20     1.388   .     A
C13    C17     1.385   .     A
C14    C18     1.417   .     A
C14    C22     1.482   .     S
C15    C19     1.417   .     A
C15    C29     1.482   .     S
C16    C36     1.482   .     S
C16    C19     1.417   .     A
C17    C42     1.482   .     S
C17    C18     1.417   .     A
C20    C117    1.427   1_455 S
C21    C116    1.427   .     S
C22    C28     1.405   .     A
C22    C24     1.404   .     A
C23    H53     1.080   .     S
C23    C50     1.407   .     A
C23    N85     1.363   .     A
C24    H57     1.083   .     S
C24    C25     1.399   .     A
C25    C26     1.397   .     A
C25    H442    1.081   .     S
C26    H59     1.082   .     S
C26    C27     1.398   .     A
C27    H60     1.082   .     S
C27    C28     1.398   .     A
C28    H61     1.083   .     S
C29    C30     1.404   .     A
C29    C35     1.405   .     A
C30    C31     1.399   .     A
C30    H62     1.083   .     S
C31    C32     1.397   .     A
C31    H447    1.081   .     S
C32    C33     1.398   .     A
C32    H65     1.082   .     S
C33    H66     1.082   .     S
C33    C35     1.398   .     A
C34    N86     1.363   .     A
C34    C51     1.407   .     A
C34    H64     1.080   .     S
C35    H67     1.083   .     S
C36    C37     1.404   .     A
C36    C41     1.405   .     A
C37    H68     1.083   .     S
C37    C38     1.399   .     A
C38    C39     1.397   .     A
C38    H837    1.081   1_554 S
C39    C40     1.398   .     A
C39    H70     1.082   .     S
C40    H71     1.082   .     S
C40    C41     1.398   .     A
C41    H72     1.083   .     S
C42    C48     1.405   .     A
C42    C43     1.404   .     A
C43    H73     1.083   .     S
C43    C44     1.399   .     A
C44    C46     1.397   .     A
C44    H842    1.081   1_554 S
C45    C52     1.407   .     A
C45    N85     1.363   .     A
C45    H75     1.080   .     S
C46    H76     1.082   .     S
C46    C47     1.398   .     A
C47    C48     1.398   .     A
C47    H77     1.082   .     S
C48    H78     1.083   .     S
C49    H79     1.080   .     S
C49    N86     1.363   .     A
C50    H84     1.082   .     S
C51    H54     1.082   .     S
C52    H55     1.082   .     S
H58    C793    1.081   1_554 S
H63    C799    1.081   1_554 S
H69    C422    1.081   .     S
H74    C428    1.081   .     S
N85    Zn96    2.005   .     S
N86    Zn95    2.005   .     S
O87    Zn95    1.999   .     S
O88    Zn96    1.999   .     S
O89    Zn95    1.999   .     S
O90    Zn96    1.999   .     S
O91    Zn95    1.943   .     S
O92    Zn96    1.943   .     S
O93    Zn95    1.943   .     S
O94    Zn96    1.943   .     S
C97    O183    1.286   .     A
C97    O186    1.286   .     A
C97    C114    1.443   .     S
C98    C102    1.410   .     A
C98    C145    1.407   .     A
C98    H152    1.082   .     S
C99    C103    1.360   .     S
C99    O187    1.273   .     A
C99    O190    1.273   .     A
C100   C104    1.360   .     S
C100   O189    1.273   .     A
C100   O188    1.273   .     A
C101   C148    1.410   .     A
C101   C146    1.410   .     A
C101   C294    1.513   1_545 S
C102   C147    1.410   .     A
C102   C293    1.513   .     S
C103   C872    1.162   1_554 S
C104   C487    1.162   .     S
C105   H176    1.085   .     S
C105   C110    1.386   .     A
C105   C116    1.388   .     A
C106   C117    1.388   .     A
C106   H177    1.085   .     S
C106   C111    1.385   .     A
C107   H178    1.085   .     S
C107   C117    1.388   .     A
C107   C112    1.386   .     A
C108   O184    1.286   .     A
C108   O185    1.286   .     A
C108   C115    1.443   .     S
C109   H179    1.085   .     S
C109   C116    1.388   .     A
C109   C113    1.385   .     A
C110   C114    1.417   .     A
C110   C118    1.482   .     S
C111   C115    1.417   .     A
C111   C125    1.482   .     S
C112   C132    1.482   .     S
C112   C115    1.417   .     A
C113   C138    1.482   .     S
C113   C114    1.417   .     A
C117   C20     1.427   1_655 S
C118   C124    1.405   .     A
C118   C120    1.404   .     A
C119   H149    1.080   .     S
C119   C146    1.407   .     A
C119   N181    1.363   .     A
C120   H153    1.083   .     S
C120   C121    1.399   .     A
C121   C122    1.397   .     A
C121   H538    1.081   .     S
C122   H155    1.082   .     S
C122   C123    1.398   .     A
C123   H156    1.082   .     S
C123   C124    1.398   .     A
C124   H157    1.083   .     S
C125   C126    1.404   .     A
C125   C131    1.405   .     A
C126   C127    1.399   .     A
C126   H158    1.083   .     S
C127   C128    1.397   .     A
C127   H543    1.081   .     S
C128   C129    1.398   .     A
C128   H161    1.082   .     S
C129   H162    1.082   .     S
C129   C131    1.398   .     A
C130   N182    1.363   .     A
C130   C147    1.407   .     A
C130   H160    1.080   .     S
C131   H163    1.083   .     S
C132   C133    1.404   .     A
C132   C137    1.405   .     A
C133   H164    1.083   .     S
C133   C134    1.399   .     A
C134   C135    1.397   .     A
C134   H933    1.081   1_554 S
C135   C136    1.398   .     A
C135   H166    1.082   .     S
C136   H167    1.082   .     S
C136   C137    1.398   .     A
C137   H168    1.083   .     S
C138   C144    1.405   .     A
C138   C139    1.404   .     A
C139   H169    1.083   .     S
C139   C140    1.399   .     A
C140   C142    1.397   .     A
C140   H938    1.081   1_554 S
C141   C148    1.407   .     A
C141   N181    1.363   .     A
C141   H171    1.080   .     S
C142   H172    1.082   .     S
C142   C143    1.398   .     A
C143   C144    1.398   .     A
C143   H173    1.082   .     S
C144   H174    1.083   .     S
C145   H175    1.080   .     S
C145   N182    1.363   .     A
C146   H180    1.082   .     S
C147   H150    1.082   .     S
C148   H151    1.082   .     S
H154   C889    1.081   1_554 S
H159   C895    1.081   1_554 S
H165   C518    1.081   .     S
H170   C524    1.081   .     S
N181   Zn192   2.005   .     S
N182   Zn191   2.005   .     S
O183   Zn191   1.999   .     S
O184   Zn192   1.999   .     S
O185   Zn191   1.999   .     S
O186   Zn192   1.999   .     S
O187   Zn191   1.943   .     S
O188   Zn192   1.943   .     S
O189   Zn191   1.943   .     S
O190   Zn192   1.943   .     S
C193   O279    1.286   .     A
C193   O282    1.286   .     A
C193   C210    1.443   .     S
C194   C198    1.410   .     A
C194   C241    1.407   .     A
C194   H248    1.082   .     S
C195   C199    1.360   .     S
C195   O283    1.273   .     A
C195   O286    1.273   .     A
C196   C200    1.360   .     S
C196   O285    1.273   .     A
C196   O284    1.273   .     A
C197   C244    1.410   .     A
C197   C242    1.410   .     A
C198   C243    1.410   .     A
C198   C5      1.513   1_565 S
C199   C968    1.162   1_554 S
C200   C583    1.162   .     S
C201   H272    1.085   .     S
C201   C206    1.386   .     A
C201   C212    1.388   .     A
C202   C213    1.388   .     A
C202   H273    1.085   .     S
C202   C207    1.385   .     A
C203   H274    1.085   .     S
C203   C213    1.388   .     A
C203   C208    1.386   .     A
C204   O280    1.286   .     A
C204   O281    1.286   .     A
C204   C211    1.443   .     S
C205   H275    1.085   .     S
C205   C212    1.388   .     A
C205   C209    1.385   .     A
C206   C210    1.417   .     A
C206   C214    1.482   .     S
C207   C211    1.417   .     A
C207   C221    1.482   .     S
C208   C228    1.482   .     S
C208   C211    1.417   .     A
C209   C234    1.482   .     S
C209   C210    1.417   .     A
C212   C309    1.427   1_455 S
C213   C308    1.427   .     S
C214   C220    1.405   .     A
C214   C216    1.404   .     A
C215   H245    1.080   .     S
C215   C242    1.407   .     A
C215   N277    1.363   .     A
C216   H249    1.083   .     S
C216   C217    1.399   .     A
C217   C218    1.397   .     A
C217   H634    1.081   .     S
C218   H251    1.082   .     S
C218   C219    1.398   .     A
C219   H252    1.082   .     S
C219   C220    1.398   .     A
C220   H253    1.083   .     S
C221   C222    1.404   .     A
C221   C227    1.405   .     A
C222   C223    1.399   .     A
C222   H254    1.083   .     S
C223   C224    1.397   .     A
C223   H639    1.081   .     S
C224   C225    1.398   .     A
C224   H257    1.082   .     S
C225   H258    1.082   .     S
C225   C227    1.398   .     A
C226   N278    1.363   .     A
C226   C243    1.407   .     A
C226   H256    1.080   .     S
C227   H259    1.083   .     S
C228   C229    1.404   .     A
C228   C233    1.405   .     A
C229   H260    1.083   .     S
C229   C230    1.399   .     A
C230   C231    1.397   .     A
C230   H1029   1.081   1_554 S
C231   C232    1.398   .     A
C231   H262    1.082   .     S
C232   H263    1.082   .     S
C232   C233    1.398   .     A
C233   H264    1.083   .     S
C234   C240    1.405   .     A
C234   C235    1.404   .     A
C235   H265    1.083   .     S
C235   C236    1.399   .     A
C236   C238    1.397   .     A
C236   H1034   1.081   1_554 S
C237   C244    1.407   .     A
C237   N277    1.363   .     A
C237   H267    1.080   .     S
C238   H268    1.082   .     S
C238   C239    1.398   .     A
C239   C240    1.398   .     A
C239   H269    1.082   .     S
C240   H270    1.083   .     S
C241   H271    1.080   .     S
C241   N278    1.363   .     A
C242   H276    1.082   .     S
C243   H246    1.082   .     S
C244   H247    1.082   .     S
H250   C985    1.081   1_554 S
H255   C991    1.081   1_554 S
H261   C614    1.081   .     S
H266   C620    1.081   .     S
N277   Zn288   2.005   .     S
N278   Zn287   2.005   .     S
O279   Zn287   1.999   .     S
O280   Zn288   1.999   .     S
O281   Zn287   1.999   .     S
O282   Zn288   1.999   .     S
O283   Zn287   1.943   .     S
O284   Zn288   1.943   .     S
O285   Zn287   1.943   .     S
O286   Zn288   1.943   .     S
C289   O375    1.286   .     A
C289   O378    1.286   .     A
C289   C306    1.443   .     S
C290   C294    1.410   .     A
C290   C337    1.407   .     A
C290   H344    1.082   .     S
C291   C295    1.360   .     S
C291   O379    1.273   .     A
C291   O382    1.273   .     A
C292   C296    1.360   .     S
C292   O381    1.273   .     A
C292   O380    1.273   .     A
C293   C340    1.410   .     A
C293   C338    1.410   .     A
C294   C339    1.410   .     A
C294   C101    1.513   1_565 S
C295   C1064   1.162   1_554 S
C296   C679    1.162   .     S
C297   H368    1.085   .     S
C297   C302    1.386   .     A
C297   C308    1.388   .     A
C298   C309    1.388   .     A
C298   H369    1.085   .     S
C298   C303    1.385   .     A
C299   H370    1.085   .     S
C299   C309    1.388   .     A
C299   C304    1.386   .     A
C300   O376    1.286   .     A
C300   O377    1.286   .     A
C300   C307    1.443   .     S
C301   H371    1.085   .     S
C301   C308    1.388   .     A
C301   C305    1.385   .     A
C302   C306    1.417   .     A
C302   C310    1.482   .     S
C303   C307    1.417   .     A
C303   C317    1.482   .     S
C304   C324    1.482   .     S
C304   C307    1.417   .     A
C305   C330    1.482   .     S
C305   C306    1.417   .     A
C309   C212    1.427   1_655 S
C310   C316    1.405   .     A
C310   C312    1.404   .     A
C311   H341    1.080   .     S
C311   C338    1.407   .     A
C311   N373    1.363   .     A
C312   H345    1.083   .     S
C312   C313    1.399   .     A
C313   C314    1.397   .     A
C313   H730    1.081   .     S
C314   H347    1.082   .     S
C314   C315    1.398   .     A
C315   H348    1.082   .     S
C315   C316    1.398   .     A
C316   H349    1.083   .     S
C317   C318    1.404   .     A
C317   C323    1.405   .     A
C318   C319    1.399   .     A
C318   H350    1.083   .     S
C319   C320    1.397   .     A
C319   H735    1.081   .     S
C320   C321    1.398   .     A
C320   H353    1.082   .     S
C321   H354    1.082   .     S
C321   C323    1.398   .     A
C322   N374    1.363   .     A
C322   C339    1.407   .     A
C322   H352    1.080   .     S
C323   H355    1.083   .     S
C324   C325    1.404   .     A
C324   C329    1.405   .     A
C325   H356    1.083   .     S
C325   C326    1.399   .     A
C326   C327    1.397   .     A
C326   H1125   1.081   1_554 S
C327   C328    1.398   .     A
C327   H358    1.082   .     S
C328   H359    1.082   .     S
C328   C329    1.398   .     A
C329   H360    1.083   .     S
C330   C336    1.405   .     A
C330   C331    1.404   .     A
C331   H361    1.083   .     S
C331   C332    1.399   .     A
C332   C334    1.397   .     A
C332   H1130   1.081   1_554 S
C333   C340    1.407   .     A
C333   N373    1.363   .     A
C333   H363    1.080   .     S
C334   H364    1.082   .     S
C334   C335    1.398   .     A
C335   C336    1.398   .     A
C335   H365    1.082   .     S
C336   H366    1.083   .     S
C337   H367    1.080   .     S
C337   N374    1.363   .     A
C338   H372    1.082   .     S
C339   H342    1.082   .     S
C340   H343    1.082   .     S
H346   C1081   1.081   1_554 S
H351   C1087   1.081   1_554 S
H357   C710    1.081   .     S
H362   C716    1.081   .     S
N373   Zn384   2.005   .     S
N374   Zn383   2.005   .     S
O375   Zn383   1.999   .     S
O376   Zn384   1.999   .     S
O377   Zn383   1.999   .     S
O378   Zn384   1.999   .     S
O379   Zn383   1.943   .     S
O380   Zn384   1.943   .     S
O381   Zn383   1.943   .     S
O382   Zn384   1.943   .     S
C385   O471    1.286   .     A
C385   O474    1.286   .     A
C385   C402    1.443   .     S
C386   C390    1.410   .     A
C386   C433    1.407   .     A
C386   H440    1.082   .     S
C387   C391    1.360   .     S
C387   O475    1.273   .     A
C387   O478    1.273   .     A
C388   C392    1.360   .     S
C388   O477    1.273   .     A
C388   O476    1.273   .     A
C389   C436    1.410   .     A
C389   C434    1.410   .     A
C389   C582    1.513   1_545 S
C390   C435    1.410   .     A
C390   C581    1.513   .     S
C392   C775    1.162   .     S
C393   H464    1.085   .     S
C393   C398    1.386   .     A
C393   C404    1.388   .     A
C394   C405    1.388   .     A
C394   H465    1.085   .     S
C394   C399    1.385   .     A
C395   H466    1.085   .     S
C395   C405    1.388   .     A
C395   C400    1.386   .     A
C396   O472    1.286   .     A
C396   O473    1.286   .     A
C396   C403    1.443   .     S
C397   H467    1.085   .     S
C397   C404    1.388   .     A
C397   C401    1.385   .     A
C398   C402    1.417   .     A
C398   C406    1.482   .     S
C399   C403    1.417   .     A
C399   C413    1.482   .     S
C400   C420    1.482   .     S
C400   C403    1.417   .     A
C401   C426    1.482   .     S
C401   C402    1.417   .     A
C404   C501    1.427   1_455 S
C405   C500    1.427   .     S
C406   C412    1.405   .     A
C406   C408    1.404   .     A
C407   H437    1.080   .     S
C407   C434    1.407   .     A
C407   N469    1.363   .     A
C408   H441    1.083   .     S
C408   C409    1.399   .     A
C409   C410    1.397   .     A
C409   H826    1.081   .     S
C410   H443    1.082   .     S
C410   C411    1.398   .     A
C411   H444    1.082   .     S
C411   C412    1.398   .     A
C412   H445    1.083   .     S
C413   C414    1.404   .     A
C413   C419    1.405   .     A
C414   C415    1.399   .     A
C414   H446    1.083   .     S
C415   C416    1.397   .     A
C415   H831    1.081   .     S
C416   C417    1.398   .     A
C416   H449    1.082   .     S
C417   H450    1.082   .     S
C417   C419    1.398   .     A
C418   N470    1.363   .     A
C418   C435    1.407   .     A
C418   H448    1.080   .     S
C419   H451    1.083   .     S
C420   C421    1.404   .     A
C420   C425    1.405   .     A
C421   H452    1.083   .     S
C421   C422    1.399   .     A
C422   C423    1.397   .     A
C423   C424    1.398   .     A
C423   H454    1.082   .     S
C424   H455    1.082   .     S
C424   C425    1.398   .     A
C425   H456    1.083   .     S
C426   C432    1.405   .     A
C426   C427    1.404   .     A
C427   H457    1.083   .     S
C427   C428    1.399   .     A
C428   C430    1.397   .     A
C429   C436    1.407   .     A
C429   N469    1.363   .     A
C429   H459    1.080   .     S
C430   H460    1.082   .     S
C430   C431    1.398   .     A
C431   C432    1.398   .     A
C431   H461    1.082   .     S
C432   H462    1.083   .     S
C433   H463    1.080   .     S
C433   N470    1.363   .     A
C434   H468    1.082   .     S
C435   H438    1.082   .     S
C436   H439    1.082   .     S
H453   C806    1.081   .     S
H458   C812    1.081   .     S
N469   Zn480   2.005   .     S
N470   Zn479   2.005   .     S
O471   Zn479   1.999   .     S
O472   Zn480   1.999   .     S
O473   Zn479   1.999   .     S
O474   Zn480   1.999   .     S
O475   Zn479   1.943   .     S
O476   Zn480   1.943   .     S
O477   Zn479   1.943   .     S
O478   Zn480   1.943   .     S
C481   O567    1.286   .     A
C481   O570    1.286   .     A
C481   C498    1.443   .     S
C482   C486    1.410   .     A
C482   C529    1.407   .     A
C482   H536    1.082   .     S
C483   C487    1.360   .     S
C483   O571    1.273   .     A
C483   O574    1.273   .     A
C484   C488    1.360   .     S
C484   O573    1.273   .     A
C484   O572    1.273   .     A
C485   C532    1.410   .     A
C485   C530    1.410   .     A
C485   C678    1.513   1_545 S
C486   C531    1.410   .     A
C486   C677    1.513   .     S
C488   C871    1.162   .     S
C489   H560    1.085   .     S
C489   C494    1.386   .     A
C489   C500    1.388   .     A
C490   C501    1.388   .     A
C490   H561    1.085   .     S
C490   C495    1.385   .     A
C491   H562    1.085   .     S
C491   C501    1.388   .     A
C491   C496    1.386   .     A
C492   O568    1.286   .     A
C492   O569    1.286   .     A
C492   C499    1.443   .     S
C493   H563    1.085   .     S
C493   C500    1.388   .     A
C493   C497    1.385   .     A
C494   C498    1.417   .     A
C494   C502    1.482   .     S
C495   C499    1.417   .     A
C495   C509    1.482   .     S
C496   C516    1.482   .     S
C496   C499    1.417   .     A
C497   C522    1.482   .     S
C497   C498    1.417   .     A
C501   C404    1.427   1_655 S
C502   C508    1.405   .     A
C502   C504    1.404   .     A
C503   H533    1.080   .     S
C503   C530    1.407   .     A
C503   N565    1.363   .     A
C504   H537    1.083   .     S
C504   C505    1.399   .     A
C505   C506    1.397   .     A
C505   H922    1.081   .     S
C506   H539    1.082   .     S
C506   C507    1.398   .     A
C507   H540    1.082   .     S
C507   C508    1.398   .     A
C508   H541    1.083   .     S
C509   C510    1.404   .     A
C509   C515    1.405   .     A
C510   C511    1.399   .     A
C510   H542    1.083   .     S
C511   C512    1.397   .     A
C511   H927    1.081   .     S
C512   C513    1.398   .     A
C512   H545    1.082   .     S
C513   H546    1.082   .     S
C513   C515    1.398   .     A
C514   N566    1.363   .     A
C514   C531    1.407   .     A
C514   H544    1.080   .     S
C515   H547    1.083   .     S
C516   C517    1.404   .     A
C516   C521    1.405   .     A
C517   H548    1.083   .     S
C517   C518    1.399   .     A
C518   C519    1.397   .     A
C519   C520    1.398   .     A
C519   H550    1.082   .     S
C520   H551    1.082   .     S
C520   C521    1.398   .     A
C521   H552    1.083   .     S
C522   C528    1.405   .     A
C522   C523    1.404   .     A
C523   H553    1.083   .     S
C523   C524    1.399   .     A
C524   C526    1.397   .     A
C525   C532    1.407   .     A
C525   N565    1.363   .     A
C525   H555    1.080   .     S
C526   H556    1.082   .     S
C526   C527    1.398   .     A
C527   C528    1.398   .     A
C527   H557    1.082   .     S
C528   H558    1.083   .     S
C529   H559    1.080   .     S
C529   N566    1.363   .     A
C530   H564    1.082   .     S
C531   H534    1.082   .     S
C532   H535    1.082   .     S
H549   C902    1.081   .     S
H554   C908    1.081   .     S
N565   Zn576   2.005   .     S
N566   Zn575   2.005   .     S
O567   Zn575   1.999   .     S
O568   Zn576   1.999   .     S
O569   Zn575   1.999   .     S
O570   Zn576   1.999   .     S
O571   Zn575   1.943   .     S
O572   Zn576   1.943   .     S
O573   Zn575   1.943   .     S
O574   Zn576   1.943   .     S
C577   O663    1.286   .     A
C577   O666    1.286   .     A
C577   C594    1.443   .     S
C578   C582    1.410   .     A
C578   C625    1.407   .     A
C578   H632    1.082   .     S
C579   C583    1.360   .     S
C579   O667    1.273   .     A
C579   O670    1.273   .     A
C580   C584    1.360   .     S
C580   O669    1.273   .     A
C580   O668    1.273   .     A
C581   C628    1.410   .     A
C581   C626    1.410   .     A
C582   C627    1.410   .     A
C582   C389    1.513   1_565 S
C584   C967    1.162   .     S
C585   H656    1.085   .     S
C585   C590    1.386   .     A
C585   C596    1.388   .     A
C586   C597    1.388   .     A
C586   H657    1.085   .     S
C586   C591    1.385   .     A
C587   H658    1.085   .     S
C587   C597    1.388   .     A
C587   C592    1.386   .     A
C588   O664    1.286   .     A
C588   O665    1.286   .     A
C588   C595    1.443   .     S
C589   H659    1.085   .     S
C589   C596    1.388   .     A
C589   C593    1.385   .     A
C590   C594    1.417   .     A
C590   C598    1.482   .     S
C591   C595    1.417   .     A
C591   C605    1.482   .     S
C592   C612    1.482   .     S
C592   C595    1.417   .     A
C593   C618    1.482   .     S
C593   C594    1.417   .     A
C596   C693    1.427   1_455 S
C597   C692    1.427   .     S
C598   C604    1.405   .     A
C598   C600    1.404   .     A
C599   H629    1.080   .     S
C599   C626    1.407   .     A
C599   N661    1.363   .     A
C600   H633    1.083   .     S
C600   C601    1.399   .     A
C601   C602    1.397   .     A
C601   H1018   1.081   .     S
C602   H635    1.082   .     S
C602   C603    1.398   .     A
C603   H636    1.082   .     S
C603   C604    1.398   .     A
C604   H637    1.083   .     S
C605   C606    1.404   .     A
C605   C611    1.405   .     A
C606   C607    1.399   .     A
C606   H638    1.083   .     S
C607   C608    1.397   .     A
C607   H1023   1.081   .     S
C608   C609    1.398   .     A
C608   H641    1.082   .     S
C609   H642    1.082   .     S
C609   C611    1.398   .     A
C610   N662    1.363   .     A
C610   C627    1.407   .     A
C610   H640    1.080   .     S
C611   H643    1.083   .     S
C612   C613    1.404   .     A
C612   C617    1.405   .     A
C613   H644    1.083   .     S
C613   C614    1.399   .     A
C614   C615    1.397   .     A
C615   C616    1.398   .     A
C615   H646    1.082   .     S
C616   H647    1.082   .     S
C616   C617    1.398   .     A
C617   H648    1.083   .     S
C618   C624    1.405   .     A
C618   C619    1.404   .     A
C619   H649    1.083   .     S
C619   C620    1.399   .     A
C620   C622    1.397   .     A
C621   C628    1.407   .     A
C621   N661    1.363   .     A
C621   H651    1.080   .     S
C622   H652    1.082   .     S
C622   C623    1.398   .     A
C623   C624    1.398   .     A
C623   H653    1.082   .     S
C624   H654    1.083   .     S
C625   H655    1.080   .     S
C625   N662    1.363   .     A
C626   H660    1.082   .     S
C627   H630    1.082   .     S
C628   H631    1.082   .     S
H645   C998    1.081   .     S
H650   C1004   1.081   .     S
N661   Zn672   2.005   .     S
N662   Zn671   2.005   .     S
O663   Zn671   1.999   .     S
O664   Zn672   1.999   .     S
O665   Zn671   1.999   .     S
O666   Zn672   1.999   .     S
O667   Zn671   1.943   .     S
O668   Zn672   1.943   .     S
O669   Zn671   1.943   .     S
O670   Zn672   1.943   .     S
C673   O759    1.286   .     A
C673   O762    1.286   .     A
C673   C690    1.443   .     S
C674   C678    1.410   .     A
C674   C721    1.407   .     A
C674   H728    1.082   .     S
C675   C679    1.360   .     S
C675   O763    1.273   .     A
C675   O766    1.273   .     A
C676   C680    1.360   .     S
C676   O765    1.273   .     A
C676   O764    1.273   .     A
C677   C724    1.410   .     A
C677   C722    1.410   .     A
C678   C723    1.410   .     A
C678   C485    1.513   1_565 S
C680   C1063   1.162   .     S
C681   H752    1.085   .     S
C681   C686    1.386   .     A
C681   C692    1.388   .     A
C682   C693    1.388   .     A
C682   H753    1.085   .     S
C682   C687    1.385   .     A
C683   H754    1.085   .     S
C683   C693    1.388   .     A
C683   C688    1.386   .     A
C684   O760    1.286   .     A
C684   O761    1.286   .     A
C684   C691    1.443   .     S
C685   H755    1.085   .     S
C685   C692    1.388   .     A
C685   C689    1.385   .     A
C686   C690    1.417   .     A
C686   C694    1.482   .     S
C687   C691    1.417   .     A
C687   C701    1.482   .     S
C688   C708    1.482   .     S
C688   C691    1.417   .     A
C689   C714    1.482   .     S
C689   C690    1.417   .     A
C693   C596    1.427   1_655 S
C694   C700    1.405   .     A
C694   C696    1.404   .     A
C695   H725    1.080   .     S
C695   C722    1.407   .     A
C695   N757    1.363   .     A
C696   H729    1.083   .     S
C696   C697    1.399   .     A
C697   C698    1.397   .     A
C697   H1114   1.081   .     S
C698   H731    1.082   .     S
C698   C699    1.398   .     A
C699   H732    1.082   .     S
C699   C700    1.398   .     A
C700   H733    1.083   .     S
C701   C702    1.404   .     A
C701   C707    1.405   .     A
C702   C703    1.399   .     A
C702   H734    1.083   .     S
C703   C704    1.397   .     A
C703   H1119   1.081   .     S
C704   C705    1.398   .     A
C704   H737    1.082   .     S
C705   H738    1.082   .     S
C705   C707    1.398   .     A
C706   N758    1.363   .     A
C706   C723    1.407   .     A
C706   H736    1.080   .     S
C707   H739    1.083   .     S
C708   C709    1.404   .     A
C708   C713    1.405   .     A
C709   H740    1.083   .     S
C709   C710    1.399   .     A
C710   C711    1.397   .     A
C711   C712    1.398   .     A
C711   H742    1.082   .     S
C712   H743    1.082   .     S
C712   C713    1.398   .     A
C713   H744    1.083   .     S
C714   C720    1.405   .     A
C714   C715    1.404   .     A
C715   H745    1.083   .     S
C715   C716    1.399   .     A
C716   C718    1.397   .     A
C717   C724    1.407   .     A
C717   N757    1.363   .     A
C717   H747    1.080   .     S
C718   H748    1.082   .     S
C718   C719    1.398   .     A
C719   C720    1.398   .     A
C719   H749    1.082   .     S
C720   H750    1.083   .     S
C721   H751    1.080   .     S
C721   N758    1.363   .     A
C722   H756    1.082   .     S
C723   H726    1.082   .     S
C724   H727    1.082   .     S
H741   C1094   1.081   .     S
H746   C1100   1.081   .     S
N757   Zn768   2.005   .     S
N758   Zn767   2.005   .     S
O759   Zn767   1.999   .     S
O760   Zn768   1.999   .     S
O761   Zn767   1.999   .     S
O762   Zn768   1.999   .     S
O763   Zn767   1.943   .     S
O764   Zn768   1.943   .     S
O765   Zn767   1.943   .     S
O766   Zn768   1.943   .     S
C769   O855    1.286   .     A
C769   O858    1.286   .     A
C769   C786    1.443   .     S
C770   C774    1.410   .     A
C770   C817    1.407   .     A
C770   H824    1.082   .     S
C771   C775    1.360   .     S
C771   O859    1.273   .     A
C771   O862    1.273   .     A
C772   C776    1.360   .     S
C772   O861    1.273   .     A
C772   O860    1.273   .     A
C773   C820    1.410   .     A
C773   C818    1.410   .     A
C773   C966    1.513   1_545 S
C774   C819    1.410   .     A
C774   C965    1.513   .     S
C776   C7      1.162   1_556 S
C777   H848    1.085   .     S
C777   C782    1.386   .     A
C777   C788    1.388   .     A
C778   C789    1.388   .     A
C778   H849    1.085   .     S
C778   C783    1.385   .     A
C779   H850    1.085   .     S
C779   C789    1.388   .     A
C779   C784    1.386   .     A
C780   O856    1.286   .     A
C780   O857    1.286   .     A
C780   C787    1.443   .     S
C781   H851    1.085   .     S
C781   C788    1.388   .     A
C781   C785    1.385   .     A
C782   C786    1.417   .     A
C782   C790    1.482   .     S
C783   C787    1.417   .     A
C783   C797    1.482   .     S
C784   C804    1.482   .     S
C784   C787    1.417   .     A
C785   C810    1.482   .     S
C785   C786    1.417   .     A
C788   C885    1.427   1_455 S
C789   C884    1.427   .     S
C790   C796    1.405   .     A
C790   C792    1.404   .     A
C791   H821    1.080   .     S
C791   C818    1.407   .     A
C791   N853    1.363   .     A
C792   H825    1.083   .     S
C792   C793    1.399   .     A
C793   C794    1.397   .     A
C793   H58     1.081   1_556 S
C794   H827    1.082   .     S
C794   C795    1.398   .     A
C795   H828    1.082   .     S
C795   C796    1.398   .     A
C796   H829    1.083   .     S
C797   C798    1.404   .     A
C797   C803    1.405   .     A
C798   C799    1.399   .     A
C798   H830    1.083   .     S
C799   C800    1.397   .     A
C799   H63     1.081   1_556 S
C800   C801    1.398   .     A
C800   H833    1.082   .     S
C801   H834    1.082   .     S
C801   C803    1.398   .     A
C802   N854    1.363   .     A
C802   C819    1.407   .     A
C802   H832    1.080   .     S
C803   H835    1.083   .     S
C804   C805    1.404   .     A
C804   C809    1.405   .     A
C805   H836    1.083   .     S
C805   C806    1.399   .     A
C806   C807    1.397   .     A
C807   C808    1.398   .     A
C807   H838    1.082   .     S
C808   H839    1.082   .     S
C808   C809    1.398   .     A
C809   H840    1.083   .     S
C810   C816    1.405   .     A
C810   C811    1.404   .     A
C811   H841    1.083   .     S
C811   C812    1.399   .     A
C812   C814    1.397   .     A
C813   C820    1.407   .     A
C813   N853    1.363   .     A
C813   H843    1.080   .     S
C814   H844    1.082   .     S
C814   C815    1.398   .     A
C815   C816    1.398   .     A
C815   H845    1.082   .     S
C816   H846    1.083   .     S
C817   H847    1.080   .     S
C817   N854    1.363   .     A
C818   H852    1.082   .     S
C819   H822    1.082   .     S
C820   H823    1.082   .     S
H837   C38     1.081   1_556 S
H842   C44     1.081   1_556 S
N853   Zn864   2.005   .     S
N854   Zn863   2.005   .     S
O855   Zn863   1.999   .     S
O856   Zn864   1.999   .     S
O857   Zn863   1.999   .     S
O858   Zn864   1.999   .     S
O859   Zn863   1.943   .     S
O860   Zn864   1.943   .     S
O861   Zn863   1.943   .     S
O862   Zn864   1.943   .     S
C865   O951    1.286   .     A
C865   O954    1.286   .     A
C865   C882    1.443   .     S
C866   C870    1.410   .     A
C866   C913    1.407   .     A
C866   H920    1.082   .     S
C867   C871    1.360   .     S
C867   O955    1.273   .     A
C867   O958    1.273   .     A
C868   C872    1.360   .     S
C868   O957    1.273   .     A
C868   O956    1.273   .     A
C869   C916    1.410   .     A
C869   C914    1.410   .     A
C869   C1062   1.513   1_545 S
C870   C915    1.410   .     A
C870   C1061   1.513   .     S
C872   C103    1.162   1_556 S
C873   H944    1.085   .     S
C873   C878    1.386   .     A
C873   C884    1.388   .     A
C874   C885    1.388   .     A
C874   H945    1.085   .     S
C874   C879    1.385   .     A
C875   H946    1.085   .     S
C875   C885    1.388   .     A
C875   C880    1.386   .     A
C876   O952    1.286   .     A
C876   O953    1.286   .     A
C876   C883    1.443   .     S
C877   H947    1.085   .     S
C877   C884    1.388   .     A
C877   C881    1.385   .     A
C878   C882    1.417   .     A
C878   C886    1.482   .     S
C879   C883    1.417   .     A
C879   C893    1.482   .     S
C880   C900    1.482   .     S
C880   C883    1.417   .     A
C881   C906    1.482   .     S
C881   C882    1.417   .     A
C885   C788    1.427   1_655 S
C886   C892    1.405   .     A
C886   C888    1.404   .     A
C887   H917    1.080   .     S
C887   C914    1.407   .     A
C887   N949    1.363   .     A
C888   H921    1.083   .     S
C888   C889    1.399   .     A
C889   C890    1.397   .     A
C889   H154    1.081   1_556 S
C890   H923    1.082   .     S
C890   C891    1.398   .     A
C891   H924    1.082   .     S
C891   C892    1.398   .     A
C892   H925    1.083   .     S
C893   C894    1.404   .     A
C893   C899    1.405   .     A
C894   C895    1.399   .     A
C894   H926    1.083   .     S
C895   C896    1.397   .     A
C895   H159    1.081   1_556 S
C896   C897    1.398   .     A
C896   H929    1.082   .     S
C897   H930    1.082   .     S
C897   C899    1.398   .     A
C898   N950    1.363   .     A
C898   C915    1.407   .     A
C898   H928    1.080   .     S
C899   H931    1.083   .     S
C900   C901    1.404   .     A
C900   C905    1.405   .     A
C901   H932    1.083   .     S
C901   C902    1.399   .     A
C902   C903    1.397   .     A
C903   C904    1.398   .     A
C903   H934    1.082   .     S
C904   H935    1.082   .     S
C904   C905    1.398   .     A
C905   H936    1.083   .     S
C906   C912    1.405   .     A
C906   C907    1.404   .     A
C907   H937    1.083   .     S
C907   C908    1.399   .     A
C908   C910    1.397   .     A
C909   C916    1.407   .     A
C909   N949    1.363   .     A
C909   H939    1.080   .     S
C910   H940    1.082   .     S
C910   C911    1.398   .     A
C911   C912    1.398   .     A
C911   H941    1.082   .     S
C912   H942    1.083   .     S
C913   H943    1.080   .     S
C913   N950    1.363   .     A
C914   H948    1.082   .     S
C915   H918    1.082   .     S
C916   H919    1.082   .     S
H933   C134    1.081   1_556 S
H938   C140    1.081   1_556 S
N949   Zn960   2.005   .     S
N950   Zn959   2.005   .     S
O951   Zn959   1.999   .     S
O952   Zn960   1.999   .     S
O953   Zn959   1.999   .     S
O954   Zn960   1.999   .     S
O955   Zn959   1.943   .     S
O956   Zn960   1.943   .     S
O957   Zn959   1.943   .     S
O958   Zn960   1.943   .     S
C961   O1047   1.286   .     A
C961   O1050   1.286   .     A
C961   C978    1.443   .     S
C962   C966    1.410   .     A
C962   C1009   1.407   .     A
C962   H1016   1.082   .     S
C963   C967    1.360   .     S
C963   O1051   1.273   .     A
C963   O1054   1.273   .     A
C964   C968    1.360   .     S
C964   O1053   1.273   .     A
C964   O1052   1.273   .     A
C965   C1012   1.410   .     A
C965   C1010   1.410   .     A
C966   C1011   1.410   .     A
C966   C773    1.513   1_565 S
C968   C199    1.162   1_556 S
C969   H1040   1.085   .     S
C969   C974    1.386   .     A
C969   C980    1.388   .     A
C970   C981    1.388   .     A
C970   H1041   1.085   .     S
C970   C975    1.385   .     A
C971   H1042   1.085   .     S
C971   C981    1.388   .     A
C971   C976    1.386   .     A
C972   O1048   1.286   .     A
C972   O1049   1.286   .     A
C972   C979    1.443   .     S
C973   H1043   1.085   .     S
C973   C980    1.388   .     A
C973   C977    1.385   .     A
C974   C978    1.417   .     A
C974   C982    1.482   .     S
C975   C979    1.417   .     A
C975   C989    1.482   .     S
C976   C996    1.482   .     S
C976   C979    1.417   .     A
C977   C1002   1.482   .     S
C977   C978    1.417   .     A
C980   C1077   1.427   1_455 S
C981   C1076   1.427   .     S
C982   C988    1.405   .     A
C982   C984    1.404   .     A
C983   H1013   1.080   .     S
C983   C1010   1.407   .     A
C983   N1045   1.363   .     A
C984   H1017   1.083   .     S
C984   C985    1.399   .     A
C985   C986    1.397   .     A
C985   H250    1.081   1_556 S
C986   H1019   1.082   .     S
C986   C987    1.398   .     A
C987   H1020   1.082   .     S
C987   C988    1.398   .     A
C988   H1021   1.083   .     S
C989   C990    1.404   .     A
C989   C995    1.405   .     A
C990   C991    1.399   .     A
C990   H1022   1.083   .     S
C991   C992    1.397   .     A
C991   H255    1.081   1_556 S
C992   C993    1.398   .     A
C992   H1025   1.082   .     S
C993   H1026   1.082   .     S
C993   C995    1.398   .     A
C994   N1046   1.363   .     A
C994   C1011   1.407   .     A
C994   H1024   1.080   .     S
C995   H1027   1.083   .     S
C996   C997    1.404   .     A
C996   C1001   1.405   .     A
C997   H1028   1.083   .     S
C997   C998    1.399   .     A
C998   C999    1.397   .     A
C999   C1000   1.398   .     A
C999   H1030   1.082   .     S
C1000  H1031   1.082   .     S
C1000  C1001   1.398   .     A
C1001  H1032   1.083   .     S
C1002  C1008   1.405   .     A
C1002  C1003   1.404   .     A
C1003  H1033   1.083   .     S
C1003  C1004   1.399   .     A
C1004  C1006   1.397   .     A
C1005  C1012   1.407   .     A
C1005  N1045   1.363   .     A
C1005  H1035   1.080   .     S
C1006  H1036   1.082   .     S
C1006  C1007   1.398   .     A
C1007  C1008   1.398   .     A
C1007  H1037   1.082   .     S
C1008  H1038   1.083   .     S
C1009  H1039   1.080   .     S
C1009  N1046   1.363   .     A
C1010  H1044   1.082   .     S
C1011  H1014   1.082   .     S
C1012  H1015   1.082   .     S
H1029  C230    1.081   1_556 S
H1034  C236    1.081   1_556 S
N1045  Zn1056  2.005   .     S
N1046  Zn1055  2.005   .     S
O1047  Zn1055  1.999   .     S
O1048  Zn1056  1.999   .     S
O1049  Zn1055  1.999   .     S
O1050  Zn1056  1.999   .     S
O1051  Zn1055  1.943   .     S
O1052  Zn1056  1.943   .     S
O1053  Zn1055  1.943   .     S
O1054  Zn1056  1.943   .     S
C1057  O1143   1.286   .     A
C1057  O1146   1.286   .     A
C1057  C1074   1.443   .     S
C1058  C1062   1.410   .     A
C1058  C1105   1.407   .     A
C1058  H1112   1.082   .     S
C1059  C1063   1.360   .     S
C1059  O1147   1.273   .     A
C1059  O1150   1.273   .     A
C1060  C1064   1.360   .     S
C1060  O1149   1.273   .     A
C1060  O1148   1.273   .     A
C1061  C1108   1.410   .     A
C1061  C1106   1.410   .     A
C1062  C1107   1.410   .     A
C1062  C869    1.513   1_565 S
C1064  C295    1.162   1_556 S
C1065  H1136   1.085   .     S
C1065  C1070   1.386   .     A
C1065  C1076   1.388   .     A
C1066  C1077   1.388   .     A
C1066  H1137   1.085   .     S
C1066  C1071   1.385   .     A
C1067  H1138   1.085   .     S
C1067  C1077   1.388   .     A
C1067  C1072   1.386   .     A
C1068  O1144   1.286   .     A
C1068  O1145   1.286   .     A
C1068  C1075   1.443   .     S
C1069  H1139   1.085   .     S
C1069  C1076   1.388   .     A
C1069  C1073   1.385   .     A
C1070  C1074   1.417   .     A
C1070  C1078   1.482   .     S
C1071  C1075   1.417   .     A
C1071  C1085   1.482   .     S
C1072  C1092   1.482   .     S
C1072  C1075   1.417   .     A
C1073  C1098   1.482   .     S
C1073  C1074   1.417   .     A
C1077  C980    1.427   1_655 S
C1078  C1084   1.405   .     A
C1078  C1080   1.404   .     A
C1079  H1109   1.080   .     S
C1079  C1106   1.407   .     A
C1079  N1141   1.363   .     A
C1080  H1113   1.083   .     S
C1080  C1081   1.399   .     A
C1081  C1082   1.397   .     A
C1081  H346    1.081   1_556 S
C1082  H1115   1.082   .     S
C1082  C1083   1.398   .     A
C1083  H1116   1.082   .     S
C1083  C1084   1.398   .     A
C1084  H1117   1.083   .     S
C1085  C1086   1.404   .     A
C1085  C1091   1.405   .     A
C1086  C1087   1.399   .     A
C1086  H1118   1.083   .     S
C1087  C1088   1.397   .     A
C1087  H351    1.081   1_556 S
C1088  C1089   1.398   .     A
C1088  H1121   1.082   .     S
C1089  H1122   1.082   .     S
C1089  C1091   1.398   .     A
C1090  N1142   1.363   .     A
C1090  C1107   1.407   .     A
C1090  H1120   1.080   .     S
C1091  H1123   1.083   .     S
C1092  C1093   1.404   .     A
C1092  C1097   1.405   .     A
C1093  H1124   1.083   .     S
C1093  C1094   1.399   .     A
C1094  C1095   1.397   .     A
C1095  C1096   1.398   .     A
C1095  H1126   1.082   .     S
C1096  H1127   1.082   .     S
C1096  C1097   1.398   .     A
C1097  H1128   1.083   .     S
C1098  C1104   1.405   .     A
C1098  C1099   1.404   .     A
C1099  H1129   1.083   .     S
C1099  C1100   1.399   .     A
C1100  C1102   1.397   .     A
C1101  C1108   1.407   .     A
C1101  N1141   1.363   .     A
C1101  H1131   1.080   .     S
C1102  H1132   1.082   .     S
C1102  C1103   1.398   .     A
C1103  C1104   1.398   .     A
C1103  H1133   1.082   .     S
C1104  H1134   1.083   .     S
C1105  H1135   1.080   .     S
C1105  N1142   1.363   .     A
C1106  H1140   1.082   .     S
C1107  H1110   1.082   .     S
C1108  H1111   1.082   .     S
H1125  C326    1.081   1_556 S
H1130  C332    1.081   1_556 S
N1141  Zn1152  2.005   .     S
N1142  Zn1151  2.005   .     S
O1143  Zn1151  1.999   .     S
O1144  Zn1152  1.999   .     S
O1145  Zn1151  1.999   .     S
O1146  Zn1152  1.999   .     S
O1147  Zn1151  1.943   .     S
O1148  Zn1152  1.943   .     S
O1149  Zn1151  1.943   .     S
O1150  Zn1152  1.943   .     S
