data_str_m3_o2_o10_pcu_sym.169
_audit_creation_date              2020-01-03
_audit_creation_method            'Materials Studio'
_symmetry_space_group_name_H-M    'P1'
_symmetry_Int_Tables_number       1
_symmetry_cell_setting            triclinic
loop_
_symmetry_equiv_pos_as_xyz
  x,y,z
_cell_length_a                    25.8968
_cell_length_b                    29.9838
_cell_length_c                    28.4662
_cell_angle_alpha                 90.0710
_cell_angle_beta                  98.1679
_cell_angle_gamma                 91.1251
loop_
_atom_site_label
_atom_site_type_symbol
_atom_site_fract_x
_atom_site_fract_y
_atom_site_fract_z
_atom_site_U_iso_or_equiv
_atom_site_adp_type
_atom_site_occupancy
C1     C     0.16702   0.16394   0.24994   0.00000  Uiso   1.00
C2     C     0.16677   0.33610   0.24997   0.00000  Uiso   1.00
C3     C     0.13842   0.21741   0.04922   0.00000  Uiso   1.00
C4     C     0.20662   0.27126   0.45273   0.00000  Uiso   1.00
C5     C     0.13814   0.21842   0.09872   0.00000  Uiso   1.00
C6     C     0.20564   0.27170   0.40305   0.00000  Uiso   1.00
C7     C     0.19519   0.28149   0.10606   0.00000  Uiso   1.00
C8     C     0.12832   0.22741   0.39288   0.00000  Uiso   1.00
C9     C     0.19483   0.28239   0.05649   0.00000  Uiso   1.00
C10    C     0.12704   0.22795   0.44228   0.00000  Uiso   1.00
C11    C     0.16661   0.24986   0.02686   0.00000  Uiso   1.00
C12    C     0.16664   0.24981   0.47349   0.00000  Uiso   1.00
C13    C     0.06732   0.24994   0.23778   0.00000  Uiso   1.00
C14    C     0.26605   0.25088   0.26204   0.00000  Uiso   1.00
C15    C     0.01282   0.24429   0.23185   0.00000  Uiso   1.00
C16    C     0.32039   0.25836   0.26691   0.00000  Uiso   1.00
C17    C     0.14238   0.04451   0.27987   0.00000  Uiso   1.00
C18    C     0.14516   0.45355   0.20795   0.00000  Uiso   1.00
C19    C     0.13746   0.09102   0.27797   0.00000  Uiso   1.00
C20    C     0.13940   0.40696   0.21049   0.00000  Uiso   1.00
C21    C     0.16805   0.11583   0.24950   0.00000  Uiso   1.00
C22    C     0.16731   0.38430   0.24946   0.00000  Uiso   1.00
C23    C     0.20055   0.09460   0.22108   0.00000  Uiso   1.00
C24    C     0.19840   0.40775   0.28625   0.00000  Uiso   1.00
C25    C     0.20173   0.04855   0.22037   0.00000  Uiso   1.00
C26    C     0.20050   0.45374   0.28500   0.00000  Uiso   1.00
C27    C     0.17300   0.02401   0.24934   0.00000  Uiso   1.00
C28    C     0.17390   0.47620   0.24664   0.00000  Uiso   1.00
H29    H     0.22574   0.03182   0.19779   0.00000  Uiso   1.00
H30    H     0.22306   0.47213   0.31402   0.00000  Uiso   1.00
H31    H     0.11688   0.19080   0.02906   0.00000  Uiso   1.00
H32    H     0.23932   0.28738   0.47447   0.00000  Uiso   1.00
H33    H     0.21636   0.30894   0.04186   0.00000  Uiso   1.00
H34    H     0.09476   0.21112   0.45545   0.00000  Uiso   1.00
N35    N     0.16667   0.24999   0.12624   0.00000  Uiso   1.00
N36    N     0.16667   0.25001   0.37377   0.00000  Uiso   1.00
O37    O     0.16667   0.18454   0.28974   0.00000  Uiso   1.00
O38    O     0.16666   0.31547   0.21026   0.00000  Uiso   1.00
O39    O     0.16667   0.18453   0.21026   0.00000  Uiso   1.00
O40    O     0.16666   0.31547   0.28974   0.00000  Uiso   1.00
O41    O     0.09058   0.25000   0.28045   0.00000  Uiso   1.00
O42    O     0.24275   0.25000   0.21956   0.00000  Uiso   1.00
O43    O     0.09058   0.25000   0.20097   0.00000  Uiso   1.00
O44    O     0.24275   0.25001   0.29904   0.00000  Uiso   1.00
Zn45   Zn    0.16667   0.25001   0.30307   0.00000  Uiso   1.00
Zn46   Zn    0.16667   0.25000   0.19693   0.00000  Uiso   1.00
N47    N     0.32134   0.21996   0.19067   0.00000  Uiso   1.00
H48    H     0.32739   0.23784   0.16034   0.00000  Uiso   1.00
H49    H     0.00570   0.18906   0.18934   0.00000  Uiso   1.00
N50    N     0.01121   0.28642   0.30534   0.00000  Uiso   1.00
H51    H     0.32604   0.31719   0.30272   0.00000  Uiso   1.00
H52    H     0.00471   0.27190   0.33733   0.00000  Uiso   1.00
N53    N     0.11919   0.01826   0.31347   0.00000  Uiso   1.00
H54    H     0.12292   0.03146   0.34725   0.00000  Uiso   1.00
C55    C     0.06806   0.49914   0.29721   0.00000  Uiso   1.00
H56    H     0.05482   0.47896   0.32609   0.00000  Uiso   1.00
H57    H     0.06937   0.47664   0.26653   0.00000  Uiso   1.00
H58    H     0.03944   0.02573   0.28736   0.00000  Uiso   1.00
N59    N     0.12458   0.47775   0.16653   0.00000  Uiso   1.00
H60    H     0.12996   0.46328   0.13479   0.00000  Uiso   1.00
C61    C     0.07326   0.49599   0.16629   0.00000  Uiso   1.00
H62    H     0.06206   0.01449   0.13275   0.00000  Uiso   1.00
H63    H     0.07317   0.01984   0.19604   0.00000  Uiso   1.00
H64    H     0.04395   0.46896   0.16865   0.00000  Uiso   1.00
N65    N     0.10012   0.11273   0.30203   0.00000  Uiso   1.00
H66    H     0.09160   0.09758   0.33248   0.00000  Uiso   1.00
C67    C     0.05358   0.12642   0.27153   0.00000  Uiso   1.00
H68    H     0.03198   0.09696   0.25446   0.00000  Uiso   1.00
H69    H     0.06378   0.14918   0.24352   0.00000  Uiso   1.00
H70    H     0.02770   0.14439   0.29274   0.00000  Uiso   1.00
N71    N     0.10454   0.38282   0.17553   0.00000  Uiso   1.00
H72    H     0.09921   0.39598   0.14187   0.00000  Uiso   1.00
C73    C     0.05594   0.36818   0.19082   0.00000  Uiso   1.00
H74    H     0.03236   0.39730   0.19790   0.00000  Uiso   1.00
H75    H     0.06320   0.34783   0.22353   0.00000  Uiso   1.00
H76    H     0.03321   0.34730   0.16260   0.00000  Uiso   1.00
N77    N     0.23291   0.11982   0.19343   0.00000  Uiso   1.00
H78    H     0.27171   0.11120   0.20420   0.00000  Uiso   1.00
H79    H     0.22296   0.11043   0.15786   0.00000  Uiso   1.00
N80    N     0.22855   0.38493   0.32460   0.00000  Uiso   1.00
H81    H     0.21732   0.39629   0.35632   0.00000  Uiso   1.00
H82    H     0.26782   0.39381   0.32479   0.00000  Uiso   1.00
N83    N     0.10777   0.18621   0.12040   0.00000  Uiso   1.00
H84    H     0.12029   0.15446   0.11255   0.00000  Uiso   1.00
H85    H     0.06885   0.18889   0.10496   0.00000  Uiso   1.00
N86    N     0.24646   0.29441   0.38337   0.00000  Uiso   1.00
H87    H     0.28154   0.27943   0.39693   0.00000  Uiso   1.00
H88    H     0.24857   0.32720   0.39601   0.00000  Uiso   1.00
N89    N     0.22566   0.31373   0.13557   0.00000  Uiso   1.00
H90    H     0.21316   0.34547   0.12451   0.00000  Uiso   1.00
H91    H     0.26455   0.31100   0.13011   0.00000  Uiso   1.00
N92    N     0.08997   0.20179   0.36281   0.00000  Uiso   1.00
H93    H     0.05320   0.21265   0.36821   0.00000  Uiso   1.00
H94    H     0.09271   0.16879   0.37444   0.00000  Uiso   1.00
C95    C     0.50036   0.16394   0.24994   0.00000  Uiso   1.00
C96    C     0.50010   0.33610   0.24997   0.00000  Uiso   1.00
C97    C     0.47176   0.21741   0.04922   0.00000  Uiso   1.00
C98    C     0.53995   0.27126   0.45273   0.00000  Uiso   1.00
C99    C     0.47147   0.21842   0.09872   0.00000  Uiso   1.00
C100   C     0.53897   0.27170   0.40305   0.00000  Uiso   1.00
C101   C     0.52853   0.28149   0.10606   0.00000  Uiso   1.00
C102   C     0.46165   0.22741   0.39288   0.00000  Uiso   1.00
C103   C     0.52816   0.28239   0.05649   0.00000  Uiso   1.00
C104   C     0.46038   0.22795   0.44228   0.00000  Uiso   1.00
C105   C     0.49994   0.24986   0.02686   0.00000  Uiso   1.00
C106   C     0.49998   0.24981   0.47349   0.00000  Uiso   1.00
C107   C     0.40065   0.24994   0.23778   0.00000  Uiso   1.00
C108   C     0.59939   0.25088   0.26204   0.00000  Uiso   1.00
C109   C     0.34615   0.24429   0.23185   0.00000  Uiso   1.00
C110   C     0.65372   0.25836   0.26691   0.00000  Uiso   1.00
C111   C     0.47571   0.04451   0.27987   0.00000  Uiso   1.00
C112   C     0.47850   0.45355   0.20795   0.00000  Uiso   1.00
C113   C     0.47079   0.09102   0.27797   0.00000  Uiso   1.00
C114   C     0.47273   0.40696   0.21049   0.00000  Uiso   1.00
C115   C     0.50138   0.11583   0.24950   0.00000  Uiso   1.00
C116   C     0.50064   0.38430   0.24946   0.00000  Uiso   1.00
C117   C     0.53388   0.09460   0.22108   0.00000  Uiso   1.00
C118   C     0.53173   0.40775   0.28625   0.00000  Uiso   1.00
C119   C     0.53506   0.04855   0.22037   0.00000  Uiso   1.00
C120   C     0.53384   0.45374   0.28500   0.00000  Uiso   1.00
C121   C     0.50633   0.02401   0.24934   0.00000  Uiso   1.00
C122   C     0.50723   0.47620   0.24664   0.00000  Uiso   1.00
H123   H     0.55907   0.03182   0.19779   0.00000  Uiso   1.00
H124   H     0.55639   0.47213   0.31402   0.00000  Uiso   1.00
H125   H     0.45021   0.19080   0.02906   0.00000  Uiso   1.00
H126   H     0.57265   0.28738   0.47447   0.00000  Uiso   1.00
H127   H     0.54969   0.30894   0.04186   0.00000  Uiso   1.00
H128   H     0.42809   0.21112   0.45545   0.00000  Uiso   1.00
N129   N     0.50000   0.24999   0.12624   0.00000  Uiso   1.00
N130   N     0.50000   0.25001   0.37377   0.00000  Uiso   1.00
O131   O     0.50000   0.18454   0.28974   0.00000  Uiso   1.00
O132   O     0.50000   0.31547   0.21026   0.00000  Uiso   1.00
O133   O     0.50000   0.18453   0.21026   0.00000  Uiso   1.00
O134   O     0.50000   0.31547   0.28974   0.00000  Uiso   1.00
O135   O     0.42392   0.25000   0.28045   0.00000  Uiso   1.00
O136   O     0.57608   0.25000   0.21956   0.00000  Uiso   1.00
O137   O     0.42392   0.25000   0.20097   0.00000  Uiso   1.00
O138   O     0.57608   0.25001   0.29904   0.00000  Uiso   1.00
Zn139  Zn    0.50000   0.25001   0.30307   0.00000  Uiso   1.00
Zn140  Zn    0.50000   0.25000   0.19693   0.00000  Uiso   1.00
N141   N     0.65467   0.21996   0.19067   0.00000  Uiso   1.00
H142   H     0.66072   0.23784   0.16034   0.00000  Uiso   1.00
H143   H     0.33904   0.18906   0.18934   0.00000  Uiso   1.00
N144   N     0.34454   0.28642   0.30534   0.00000  Uiso   1.00
H145   H     0.65937   0.31719   0.30272   0.00000  Uiso   1.00
H146   H     0.33805   0.27190   0.33733   0.00000  Uiso   1.00
N147   N     0.45253   0.01826   0.31347   0.00000  Uiso   1.00
H148   H     0.45626   0.03146   0.34725   0.00000  Uiso   1.00
C149   C     0.40140   0.49914   0.29721   0.00000  Uiso   1.00
H150   H     0.38815   0.47896   0.32609   0.00000  Uiso   1.00
H151   H     0.40271   0.47664   0.26653   0.00000  Uiso   1.00
H152   H     0.37277   0.02573   0.28736   0.00000  Uiso   1.00
N153   N     0.45792   0.47775   0.16653   0.00000  Uiso   1.00
H154   H     0.46329   0.46328   0.13479   0.00000  Uiso   1.00
C155   C     0.40660   0.49599   0.16629   0.00000  Uiso   1.00
H156   H     0.39539   0.01449   0.13275   0.00000  Uiso   1.00
H157   H     0.40650   0.01984   0.19604   0.00000  Uiso   1.00
H158   H     0.37728   0.46896   0.16865   0.00000  Uiso   1.00
N159   N     0.43345   0.11273   0.30203   0.00000  Uiso   1.00
H160   H     0.42493   0.09758   0.33248   0.00000  Uiso   1.00
C161   C     0.38691   0.12642   0.27153   0.00000  Uiso   1.00
H162   H     0.36531   0.09696   0.25446   0.00000  Uiso   1.00
H163   H     0.39711   0.14918   0.24352   0.00000  Uiso   1.00
H164   H     0.36103   0.14439   0.29274   0.00000  Uiso   1.00
N165   N     0.43787   0.38282   0.17553   0.00000  Uiso   1.00
H166   H     0.43255   0.39598   0.14187   0.00000  Uiso   1.00
C167   C     0.38927   0.36818   0.19082   0.00000  Uiso   1.00
H168   H     0.36569   0.39730   0.19790   0.00000  Uiso   1.00
H169   H     0.39653   0.34783   0.22353   0.00000  Uiso   1.00
H170   H     0.36654   0.34730   0.16260   0.00000  Uiso   1.00
N171   N     0.56625   0.11982   0.19343   0.00000  Uiso   1.00
H172   H     0.60505   0.11120   0.20420   0.00000  Uiso   1.00
H173   H     0.55629   0.11043   0.15786   0.00000  Uiso   1.00
N174   N     0.56188   0.38493   0.32460   0.00000  Uiso   1.00
H175   H     0.55066   0.39629   0.35632   0.00000  Uiso   1.00
H176   H     0.60116   0.39381   0.32479   0.00000  Uiso   1.00
N177   N     0.44111   0.18621   0.12040   0.00000  Uiso   1.00
H178   H     0.45362   0.15446   0.11255   0.00000  Uiso   1.00
H179   H     0.40219   0.18889   0.10496   0.00000  Uiso   1.00
N180   N     0.57979   0.29441   0.38337   0.00000  Uiso   1.00
H181   H     0.61487   0.27943   0.39693   0.00000  Uiso   1.00
H182   H     0.58190   0.32720   0.39601   0.00000  Uiso   1.00
N183   N     0.55899   0.31373   0.13557   0.00000  Uiso   1.00
H184   H     0.54649   0.34547   0.12451   0.00000  Uiso   1.00
H185   H     0.59789   0.31100   0.13011   0.00000  Uiso   1.00
N186   N     0.42330   0.20179   0.36281   0.00000  Uiso   1.00
H187   H     0.38654   0.21265   0.36821   0.00000  Uiso   1.00
H188   H     0.42604   0.16879   0.37444   0.00000  Uiso   1.00
C189   C     0.83369   0.16394   0.24994   0.00000  Uiso   1.00
C190   C     0.83344   0.33610   0.24997   0.00000  Uiso   1.00
C191   C     0.80509   0.21741   0.04922   0.00000  Uiso   1.00
C192   C     0.87328   0.27126   0.45273   0.00000  Uiso   1.00
C193   C     0.80481   0.21842   0.09872   0.00000  Uiso   1.00
C194   C     0.87231   0.27170   0.40305   0.00000  Uiso   1.00
C195   C     0.86186   0.28149   0.10606   0.00000  Uiso   1.00
C196   C     0.79498   0.22741   0.39288   0.00000  Uiso   1.00
C197   C     0.86150   0.28239   0.05649   0.00000  Uiso   1.00
C198   C     0.79371   0.22795   0.44228   0.00000  Uiso   1.00
C199   C     0.83328   0.24986   0.02686   0.00000  Uiso   1.00
C200   C     0.83331   0.24981   0.47349   0.00000  Uiso   1.00
C201   C     0.73398   0.24994   0.23778   0.00000  Uiso   1.00
C202   C     0.93272   0.25088   0.26204   0.00000  Uiso   1.00
C203   C     0.67948   0.24429   0.23185   0.00000  Uiso   1.00
C204   C     0.98706   0.25836   0.26691   0.00000  Uiso   1.00
C205   C     0.80905   0.04451   0.27987   0.00000  Uiso   1.00
C206   C     0.81183   0.45355   0.20795   0.00000  Uiso   1.00
C207   C     0.80413   0.09102   0.27797   0.00000  Uiso   1.00
C208   C     0.80606   0.40696   0.21049   0.00000  Uiso   1.00
C209   C     0.83472   0.11583   0.24950   0.00000  Uiso   1.00
C210   C     0.83397   0.38430   0.24946   0.00000  Uiso   1.00
C211   C     0.86722   0.09460   0.22108   0.00000  Uiso   1.00
C212   C     0.86507   0.40775   0.28625   0.00000  Uiso   1.00
C213   C     0.86840   0.04855   0.22037   0.00000  Uiso   1.00
C214   C     0.86717   0.45374   0.28500   0.00000  Uiso   1.00
C215   C     0.83966   0.02401   0.24934   0.00000  Uiso   1.00
C216   C     0.84056   0.47620   0.24664   0.00000  Uiso   1.00
H217   H     0.89240   0.03182   0.19779   0.00000  Uiso   1.00
H218   H     0.88972   0.47213   0.31402   0.00000  Uiso   1.00
H219   H     0.78355   0.19080   0.02906   0.00000  Uiso   1.00
H220   H     0.90598   0.28738   0.47447   0.00000  Uiso   1.00
H221   H     0.88302   0.30894   0.04186   0.00000  Uiso   1.00
H222   H     0.76142   0.21112   0.45545   0.00000  Uiso   1.00
N223   N     0.83333   0.24999   0.12624   0.00000  Uiso   1.00
N224   N     0.83333   0.25001   0.37377   0.00000  Uiso   1.00
O225   O     0.83334   0.18454   0.28974   0.00000  Uiso   1.00
O226   O     0.83333   0.31547   0.21026   0.00000  Uiso   1.00
O227   O     0.83334   0.18453   0.21026   0.00000  Uiso   1.00
O228   O     0.83333   0.31547   0.28974   0.00000  Uiso   1.00
O229   O     0.75725   0.25000   0.28045   0.00000  Uiso   1.00
O230   O     0.90942   0.25000   0.21956   0.00000  Uiso   1.00
O231   O     0.75725   0.25000   0.20097   0.00000  Uiso   1.00
O232   O     0.90942   0.25001   0.29904   0.00000  Uiso   1.00
Zn233  Zn    0.83333   0.25001   0.30307   0.00000  Uiso   1.00
Zn234  Zn    0.83333   0.25000   0.19693   0.00000  Uiso   1.00
N235   N     0.98801   0.21996   0.19067   0.00000  Uiso   1.00
H236   H     0.99405   0.23784   0.16034   0.00000  Uiso   1.00
H237   H     0.67237   0.18906   0.18934   0.00000  Uiso   1.00
N238   N     0.67787   0.28642   0.30534   0.00000  Uiso   1.00
H239   H     0.99270   0.31719   0.30272   0.00000  Uiso   1.00
H240   H     0.67138   0.27190   0.33733   0.00000  Uiso   1.00
N241   N     0.78586   0.01826   0.31347   0.00000  Uiso   1.00
H242   H     0.78959   0.03146   0.34725   0.00000  Uiso   1.00
C243   C     0.73473   0.49914   0.29721   0.00000  Uiso   1.00
H244   H     0.72148   0.47896   0.32609   0.00000  Uiso   1.00
H245   H     0.73604   0.47664   0.26653   0.00000  Uiso   1.00
H246   H     0.70611   0.02573   0.28736   0.00000  Uiso   1.00
N247   N     0.79125   0.47775   0.16653   0.00000  Uiso   1.00
H248   H     0.79663   0.46328   0.13479   0.00000  Uiso   1.00
C249   C     0.73993   0.49599   0.16629   0.00000  Uiso   1.00
H250   H     0.72872   0.01449   0.13275   0.00000  Uiso   1.00
H251   H     0.73983   0.01984   0.19604   0.00000  Uiso   1.00
H252   H     0.71061   0.46896   0.16865   0.00000  Uiso   1.00
N253   N     0.76678   0.11273   0.30203   0.00000  Uiso   1.00
H254   H     0.75827   0.09758   0.33248   0.00000  Uiso   1.00
C255   C     0.72025   0.12642   0.27153   0.00000  Uiso   1.00
H256   H     0.69864   0.09696   0.25446   0.00000  Uiso   1.00
H257   H     0.73045   0.14918   0.24352   0.00000  Uiso   1.00
H258   H     0.69437   0.14439   0.29274   0.00000  Uiso   1.00
N259   N     0.77121   0.38282   0.17553   0.00000  Uiso   1.00
H260   H     0.76588   0.39598   0.14187   0.00000  Uiso   1.00
C261   C     0.72261   0.36818   0.19082   0.00000  Uiso   1.00
H262   H     0.69903   0.39730   0.19790   0.00000  Uiso   1.00
H263   H     0.72987   0.34783   0.22353   0.00000  Uiso   1.00
H264   H     0.69988   0.34730   0.16260   0.00000  Uiso   1.00
N265   N     0.89958   0.11982   0.19343   0.00000  Uiso   1.00
H266   H     0.93838   0.11120   0.20420   0.00000  Uiso   1.00
H267   H     0.88962   0.11043   0.15786   0.00000  Uiso   1.00
N268   N     0.89521   0.38493   0.32460   0.00000  Uiso   1.00
H269   H     0.88399   0.39629   0.35632   0.00000  Uiso   1.00
H270   H     0.93449   0.39381   0.32479   0.00000  Uiso   1.00
N271   N     0.77444   0.18621   0.12040   0.00000  Uiso   1.00
H272   H     0.78696   0.15446   0.11255   0.00000  Uiso   1.00
H273   H     0.73552   0.18889   0.10496   0.00000  Uiso   1.00
N274   N     0.91313   0.29441   0.38337   0.00000  Uiso   1.00
H275   H     0.94820   0.27943   0.39693   0.00000  Uiso   1.00
H276   H     0.91523   0.32720   0.39601   0.00000  Uiso   1.00
N277   N     0.89232   0.31373   0.13557   0.00000  Uiso   1.00
H278   H     0.87983   0.34547   0.12451   0.00000  Uiso   1.00
H279   H     0.93122   0.31100   0.13011   0.00000  Uiso   1.00
N280   N     0.75664   0.20179   0.36281   0.00000  Uiso   1.00
H281   H     0.71987   0.21265   0.36821   0.00000  Uiso   1.00
H282   H     0.75937   0.16879   0.37444   0.00000  Uiso   1.00
C283   C     0.16702   0.66394   0.24994   0.00000  Uiso   1.00
C284   C     0.16677   0.83610   0.24997   0.00000  Uiso   1.00
C285   C     0.13842   0.71741   0.04922   0.00000  Uiso   1.00
C286   C     0.20662   0.77126   0.45273   0.00000  Uiso   1.00
C287   C     0.13814   0.71842   0.09872   0.00000  Uiso   1.00
C288   C     0.20564   0.77170   0.40305   0.00000  Uiso   1.00
C289   C     0.19519   0.78149   0.10606   0.00000  Uiso   1.00
C290   C     0.12832   0.72741   0.39288   0.00000  Uiso   1.00
C291   C     0.19483   0.78239   0.05649   0.00000  Uiso   1.00
C292   C     0.12704   0.72795   0.44228   0.00000  Uiso   1.00
C293   C     0.16661   0.74986   0.02686   0.00000  Uiso   1.00
C294   C     0.16664   0.74981   0.47349   0.00000  Uiso   1.00
C295   C     0.06732   0.74994   0.23778   0.00000  Uiso   1.00
C296   C     0.26605   0.75088   0.26204   0.00000  Uiso   1.00
C297   C     0.01282   0.74429   0.23185   0.00000  Uiso   1.00
C298   C     0.32039   0.75836   0.26691   0.00000  Uiso   1.00
C299   C     0.14238   0.54451   0.27987   0.00000  Uiso   1.00
C300   C     0.14516   0.95355   0.20795   0.00000  Uiso   1.00
C301   C     0.13746   0.59102   0.27797   0.00000  Uiso   1.00
C302   C     0.13940   0.90696   0.21049   0.00000  Uiso   1.00
C303   C     0.16805   0.61583   0.24950   0.00000  Uiso   1.00
C304   C     0.16731   0.88430   0.24946   0.00000  Uiso   1.00
C305   C     0.20055   0.59460   0.22108   0.00000  Uiso   1.00
C306   C     0.19840   0.90775   0.28625   0.00000  Uiso   1.00
C307   C     0.20173   0.54855   0.22037   0.00000  Uiso   1.00
C308   C     0.20050   0.95374   0.28500   0.00000  Uiso   1.00
C309   C     0.17300   0.52401   0.24934   0.00000  Uiso   1.00
C310   C     0.17390   0.97620   0.24664   0.00000  Uiso   1.00
H311   H     0.22574   0.53182   0.19779   0.00000  Uiso   1.00
H312   H     0.22306   0.97213   0.31402   0.00000  Uiso   1.00
H313   H     0.11688   0.69080   0.02906   0.00000  Uiso   1.00
H314   H     0.23932   0.78738   0.47447   0.00000  Uiso   1.00
H315   H     0.21636   0.80894   0.04186   0.00000  Uiso   1.00
H316   H     0.09476   0.71112   0.45545   0.00000  Uiso   1.00
N317   N     0.16667   0.74999   0.12624   0.00000  Uiso   1.00
N318   N     0.16667   0.75001   0.37377   0.00000  Uiso   1.00
O319   O     0.16667   0.68454   0.28974   0.00000  Uiso   1.00
O320   O     0.16666   0.81547   0.21026   0.00000  Uiso   1.00
O321   O     0.16667   0.68453   0.21026   0.00000  Uiso   1.00
O322   O     0.16666   0.81547   0.28974   0.00000  Uiso   1.00
O323   O     0.09058   0.75000   0.28045   0.00000  Uiso   1.00
O324   O     0.24275   0.75000   0.21956   0.00000  Uiso   1.00
O325   O     0.09058   0.75000   0.20097   0.00000  Uiso   1.00
O326   O     0.24275   0.75001   0.29904   0.00000  Uiso   1.00
Zn327  Zn    0.16667   0.75001   0.30307   0.00000  Uiso   1.00
Zn328  Zn    0.16667   0.75000   0.19693   0.00000  Uiso   1.00
N329   N     0.32134   0.71996   0.19067   0.00000  Uiso   1.00
H330   H     0.32739   0.73784   0.16034   0.00000  Uiso   1.00
H331   H     0.00570   0.68906   0.18934   0.00000  Uiso   1.00
N332   N     0.01121   0.78642   0.30534   0.00000  Uiso   1.00
H333   H     0.32604   0.81719   0.30272   0.00000  Uiso   1.00
H334   H     0.00471   0.77190   0.33733   0.00000  Uiso   1.00
N335   N     0.11919   0.51826   0.31347   0.00000  Uiso   1.00
H336   H     0.12292   0.53146   0.34725   0.00000  Uiso   1.00
C337   C     0.06806   0.99914   0.29721   0.00000  Uiso   1.00
H338   H     0.05482   0.97896   0.32609   0.00000  Uiso   1.00
H339   H     0.06937   0.97664   0.26653   0.00000  Uiso   1.00
H340   H     0.03944   0.52573   0.28736   0.00000  Uiso   1.00
N341   N     0.12458   0.97775   0.16653   0.00000  Uiso   1.00
H342   H     0.12996   0.96328   0.13479   0.00000  Uiso   1.00
C343   C     0.07326   0.99599   0.16629   0.00000  Uiso   1.00
H344   H     0.06206   0.51449   0.13275   0.00000  Uiso   1.00
H345   H     0.07317   0.51984   0.19604   0.00000  Uiso   1.00
H346   H     0.04395   0.96896   0.16865   0.00000  Uiso   1.00
N347   N     0.10012   0.61273   0.30203   0.00000  Uiso   1.00
H348   H     0.09160   0.59758   0.33248   0.00000  Uiso   1.00
C349   C     0.05358   0.62642   0.27153   0.00000  Uiso   1.00
H350   H     0.03198   0.59696   0.25446   0.00000  Uiso   1.00
H351   H     0.06378   0.64918   0.24352   0.00000  Uiso   1.00
H352   H     0.02770   0.64439   0.29274   0.00000  Uiso   1.00
N353   N     0.10454   0.88282   0.17553   0.00000  Uiso   1.00
H354   H     0.09921   0.89598   0.14187   0.00000  Uiso   1.00
C355   C     0.05594   0.86818   0.19082   0.00000  Uiso   1.00
H356   H     0.03236   0.89730   0.19790   0.00000  Uiso   1.00
H357   H     0.06320   0.84783   0.22353   0.00000  Uiso   1.00
H358   H     0.03321   0.84730   0.16260   0.00000  Uiso   1.00
N359   N     0.23291   0.61982   0.19343   0.00000  Uiso   1.00
H360   H     0.27171   0.61120   0.20420   0.00000  Uiso   1.00
H361   H     0.22296   0.61043   0.15786   0.00000  Uiso   1.00
N362   N     0.22855   0.88493   0.32460   0.00000  Uiso   1.00
H363   H     0.21732   0.89629   0.35632   0.00000  Uiso   1.00
H364   H     0.26782   0.89381   0.32479   0.00000  Uiso   1.00
N365   N     0.10777   0.68621   0.12040   0.00000  Uiso   1.00
H366   H     0.12029   0.65446   0.11255   0.00000  Uiso   1.00
H367   H     0.06885   0.68889   0.10496   0.00000  Uiso   1.00
N368   N     0.24646   0.79441   0.38337   0.00000  Uiso   1.00
H369   H     0.28154   0.77943   0.39693   0.00000  Uiso   1.00
H370   H     0.24857   0.82720   0.39601   0.00000  Uiso   1.00
N371   N     0.22566   0.81373   0.13557   0.00000  Uiso   1.00
H372   H     0.21316   0.84547   0.12451   0.00000  Uiso   1.00
H373   H     0.26455   0.81100   0.13011   0.00000  Uiso   1.00
N374   N     0.08997   0.70179   0.36281   0.00000  Uiso   1.00
H375   H     0.05320   0.71265   0.36821   0.00000  Uiso   1.00
H376   H     0.09271   0.66879   0.37444   0.00000  Uiso   1.00
C377   C     0.50036   0.66394   0.24994   0.00000  Uiso   1.00
C378   C     0.50010   0.83610   0.24997   0.00000  Uiso   1.00
C379   C     0.47176   0.71741   0.04922   0.00000  Uiso   1.00
C380   C     0.53995   0.77126   0.45273   0.00000  Uiso   1.00
C381   C     0.47147   0.71842   0.09872   0.00000  Uiso   1.00
C382   C     0.53897   0.77170   0.40305   0.00000  Uiso   1.00
C383   C     0.52853   0.78149   0.10606   0.00000  Uiso   1.00
C384   C     0.46165   0.72741   0.39288   0.00000  Uiso   1.00
C385   C     0.52816   0.78239   0.05649   0.00000  Uiso   1.00
C386   C     0.46038   0.72795   0.44228   0.00000  Uiso   1.00
C387   C     0.49994   0.74986   0.02686   0.00000  Uiso   1.00
C388   C     0.49998   0.74981   0.47349   0.00000  Uiso   1.00
C389   C     0.40065   0.74994   0.23778   0.00000  Uiso   1.00
C390   C     0.59939   0.75088   0.26204   0.00000  Uiso   1.00
C391   C     0.34615   0.74429   0.23185   0.00000  Uiso   1.00
C392   C     0.65372   0.75836   0.26691   0.00000  Uiso   1.00
C393   C     0.47571   0.54451   0.27987   0.00000  Uiso   1.00
C394   C     0.47850   0.95355   0.20795   0.00000  Uiso   1.00
C395   C     0.47079   0.59102   0.27797   0.00000  Uiso   1.00
C396   C     0.47273   0.90696   0.21049   0.00000  Uiso   1.00
C397   C     0.50138   0.61583   0.24950   0.00000  Uiso   1.00
C398   C     0.50064   0.88430   0.24946   0.00000  Uiso   1.00
C399   C     0.53388   0.59460   0.22108   0.00000  Uiso   1.00
C400   C     0.53173   0.90775   0.28625   0.00000  Uiso   1.00
C401   C     0.53506   0.54855   0.22037   0.00000  Uiso   1.00
C402   C     0.53384   0.95374   0.28500   0.00000  Uiso   1.00
C403   C     0.50633   0.52401   0.24934   0.00000  Uiso   1.00
C404   C     0.50723   0.97620   0.24664   0.00000  Uiso   1.00
H405   H     0.55907   0.53182   0.19779   0.00000  Uiso   1.00
H406   H     0.55639   0.97213   0.31402   0.00000  Uiso   1.00
H407   H     0.45021   0.69080   0.02906   0.00000  Uiso   1.00
H408   H     0.57265   0.78738   0.47447   0.00000  Uiso   1.00
H409   H     0.54969   0.80894   0.04186   0.00000  Uiso   1.00
H410   H     0.42809   0.71112   0.45545   0.00000  Uiso   1.00
N411   N     0.50000   0.74999   0.12624   0.00000  Uiso   1.00
N412   N     0.50000   0.75001   0.37377   0.00000  Uiso   1.00
O413   O     0.50000   0.68454   0.28974   0.00000  Uiso   1.00
O414   O     0.50000   0.81547   0.21026   0.00000  Uiso   1.00
O415   O     0.50000   0.68453   0.21026   0.00000  Uiso   1.00
O416   O     0.50000   0.81547   0.28974   0.00000  Uiso   1.00
O417   O     0.42392   0.75000   0.28045   0.00000  Uiso   1.00
O418   O     0.57608   0.75000   0.21956   0.00000  Uiso   1.00
O419   O     0.42392   0.75000   0.20097   0.00000  Uiso   1.00
O420   O     0.57608   0.75001   0.29904   0.00000  Uiso   1.00
Zn421  Zn    0.50000   0.75001   0.30307   0.00000  Uiso   1.00
Zn422  Zn    0.50000   0.75000   0.19693   0.00000  Uiso   1.00
N423   N     0.65467   0.71996   0.19067   0.00000  Uiso   1.00
H424   H     0.66072   0.73784   0.16034   0.00000  Uiso   1.00
H425   H     0.33904   0.68906   0.18934   0.00000  Uiso   1.00
N426   N     0.34454   0.78642   0.30534   0.00000  Uiso   1.00
H427   H     0.65937   0.81719   0.30272   0.00000  Uiso   1.00
H428   H     0.33805   0.77190   0.33733   0.00000  Uiso   1.00
N429   N     0.45253   0.51826   0.31347   0.00000  Uiso   1.00
H430   H     0.45626   0.53146   0.34725   0.00000  Uiso   1.00
C431   C     0.40140   0.99914   0.29721   0.00000  Uiso   1.00
H432   H     0.38815   0.97896   0.32609   0.00000  Uiso   1.00
H433   H     0.40271   0.97664   0.26653   0.00000  Uiso   1.00
H434   H     0.37277   0.52573   0.28736   0.00000  Uiso   1.00
N435   N     0.45792   0.97775   0.16653   0.00000  Uiso   1.00
H436   H     0.46329   0.96328   0.13479   0.00000  Uiso   1.00
C437   C     0.40660   0.99599   0.16629   0.00000  Uiso   1.00
H438   H     0.39539   0.51449   0.13275   0.00000  Uiso   1.00
H439   H     0.40650   0.51984   0.19604   0.00000  Uiso   1.00
H440   H     0.37728   0.96896   0.16865   0.00000  Uiso   1.00
N441   N     0.43345   0.61273   0.30203   0.00000  Uiso   1.00
H442   H     0.42493   0.59758   0.33248   0.00000  Uiso   1.00
C443   C     0.38691   0.62642   0.27153   0.00000  Uiso   1.00
H444   H     0.36531   0.59696   0.25446   0.00000  Uiso   1.00
H445   H     0.39711   0.64918   0.24352   0.00000  Uiso   1.00
H446   H     0.36103   0.64439   0.29274   0.00000  Uiso   1.00
N447   N     0.43787   0.88282   0.17553   0.00000  Uiso   1.00
H448   H     0.43255   0.89598   0.14187   0.00000  Uiso   1.00
C449   C     0.38927   0.86818   0.19082   0.00000  Uiso   1.00
H450   H     0.36569   0.89730   0.19790   0.00000  Uiso   1.00
H451   H     0.39653   0.84783   0.22353   0.00000  Uiso   1.00
H452   H     0.36654   0.84730   0.16260   0.00000  Uiso   1.00
N453   N     0.56625   0.61982   0.19343   0.00000  Uiso   1.00
H454   H     0.60505   0.61120   0.20420   0.00000  Uiso   1.00
H455   H     0.55629   0.61043   0.15786   0.00000  Uiso   1.00
N456   N     0.56188   0.88493   0.32460   0.00000  Uiso   1.00
H457   H     0.55066   0.89629   0.35632   0.00000  Uiso   1.00
H458   H     0.60116   0.89381   0.32479   0.00000  Uiso   1.00
N459   N     0.44111   0.68621   0.12040   0.00000  Uiso   1.00
H460   H     0.45362   0.65446   0.11255   0.00000  Uiso   1.00
H461   H     0.40219   0.68889   0.10496   0.00000  Uiso   1.00
N462   N     0.57979   0.79441   0.38337   0.00000  Uiso   1.00
H463   H     0.61487   0.77943   0.39693   0.00000  Uiso   1.00
H464   H     0.58190   0.82720   0.39601   0.00000  Uiso   1.00
N465   N     0.55899   0.81373   0.13557   0.00000  Uiso   1.00
H466   H     0.54649   0.84547   0.12451   0.00000  Uiso   1.00
H467   H     0.59789   0.81100   0.13011   0.00000  Uiso   1.00
N468   N     0.42330   0.70179   0.36281   0.00000  Uiso   1.00
H469   H     0.38654   0.71265   0.36821   0.00000  Uiso   1.00
H470   H     0.42604   0.66879   0.37444   0.00000  Uiso   1.00
C471   C     0.83369   0.66394   0.24994   0.00000  Uiso   1.00
C472   C     0.83344   0.83610   0.24997   0.00000  Uiso   1.00
C473   C     0.80509   0.71741   0.04922   0.00000  Uiso   1.00
C474   C     0.87328   0.77126   0.45273   0.00000  Uiso   1.00
C475   C     0.80481   0.71842   0.09872   0.00000  Uiso   1.00
C476   C     0.87231   0.77170   0.40305   0.00000  Uiso   1.00
C477   C     0.86186   0.78149   0.10606   0.00000  Uiso   1.00
C478   C     0.79498   0.72741   0.39288   0.00000  Uiso   1.00
C479   C     0.86150   0.78239   0.05649   0.00000  Uiso   1.00
C480   C     0.79371   0.72795   0.44228   0.00000  Uiso   1.00
C481   C     0.83328   0.74986   0.02686   0.00000  Uiso   1.00
C482   C     0.83331   0.74981   0.47349   0.00000  Uiso   1.00
C483   C     0.73398   0.74994   0.23778   0.00000  Uiso   1.00
C484   C     0.93272   0.75088   0.26204   0.00000  Uiso   1.00
C485   C     0.67948   0.74429   0.23185   0.00000  Uiso   1.00
C486   C     0.98706   0.75836   0.26691   0.00000  Uiso   1.00
C487   C     0.80905   0.54451   0.27987   0.00000  Uiso   1.00
C488   C     0.81183   0.95355   0.20795   0.00000  Uiso   1.00
C489   C     0.80413   0.59102   0.27797   0.00000  Uiso   1.00
C490   C     0.80606   0.90696   0.21049   0.00000  Uiso   1.00
C491   C     0.83472   0.61583   0.24950   0.00000  Uiso   1.00
C492   C     0.83397   0.88430   0.24946   0.00000  Uiso   1.00
C493   C     0.86722   0.59460   0.22108   0.00000  Uiso   1.00
C494   C     0.86507   0.90775   0.28625   0.00000  Uiso   1.00
C495   C     0.86840   0.54855   0.22037   0.00000  Uiso   1.00
C496   C     0.86717   0.95374   0.28500   0.00000  Uiso   1.00
C497   C     0.83966   0.52401   0.24934   0.00000  Uiso   1.00
C498   C     0.84056   0.97620   0.24664   0.00000  Uiso   1.00
H499   H     0.89240   0.53182   0.19779   0.00000  Uiso   1.00
H500   H     0.88972   0.97213   0.31402   0.00000  Uiso   1.00
H501   H     0.78355   0.69080   0.02906   0.00000  Uiso   1.00
H502   H     0.90598   0.78738   0.47447   0.00000  Uiso   1.00
H503   H     0.88302   0.80894   0.04186   0.00000  Uiso   1.00
H504   H     0.76142   0.71112   0.45545   0.00000  Uiso   1.00
N505   N     0.83333   0.74999   0.12624   0.00000  Uiso   1.00
N506   N     0.83333   0.75001   0.37377   0.00000  Uiso   1.00
O507   O     0.83334   0.68454   0.28974   0.00000  Uiso   1.00
O508   O     0.83333   0.81547   0.21026   0.00000  Uiso   1.00
O509   O     0.83334   0.68453   0.21026   0.00000  Uiso   1.00
O510   O     0.83333   0.81547   0.28974   0.00000  Uiso   1.00
O511   O     0.75725   0.75000   0.28045   0.00000  Uiso   1.00
O512   O     0.90942   0.75000   0.21956   0.00000  Uiso   1.00
O513   O     0.75725   0.75000   0.20097   0.00000  Uiso   1.00
O514   O     0.90942   0.75001   0.29904   0.00000  Uiso   1.00
Zn515  Zn    0.83333   0.75001   0.30307   0.00000  Uiso   1.00
Zn516  Zn    0.83333   0.75000   0.19693   0.00000  Uiso   1.00
N517   N     0.98801   0.71996   0.19067   0.00000  Uiso   1.00
H518   H     0.99405   0.73784   0.16034   0.00000  Uiso   1.00
H519   H     0.67237   0.68906   0.18934   0.00000  Uiso   1.00
N520   N     0.67787   0.78642   0.30534   0.00000  Uiso   1.00
H521   H     0.99270   0.81719   0.30272   0.00000  Uiso   1.00
H522   H     0.67138   0.77190   0.33733   0.00000  Uiso   1.00
N523   N     0.78586   0.51826   0.31347   0.00000  Uiso   1.00
H524   H     0.78959   0.53146   0.34725   0.00000  Uiso   1.00
C525   C     0.73473   0.99914   0.29721   0.00000  Uiso   1.00
H526   H     0.72148   0.97896   0.32609   0.00000  Uiso   1.00
H527   H     0.73604   0.97664   0.26653   0.00000  Uiso   1.00
H528   H     0.70611   0.52573   0.28736   0.00000  Uiso   1.00
N529   N     0.79125   0.97775   0.16653   0.00000  Uiso   1.00
H530   H     0.79663   0.96328   0.13479   0.00000  Uiso   1.00
C531   C     0.73993   0.99599   0.16629   0.00000  Uiso   1.00
H532   H     0.72872   0.51449   0.13275   0.00000  Uiso   1.00
H533   H     0.73983   0.51984   0.19604   0.00000  Uiso   1.00
H534   H     0.71061   0.96896   0.16865   0.00000  Uiso   1.00
N535   N     0.76678   0.61273   0.30203   0.00000  Uiso   1.00
H536   H     0.75827   0.59758   0.33248   0.00000  Uiso   1.00
C537   C     0.72025   0.62642   0.27153   0.00000  Uiso   1.00
H538   H     0.69864   0.59696   0.25446   0.00000  Uiso   1.00
H539   H     0.73045   0.64918   0.24352   0.00000  Uiso   1.00
H540   H     0.69437   0.64439   0.29274   0.00000  Uiso   1.00
N541   N     0.77121   0.88282   0.17553   0.00000  Uiso   1.00
H542   H     0.76588   0.89598   0.14187   0.00000  Uiso   1.00
C543   C     0.72261   0.86818   0.19082   0.00000  Uiso   1.00
H544   H     0.69903   0.89730   0.19790   0.00000  Uiso   1.00
H545   H     0.72987   0.84783   0.22353   0.00000  Uiso   1.00
H546   H     0.69988   0.84730   0.16260   0.00000  Uiso   1.00
N547   N     0.89958   0.61982   0.19343   0.00000  Uiso   1.00
H548   H     0.93838   0.61120   0.20420   0.00000  Uiso   1.00
H549   H     0.88962   0.61043   0.15786   0.00000  Uiso   1.00
N550   N     0.89521   0.88493   0.32460   0.00000  Uiso   1.00
H551   H     0.88399   0.89629   0.35632   0.00000  Uiso   1.00
H552   H     0.93449   0.89381   0.32479   0.00000  Uiso   1.00
N553   N     0.77444   0.68621   0.12040   0.00000  Uiso   1.00
H554   H     0.78696   0.65446   0.11255   0.00000  Uiso   1.00
H555   H     0.73552   0.68889   0.10496   0.00000  Uiso   1.00
N556   N     0.91313   0.79441   0.38337   0.00000  Uiso   1.00
H557   H     0.94820   0.77943   0.39693   0.00000  Uiso   1.00
H558   H     0.91523   0.82720   0.39601   0.00000  Uiso   1.00
N559   N     0.89232   0.81373   0.13557   0.00000  Uiso   1.00
H560   H     0.87983   0.84547   0.12451   0.00000  Uiso   1.00
H561   H     0.93122   0.81100   0.13011   0.00000  Uiso   1.00
N562   N     0.75664   0.70179   0.36281   0.00000  Uiso   1.00
H563   H     0.71987   0.71265   0.36821   0.00000  Uiso   1.00
H564   H     0.75937   0.66879   0.37444   0.00000  Uiso   1.00
C565   C     0.16702   0.16394   0.74994   0.00000  Uiso   1.00
C566   C     0.16677   0.33610   0.74997   0.00000  Uiso   1.00
C567   C     0.13842   0.21741   0.54922   0.00000  Uiso   1.00
C568   C     0.20662   0.27126   0.95273   0.00000  Uiso   1.00
C569   C     0.13814   0.21842   0.59872   0.00000  Uiso   1.00
C570   C     0.20564   0.27170   0.90305   0.00000  Uiso   1.00
C571   C     0.19519   0.28149   0.60606   0.00000  Uiso   1.00
C572   C     0.12832   0.22741   0.89288   0.00000  Uiso   1.00
C573   C     0.19483   0.28239   0.55649   0.00000  Uiso   1.00
C574   C     0.12704   0.22795   0.94228   0.00000  Uiso   1.00
C575   C     0.16661   0.24986   0.52686   0.00000  Uiso   1.00
C576   C     0.16664   0.24981   0.97349   0.00000  Uiso   1.00
C577   C     0.06732   0.24994   0.73778   0.00000  Uiso   1.00
C578   C     0.26605   0.25088   0.76204   0.00000  Uiso   1.00
C579   C     0.01282   0.24429   0.73185   0.00000  Uiso   1.00
C580   C     0.32039   0.25836   0.76691   0.00000  Uiso   1.00
C581   C     0.14238   0.04451   0.77987   0.00000  Uiso   1.00
C582   C     0.14516   0.45355   0.70795   0.00000  Uiso   1.00
C583   C     0.13746   0.09102   0.77797   0.00000  Uiso   1.00
C584   C     0.13940   0.40696   0.71049   0.00000  Uiso   1.00
C585   C     0.16805   0.11583   0.74950   0.00000  Uiso   1.00
C586   C     0.16731   0.38430   0.74946   0.00000  Uiso   1.00
C587   C     0.20055   0.09460   0.72108   0.00000  Uiso   1.00
C588   C     0.19840   0.40775   0.78625   0.00000  Uiso   1.00
C589   C     0.20173   0.04855   0.72037   0.00000  Uiso   1.00
C590   C     0.20050   0.45374   0.78500   0.00000  Uiso   1.00
C591   C     0.17300   0.02401   0.74934   0.00000  Uiso   1.00
C592   C     0.17390   0.47620   0.74664   0.00000  Uiso   1.00
H593   H     0.22574   0.03182   0.69779   0.00000  Uiso   1.00
H594   H     0.22306   0.47213   0.81402   0.00000  Uiso   1.00
H595   H     0.11688   0.19080   0.52906   0.00000  Uiso   1.00
H596   H     0.23932   0.28738   0.97447   0.00000  Uiso   1.00
H597   H     0.21636   0.30894   0.54186   0.00000  Uiso   1.00
H598   H     0.09476   0.21112   0.95545   0.00000  Uiso   1.00
N599   N     0.16667   0.24999   0.62624   0.00000  Uiso   1.00
N600   N     0.16667   0.25001   0.87377   0.00000  Uiso   1.00
O601   O     0.16667   0.18454   0.78974   0.00000  Uiso   1.00
O602   O     0.16666   0.31547   0.71026   0.00000  Uiso   1.00
O603   O     0.16667   0.18453   0.71026   0.00000  Uiso   1.00
O604   O     0.16666   0.31547   0.78974   0.00000  Uiso   1.00
O605   O     0.09058   0.25000   0.78045   0.00000  Uiso   1.00
O606   O     0.24275   0.25000   0.71956   0.00000  Uiso   1.00
O607   O     0.09058   0.25000   0.70097   0.00000  Uiso   1.00
O608   O     0.24275   0.25001   0.79904   0.00000  Uiso   1.00
Zn609  Zn    0.16667   0.25001   0.80307   0.00000  Uiso   1.00
Zn610  Zn    0.16667   0.25000   0.69693   0.00000  Uiso   1.00
N611   N     0.32134   0.21996   0.69067   0.00000  Uiso   1.00
H612   H     0.32739   0.23784   0.66034   0.00000  Uiso   1.00
H613   H     0.00570   0.18906   0.68934   0.00000  Uiso   1.00
N614   N     0.01121   0.28642   0.80534   0.00000  Uiso   1.00
H615   H     0.32604   0.31719   0.80272   0.00000  Uiso   1.00
H616   H     0.00471   0.27190   0.83733   0.00000  Uiso   1.00
N617   N     0.11919   0.01826   0.81347   0.00000  Uiso   1.00
H618   H     0.12292   0.03146   0.84725   0.00000  Uiso   1.00
C619   C     0.06806   0.49914   0.79721   0.00000  Uiso   1.00
H620   H     0.05482   0.47896   0.82609   0.00000  Uiso   1.00
H621   H     0.06937   0.47664   0.76653   0.00000  Uiso   1.00
H622   H     0.03944   0.02573   0.78736   0.00000  Uiso   1.00
N623   N     0.12458   0.47775   0.66653   0.00000  Uiso   1.00
H624   H     0.12996   0.46328   0.63479   0.00000  Uiso   1.00
C625   C     0.07326   0.49599   0.66629   0.00000  Uiso   1.00
H626   H     0.06206   0.01449   0.63275   0.00000  Uiso   1.00
H627   H     0.07317   0.01984   0.69604   0.00000  Uiso   1.00
H628   H     0.04395   0.46896   0.66865   0.00000  Uiso   1.00
N629   N     0.10012   0.11273   0.80203   0.00000  Uiso   1.00
H630   H     0.09160   0.09758   0.83248   0.00000  Uiso   1.00
C631   C     0.05358   0.12642   0.77153   0.00000  Uiso   1.00
H632   H     0.03198   0.09696   0.75446   0.00000  Uiso   1.00
H633   H     0.06378   0.14918   0.74352   0.00000  Uiso   1.00
H634   H     0.02770   0.14439   0.79274   0.00000  Uiso   1.00
N635   N     0.10454   0.38282   0.67553   0.00000  Uiso   1.00
H636   H     0.09921   0.39598   0.64187   0.00000  Uiso   1.00
C637   C     0.05594   0.36818   0.69082   0.00000  Uiso   1.00
H638   H     0.03236   0.39730   0.69790   0.00000  Uiso   1.00
H639   H     0.06320   0.34783   0.72353   0.00000  Uiso   1.00
H640   H     0.03321   0.34730   0.66260   0.00000  Uiso   1.00
N641   N     0.23291   0.11982   0.69343   0.00000  Uiso   1.00
H642   H     0.27171   0.11120   0.70420   0.00000  Uiso   1.00
H643   H     0.22296   0.11043   0.65786   0.00000  Uiso   1.00
N644   N     0.22855   0.38493   0.82460   0.00000  Uiso   1.00
H645   H     0.21732   0.39629   0.85632   0.00000  Uiso   1.00
H646   H     0.26782   0.39381   0.82479   0.00000  Uiso   1.00
N647   N     0.10777   0.18621   0.62040   0.00000  Uiso   1.00
H648   H     0.12029   0.15446   0.61255   0.00000  Uiso   1.00
H649   H     0.06885   0.18889   0.60496   0.00000  Uiso   1.00
N650   N     0.24646   0.29441   0.88337   0.00000  Uiso   1.00
H651   H     0.28154   0.27943   0.89693   0.00000  Uiso   1.00
H652   H     0.24857   0.32720   0.89601   0.00000  Uiso   1.00
N653   N     0.22566   0.31373   0.63557   0.00000  Uiso   1.00
H654   H     0.21316   0.34547   0.62451   0.00000  Uiso   1.00
H655   H     0.26455   0.31100   0.63011   0.00000  Uiso   1.00
N656   N     0.08997   0.20179   0.86281   0.00000  Uiso   1.00
H657   H     0.05320   0.21265   0.86821   0.00000  Uiso   1.00
H658   H     0.09271   0.16879   0.87444   0.00000  Uiso   1.00
C659   C     0.50036   0.16394   0.74994   0.00000  Uiso   1.00
C660   C     0.50010   0.33610   0.74997   0.00000  Uiso   1.00
C661   C     0.47176   0.21741   0.54922   0.00000  Uiso   1.00
C662   C     0.53995   0.27126   0.95273   0.00000  Uiso   1.00
C663   C     0.47147   0.21842   0.59872   0.00000  Uiso   1.00
C664   C     0.53897   0.27170   0.90305   0.00000  Uiso   1.00
C665   C     0.52853   0.28149   0.60606   0.00000  Uiso   1.00
C666   C     0.46165   0.22741   0.89288   0.00000  Uiso   1.00
C667   C     0.52816   0.28239   0.55649   0.00000  Uiso   1.00
C668   C     0.46038   0.22795   0.94228   0.00000  Uiso   1.00
C669   C     0.49994   0.24986   0.52686   0.00000  Uiso   1.00
C670   C     0.49998   0.24981   0.97349   0.00000  Uiso   1.00
C671   C     0.40065   0.24994   0.73778   0.00000  Uiso   1.00
C672   C     0.59939   0.25088   0.76204   0.00000  Uiso   1.00
C673   C     0.34615   0.24429   0.73185   0.00000  Uiso   1.00
C674   C     0.65372   0.25836   0.76691   0.00000  Uiso   1.00
C675   C     0.47571   0.04451   0.77987   0.00000  Uiso   1.00
C676   C     0.47850   0.45355   0.70795   0.00000  Uiso   1.00
C677   C     0.47079   0.09102   0.77797   0.00000  Uiso   1.00
C678   C     0.47273   0.40696   0.71049   0.00000  Uiso   1.00
C679   C     0.50138   0.11583   0.74950   0.00000  Uiso   1.00
C680   C     0.50064   0.38430   0.74946   0.00000  Uiso   1.00
C681   C     0.53388   0.09460   0.72108   0.00000  Uiso   1.00
C682   C     0.53173   0.40775   0.78625   0.00000  Uiso   1.00
C683   C     0.53506   0.04855   0.72037   0.00000  Uiso   1.00
C684   C     0.53384   0.45374   0.78500   0.00000  Uiso   1.00
C685   C     0.50633   0.02401   0.74934   0.00000  Uiso   1.00
C686   C     0.50723   0.47620   0.74664   0.00000  Uiso   1.00
H687   H     0.55907   0.03182   0.69779   0.00000  Uiso   1.00
H688   H     0.55639   0.47213   0.81402   0.00000  Uiso   1.00
H689   H     0.45021   0.19080   0.52906   0.00000  Uiso   1.00
H690   H     0.57265   0.28738   0.97447   0.00000  Uiso   1.00
H691   H     0.54969   0.30894   0.54186   0.00000  Uiso   1.00
H692   H     0.42809   0.21112   0.95545   0.00000  Uiso   1.00
N693   N     0.50000   0.24999   0.62624   0.00000  Uiso   1.00
N694   N     0.50000   0.25001   0.87377   0.00000  Uiso   1.00
O695   O     0.50000   0.18454   0.78974   0.00000  Uiso   1.00
O696   O     0.50000   0.31547   0.71026   0.00000  Uiso   1.00
O697   O     0.50000   0.18453   0.71026   0.00000  Uiso   1.00
O698   O     0.50000   0.31547   0.78974   0.00000  Uiso   1.00
O699   O     0.42392   0.25000   0.78045   0.00000  Uiso   1.00
O700   O     0.57608   0.25000   0.71956   0.00000  Uiso   1.00
O701   O     0.42392   0.25000   0.70097   0.00000  Uiso   1.00
O702   O     0.57608   0.25001   0.79904   0.00000  Uiso   1.00
Zn703  Zn    0.50000   0.25001   0.80307   0.00000  Uiso   1.00
Zn704  Zn    0.50000   0.25000   0.69693   0.00000  Uiso   1.00
N705   N     0.65467   0.21996   0.69067   0.00000  Uiso   1.00
H706   H     0.66072   0.23784   0.66034   0.00000  Uiso   1.00
H707   H     0.33904   0.18906   0.68934   0.00000  Uiso   1.00
N708   N     0.34454   0.28642   0.80534   0.00000  Uiso   1.00
H709   H     0.65937   0.31719   0.80272   0.00000  Uiso   1.00
H710   H     0.33805   0.27190   0.83733   0.00000  Uiso   1.00
N711   N     0.45253   0.01826   0.81347   0.00000  Uiso   1.00
H712   H     0.45626   0.03146   0.84725   0.00000  Uiso   1.00
C713   C     0.40140   0.49914   0.79721   0.00000  Uiso   1.00
H714   H     0.38815   0.47896   0.82609   0.00000  Uiso   1.00
H715   H     0.40271   0.47664   0.76653   0.00000  Uiso   1.00
H716   H     0.37277   0.02573   0.78736   0.00000  Uiso   1.00
N717   N     0.45792   0.47775   0.66653   0.00000  Uiso   1.00
H718   H     0.46329   0.46328   0.63479   0.00000  Uiso   1.00
C719   C     0.40660   0.49599   0.66629   0.00000  Uiso   1.00
H720   H     0.39539   0.01449   0.63275   0.00000  Uiso   1.00
H721   H     0.40650   0.01984   0.69604   0.00000  Uiso   1.00
H722   H     0.37728   0.46896   0.66865   0.00000  Uiso   1.00
N723   N     0.43345   0.11273   0.80203   0.00000  Uiso   1.00
H724   H     0.42493   0.09758   0.83248   0.00000  Uiso   1.00
C725   C     0.38691   0.12642   0.77153   0.00000  Uiso   1.00
H726   H     0.36531   0.09696   0.75446   0.00000  Uiso   1.00
H727   H     0.39711   0.14918   0.74352   0.00000  Uiso   1.00
H728   H     0.36103   0.14439   0.79274   0.00000  Uiso   1.00
N729   N     0.43787   0.38282   0.67553   0.00000  Uiso   1.00
H730   H     0.43255   0.39598   0.64187   0.00000  Uiso   1.00
C731   C     0.38927   0.36818   0.69082   0.00000  Uiso   1.00
H732   H     0.36569   0.39730   0.69790   0.00000  Uiso   1.00
H733   H     0.39653   0.34783   0.72353   0.00000  Uiso   1.00
H734   H     0.36654   0.34730   0.66260   0.00000  Uiso   1.00
N735   N     0.56625   0.11982   0.69343   0.00000  Uiso   1.00
H736   H     0.60505   0.11120   0.70420   0.00000  Uiso   1.00
H737   H     0.55629   0.11043   0.65786   0.00000  Uiso   1.00
N738   N     0.56188   0.38493   0.82460   0.00000  Uiso   1.00
H739   H     0.55066   0.39629   0.85632   0.00000  Uiso   1.00
H740   H     0.60116   0.39381   0.82479   0.00000  Uiso   1.00
N741   N     0.44111   0.18621   0.62040   0.00000  Uiso   1.00
H742   H     0.45362   0.15446   0.61255   0.00000  Uiso   1.00
H743   H     0.40219   0.18889   0.60496   0.00000  Uiso   1.00
N744   N     0.57979   0.29441   0.88337   0.00000  Uiso   1.00
H745   H     0.61487   0.27943   0.89693   0.00000  Uiso   1.00
H746   H     0.58190   0.32720   0.89601   0.00000  Uiso   1.00
N747   N     0.55899   0.31373   0.63557   0.00000  Uiso   1.00
H748   H     0.54649   0.34547   0.62451   0.00000  Uiso   1.00
H749   H     0.59789   0.31100   0.63011   0.00000  Uiso   1.00
N750   N     0.42330   0.20179   0.86281   0.00000  Uiso   1.00
H751   H     0.38654   0.21265   0.86821   0.00000  Uiso   1.00
H752   H     0.42604   0.16879   0.87444   0.00000  Uiso   1.00
C753   C     0.83369   0.16394   0.74994   0.00000  Uiso   1.00
C754   C     0.83344   0.33610   0.74997   0.00000  Uiso   1.00
C755   C     0.80509   0.21741   0.54922   0.00000  Uiso   1.00
C756   C     0.87328   0.27126   0.95273   0.00000  Uiso   1.00
C757   C     0.80481   0.21842   0.59872   0.00000  Uiso   1.00
C758   C     0.87231   0.27170   0.90305   0.00000  Uiso   1.00
C759   C     0.86186   0.28149   0.60606   0.00000  Uiso   1.00
C760   C     0.79498   0.22741   0.89288   0.00000  Uiso   1.00
C761   C     0.86150   0.28239   0.55649   0.00000  Uiso   1.00
C762   C     0.79371   0.22795   0.94228   0.00000  Uiso   1.00
C763   C     0.83328   0.24986   0.52686   0.00000  Uiso   1.00
C764   C     0.83331   0.24981   0.97349   0.00000  Uiso   1.00
C765   C     0.73398   0.24994   0.73778   0.00000  Uiso   1.00
C766   C     0.93272   0.25088   0.76204   0.00000  Uiso   1.00
C767   C     0.67948   0.24429   0.73185   0.00000  Uiso   1.00
C768   C     0.98706   0.25836   0.76691   0.00000  Uiso   1.00
C769   C     0.80905   0.04451   0.77987   0.00000  Uiso   1.00
C770   C     0.81183   0.45355   0.70795   0.00000  Uiso   1.00
C771   C     0.80413   0.09102   0.77797   0.00000  Uiso   1.00
C772   C     0.80606   0.40696   0.71049   0.00000  Uiso   1.00
C773   C     0.83472   0.11583   0.74950   0.00000  Uiso   1.00
C774   C     0.83397   0.38430   0.74946   0.00000  Uiso   1.00
C775   C     0.86722   0.09460   0.72108   0.00000  Uiso   1.00
C776   C     0.86507   0.40775   0.78625   0.00000  Uiso   1.00
C777   C     0.86840   0.04855   0.72037   0.00000  Uiso   1.00
C778   C     0.86717   0.45374   0.78500   0.00000  Uiso   1.00
C779   C     0.83966   0.02401   0.74934   0.00000  Uiso   1.00
C780   C     0.84056   0.47620   0.74664   0.00000  Uiso   1.00
H781   H     0.89240   0.03182   0.69779   0.00000  Uiso   1.00
H782   H     0.88972   0.47213   0.81402   0.00000  Uiso   1.00
H783   H     0.78355   0.19080   0.52906   0.00000  Uiso   1.00
H784   H     0.90598   0.28738   0.97447   0.00000  Uiso   1.00
H785   H     0.88302   0.30894   0.54186   0.00000  Uiso   1.00
H786   H     0.76142   0.21112   0.95545   0.00000  Uiso   1.00
N787   N     0.83333   0.24999   0.62624   0.00000  Uiso   1.00
N788   N     0.83333   0.25001   0.87377   0.00000  Uiso   1.00
O789   O     0.83334   0.18454   0.78974   0.00000  Uiso   1.00
O790   O     0.83333   0.31547   0.71026   0.00000  Uiso   1.00
O791   O     0.83334   0.18453   0.71026   0.00000  Uiso   1.00
O792   O     0.83333   0.31547   0.78974   0.00000  Uiso   1.00
O793   O     0.75725   0.25000   0.78045   0.00000  Uiso   1.00
O794   O     0.90942   0.25000   0.71956   0.00000  Uiso   1.00
O795   O     0.75725   0.25000   0.70097   0.00000  Uiso   1.00
O796   O     0.90942   0.25001   0.79904   0.00000  Uiso   1.00
Zn797  Zn    0.83333   0.25001   0.80307   0.00000  Uiso   1.00
Zn798  Zn    0.83333   0.25000   0.69693   0.00000  Uiso   1.00
N799   N     0.98801   0.21996   0.69067   0.00000  Uiso   1.00
H800   H     0.99405   0.23784   0.66034   0.00000  Uiso   1.00
H801   H     0.67237   0.18906   0.68934   0.00000  Uiso   1.00
N802   N     0.67787   0.28642   0.80534   0.00000  Uiso   1.00
H803   H     0.99270   0.31719   0.80272   0.00000  Uiso   1.00
H804   H     0.67138   0.27190   0.83733   0.00000  Uiso   1.00
N805   N     0.78586   0.01826   0.81347   0.00000  Uiso   1.00
H806   H     0.78959   0.03146   0.84725   0.00000  Uiso   1.00
C807   C     0.73473   0.49914   0.79721   0.00000  Uiso   1.00
H808   H     0.72148   0.47896   0.82609   0.00000  Uiso   1.00
H809   H     0.73604   0.47664   0.76653   0.00000  Uiso   1.00
H810   H     0.70611   0.02573   0.78736   0.00000  Uiso   1.00
N811   N     0.79125   0.47775   0.66653   0.00000  Uiso   1.00
H812   H     0.79663   0.46328   0.63479   0.00000  Uiso   1.00
C813   C     0.73993   0.49599   0.66629   0.00000  Uiso   1.00
H814   H     0.72872   0.01449   0.63275   0.00000  Uiso   1.00
H815   H     0.73983   0.01984   0.69604   0.00000  Uiso   1.00
H816   H     0.71061   0.46896   0.66865   0.00000  Uiso   1.00
N817   N     0.76678   0.11273   0.80203   0.00000  Uiso   1.00
H818   H     0.75827   0.09758   0.83248   0.00000  Uiso   1.00
C819   C     0.72025   0.12642   0.77153   0.00000  Uiso   1.00
H820   H     0.69864   0.09696   0.75446   0.00000  Uiso   1.00
H821   H     0.73045   0.14918   0.74352   0.00000  Uiso   1.00
H822   H     0.69437   0.14439   0.79274   0.00000  Uiso   1.00
N823   N     0.77121   0.38282   0.67553   0.00000  Uiso   1.00
H824   H     0.76588   0.39598   0.64187   0.00000  Uiso   1.00
C825   C     0.72261   0.36818   0.69082   0.00000  Uiso   1.00
H826   H     0.69903   0.39730   0.69790   0.00000  Uiso   1.00
H827   H     0.72987   0.34783   0.72353   0.00000  Uiso   1.00
H828   H     0.69988   0.34730   0.66260   0.00000  Uiso   1.00
N829   N     0.89958   0.11982   0.69343   0.00000  Uiso   1.00
H830   H     0.93838   0.11120   0.70420   0.00000  Uiso   1.00
H831   H     0.88962   0.11043   0.65786   0.00000  Uiso   1.00
N832   N     0.89521   0.38493   0.82460   0.00000  Uiso   1.00
H833   H     0.88399   0.39629   0.85632   0.00000  Uiso   1.00
H834   H     0.93449   0.39381   0.82479   0.00000  Uiso   1.00
N835   N     0.77444   0.18621   0.62040   0.00000  Uiso   1.00
H836   H     0.78696   0.15446   0.61255   0.00000  Uiso   1.00
H837   H     0.73552   0.18889   0.60496   0.00000  Uiso   1.00
N838   N     0.91313   0.29441   0.88337   0.00000  Uiso   1.00
H839   H     0.94820   0.27943   0.89693   0.00000  Uiso   1.00
H840   H     0.91523   0.32720   0.89601   0.00000  Uiso   1.00
N841   N     0.89232   0.31373   0.63557   0.00000  Uiso   1.00
H842   H     0.87983   0.34547   0.62451   0.00000  Uiso   1.00
H843   H     0.93122   0.31100   0.63011   0.00000  Uiso   1.00
N844   N     0.75664   0.20179   0.86281   0.00000  Uiso   1.00
H845   H     0.71987   0.21265   0.86821   0.00000  Uiso   1.00
H846   H     0.75937   0.16879   0.87444   0.00000  Uiso   1.00
C847   C     0.16702   0.66394   0.74994   0.00000  Uiso   1.00
C848   C     0.16677   0.83610   0.74997   0.00000  Uiso   1.00
C849   C     0.13842   0.71741   0.54922   0.00000  Uiso   1.00
C850   C     0.20662   0.77126   0.95273   0.00000  Uiso   1.00
C851   C     0.13814   0.71842   0.59872   0.00000  Uiso   1.00
C852   C     0.20564   0.77170   0.90305   0.00000  Uiso   1.00
C853   C     0.19519   0.78149   0.60606   0.00000  Uiso   1.00
C854   C     0.12832   0.72741   0.89288   0.00000  Uiso   1.00
C855   C     0.19483   0.78239   0.55649   0.00000  Uiso   1.00
C856   C     0.12704   0.72795   0.94228   0.00000  Uiso   1.00
C857   C     0.16661   0.74986   0.52686   0.00000  Uiso   1.00
C858   C     0.16664   0.74981   0.97349   0.00000  Uiso   1.00
C859   C     0.06732   0.74994   0.73778   0.00000  Uiso   1.00
C860   C     0.26605   0.75088   0.76204   0.00000  Uiso   1.00
C861   C     0.01282   0.74429   0.73185   0.00000  Uiso   1.00
C862   C     0.32039   0.75836   0.76691   0.00000  Uiso   1.00
C863   C     0.14238   0.54451   0.77987   0.00000  Uiso   1.00
C864   C     0.14516   0.95355   0.70795   0.00000  Uiso   1.00
C865   C     0.13746   0.59102   0.77797   0.00000  Uiso   1.00
C866   C     0.13940   0.90696   0.71049   0.00000  Uiso   1.00
C867   C     0.16805   0.61583   0.74950   0.00000  Uiso   1.00
C868   C     0.16731   0.88430   0.74946   0.00000  Uiso   1.00
C869   C     0.20055   0.59460   0.72108   0.00000  Uiso   1.00
C870   C     0.19840   0.90775   0.78625   0.00000  Uiso   1.00
C871   C     0.20173   0.54855   0.72037   0.00000  Uiso   1.00
C872   C     0.20050   0.95374   0.78500   0.00000  Uiso   1.00
C873   C     0.17300   0.52401   0.74934   0.00000  Uiso   1.00
C874   C     0.17390   0.97620   0.74664   0.00000  Uiso   1.00
H875   H     0.22574   0.53182   0.69779   0.00000  Uiso   1.00
H876   H     0.22306   0.97213   0.81402   0.00000  Uiso   1.00
H877   H     0.11688   0.69080   0.52906   0.00000  Uiso   1.00
H878   H     0.23932   0.78738   0.97447   0.00000  Uiso   1.00
H879   H     0.21636   0.80894   0.54186   0.00000  Uiso   1.00
H880   H     0.09476   0.71112   0.95545   0.00000  Uiso   1.00
N881   N     0.16667   0.74999   0.62624   0.00000  Uiso   1.00
N882   N     0.16667   0.75001   0.87377   0.00000  Uiso   1.00
O883   O     0.16667   0.68454   0.78974   0.00000  Uiso   1.00
O884   O     0.16666   0.81547   0.71026   0.00000  Uiso   1.00
O885   O     0.16667   0.68453   0.71026   0.00000  Uiso   1.00
O886   O     0.16666   0.81547   0.78974   0.00000  Uiso   1.00
O887   O     0.09058   0.75000   0.78045   0.00000  Uiso   1.00
O888   O     0.24275   0.75000   0.71956   0.00000  Uiso   1.00
O889   O     0.09058   0.75000   0.70097   0.00000  Uiso   1.00
O890   O     0.24275   0.75001   0.79904   0.00000  Uiso   1.00
Zn891  Zn    0.16667   0.75001   0.80307   0.00000  Uiso   1.00
Zn892  Zn    0.16667   0.75000   0.69693   0.00000  Uiso   1.00
N893   N     0.32134   0.71996   0.69067   0.00000  Uiso   1.00
H894   H     0.32739   0.73784   0.66034   0.00000  Uiso   1.00
H895   H     0.00570   0.68906   0.68934   0.00000  Uiso   1.00
N896   N     0.01121   0.78642   0.80534   0.00000  Uiso   1.00
H897   H     0.32604   0.81719   0.80272   0.00000  Uiso   1.00
H898   H     0.00471   0.77190   0.83733   0.00000  Uiso   1.00
N899   N     0.11919   0.51826   0.81347   0.00000  Uiso   1.00
H900   H     0.12292   0.53146   0.84725   0.00000  Uiso   1.00
C901   C     0.06806   0.99914   0.79721   0.00000  Uiso   1.00
H902   H     0.05482   0.97896   0.82609   0.00000  Uiso   1.00
H903   H     0.06937   0.97664   0.76653   0.00000  Uiso   1.00
H904   H     0.03944   0.52573   0.78736   0.00000  Uiso   1.00
N905   N     0.12458   0.97775   0.66653   0.00000  Uiso   1.00
H906   H     0.12996   0.96328   0.63479   0.00000  Uiso   1.00
C907   C     0.07326   0.99599   0.66629   0.00000  Uiso   1.00
H908   H     0.06206   0.51449   0.63275   0.00000  Uiso   1.00
H909   H     0.07317   0.51984   0.69604   0.00000  Uiso   1.00
H910   H     0.04395   0.96896   0.66865   0.00000  Uiso   1.00
N911   N     0.10012   0.61273   0.80203   0.00000  Uiso   1.00
H912   H     0.09160   0.59758   0.83248   0.00000  Uiso   1.00
C913   C     0.05358   0.62642   0.77153   0.00000  Uiso   1.00
H914   H     0.03198   0.59696   0.75446   0.00000  Uiso   1.00
H915   H     0.06378   0.64918   0.74352   0.00000  Uiso   1.00
H916   H     0.02770   0.64439   0.79274   0.00000  Uiso   1.00
N917   N     0.10454   0.88282   0.67553   0.00000  Uiso   1.00
H918   H     0.09921   0.89598   0.64187   0.00000  Uiso   1.00
C919   C     0.05594   0.86818   0.69082   0.00000  Uiso   1.00
H920   H     0.03236   0.89730   0.69790   0.00000  Uiso   1.00
H921   H     0.06320   0.84783   0.72353   0.00000  Uiso   1.00
H922   H     0.03321   0.84730   0.66260   0.00000  Uiso   1.00
N923   N     0.23291   0.61982   0.69343   0.00000  Uiso   1.00
H924   H     0.27171   0.61120   0.70420   0.00000  Uiso   1.00
H925   H     0.22296   0.61043   0.65786   0.00000  Uiso   1.00
N926   N     0.22855   0.88493   0.82460   0.00000  Uiso   1.00
H927   H     0.21732   0.89629   0.85632   0.00000  Uiso   1.00
H928   H     0.26782   0.89381   0.82479   0.00000  Uiso   1.00
N929   N     0.10777   0.68621   0.62040   0.00000  Uiso   1.00
H930   H     0.12029   0.65446   0.61255   0.00000  Uiso   1.00
H931   H     0.06885   0.68889   0.60496   0.00000  Uiso   1.00
N932   N     0.24646   0.79441   0.88337   0.00000  Uiso   1.00
H933   H     0.28154   0.77943   0.89693   0.00000  Uiso   1.00
H934   H     0.24857   0.82720   0.89601   0.00000  Uiso   1.00
N935   N     0.22566   0.81373   0.63557   0.00000  Uiso   1.00
H936   H     0.21316   0.84547   0.62451   0.00000  Uiso   1.00
H937   H     0.26455   0.81100   0.63011   0.00000  Uiso   1.00
N938   N     0.08997   0.70179   0.86281   0.00000  Uiso   1.00
H939   H     0.05320   0.71265   0.86821   0.00000  Uiso   1.00
H940   H     0.09271   0.66879   0.87444   0.00000  Uiso   1.00
C941   C     0.50036   0.66394   0.74994   0.00000  Uiso   1.00
C942   C     0.50010   0.83610   0.74997   0.00000  Uiso   1.00
C943   C     0.47176   0.71741   0.54922   0.00000  Uiso   1.00
C944   C     0.53995   0.77126   0.95273   0.00000  Uiso   1.00
C945   C     0.47147   0.71842   0.59872   0.00000  Uiso   1.00
C946   C     0.53897   0.77170   0.90305   0.00000  Uiso   1.00
C947   C     0.52853   0.78149   0.60606   0.00000  Uiso   1.00
C948   C     0.46165   0.72741   0.89288   0.00000  Uiso   1.00
C949   C     0.52816   0.78239   0.55649   0.00000  Uiso   1.00
C950   C     0.46038   0.72795   0.94228   0.00000  Uiso   1.00
C951   C     0.49994   0.74986   0.52686   0.00000  Uiso   1.00
C952   C     0.49998   0.74981   0.97349   0.00000  Uiso   1.00
C953   C     0.40065   0.74994   0.73778   0.00000  Uiso   1.00
C954   C     0.59939   0.75088   0.76204   0.00000  Uiso   1.00
C955   C     0.34615   0.74429   0.73185   0.00000  Uiso   1.00
C956   C     0.65372   0.75836   0.76691   0.00000  Uiso   1.00
C957   C     0.47571   0.54451   0.77987   0.00000  Uiso   1.00
C958   C     0.47850   0.95355   0.70795   0.00000  Uiso   1.00
C959   C     0.47079   0.59102   0.77797   0.00000  Uiso   1.00
C960   C     0.47273   0.90696   0.71049   0.00000  Uiso   1.00
C961   C     0.50138   0.61583   0.74950   0.00000  Uiso   1.00
C962   C     0.50064   0.88430   0.74946   0.00000  Uiso   1.00
C963   C     0.53388   0.59460   0.72108   0.00000  Uiso   1.00
C964   C     0.53173   0.90775   0.78625   0.00000  Uiso   1.00
C965   C     0.53506   0.54855   0.72037   0.00000  Uiso   1.00
C966   C     0.53384   0.95374   0.78500   0.00000  Uiso   1.00
C967   C     0.50633   0.52401   0.74934   0.00000  Uiso   1.00
C968   C     0.50723   0.97620   0.74664   0.00000  Uiso   1.00
H969   H     0.55907   0.53182   0.69779   0.00000  Uiso   1.00
H970   H     0.55639   0.97213   0.81402   0.00000  Uiso   1.00
H971   H     0.45021   0.69080   0.52906   0.00000  Uiso   1.00
H972   H     0.57265   0.78738   0.97447   0.00000  Uiso   1.00
H973   H     0.54969   0.80894   0.54186   0.00000  Uiso   1.00
H974   H     0.42809   0.71112   0.95545   0.00000  Uiso   1.00
N975   N     0.50000   0.74999   0.62624   0.00000  Uiso   1.00
N976   N     0.50000   0.75001   0.87377   0.00000  Uiso   1.00
O977   O     0.50000   0.68454   0.78974   0.00000  Uiso   1.00
O978   O     0.50000   0.81547   0.71026   0.00000  Uiso   1.00
O979   O     0.50000   0.68453   0.71026   0.00000  Uiso   1.00
O980   O     0.50000   0.81547   0.78974   0.00000  Uiso   1.00
O981   O     0.42392   0.75000   0.78045   0.00000  Uiso   1.00
O982   O     0.57608   0.75000   0.71956   0.00000  Uiso   1.00
O983   O     0.42392   0.75000   0.70097   0.00000  Uiso   1.00
O984   O     0.57608   0.75001   0.79904   0.00000  Uiso   1.00
Zn985  Zn    0.50000   0.75001   0.80307   0.00000  Uiso   1.00
Zn986  Zn    0.50000   0.75000   0.69693   0.00000  Uiso   1.00
N987   N     0.65467   0.71996   0.69067   0.00000  Uiso   1.00
H988   H     0.66072   0.73784   0.66034   0.00000  Uiso   1.00
H989   H     0.33904   0.68906   0.68934   0.00000  Uiso   1.00
N990   N     0.34454   0.78642   0.80534   0.00000  Uiso   1.00
H991   H     0.65937   0.81719   0.80272   0.00000  Uiso   1.00
H992   H     0.33805   0.77190   0.83733   0.00000  Uiso   1.00
N993   N     0.45253   0.51826   0.81347   0.00000  Uiso   1.00
H994   H     0.45626   0.53146   0.84725   0.00000  Uiso   1.00
C995   C     0.40140   0.99914   0.79721   0.00000  Uiso   1.00
H996   H     0.38815   0.97896   0.82609   0.00000  Uiso   1.00
H997   H     0.40271   0.97664   0.76653   0.00000  Uiso   1.00
H998   H     0.37277   0.52573   0.78736   0.00000  Uiso   1.00
N999   N     0.45792   0.97775   0.66653   0.00000  Uiso   1.00
H1000  H     0.46329   0.96328   0.63479   0.00000  Uiso   1.00
C1001  C     0.40660   0.99599   0.66629   0.00000  Uiso   1.00
H1002  H     0.39539   0.51449   0.63275   0.00000  Uiso   1.00
H1003  H     0.40650   0.51984   0.69604   0.00000  Uiso   1.00
H1004  H     0.37728   0.96896   0.66865   0.00000  Uiso   1.00
N1005  N     0.43345   0.61273   0.80203   0.00000  Uiso   1.00
H1006  H     0.42493   0.59758   0.83248   0.00000  Uiso   1.00
C1007  C     0.38691   0.62642   0.77153   0.00000  Uiso   1.00
H1008  H     0.36531   0.59696   0.75446   0.00000  Uiso   1.00
H1009  H     0.39711   0.64918   0.74352   0.00000  Uiso   1.00
H1010  H     0.36103   0.64439   0.79274   0.00000  Uiso   1.00
N1011  N     0.43787   0.88282   0.67553   0.00000  Uiso   1.00
H1012  H     0.43255   0.89598   0.64187   0.00000  Uiso   1.00
C1013  C     0.38927   0.86818   0.69082   0.00000  Uiso   1.00
H1014  H     0.36569   0.89730   0.69790   0.00000  Uiso   1.00
H1015  H     0.39653   0.84783   0.72353   0.00000  Uiso   1.00
H1016  H     0.36654   0.84730   0.66260   0.00000  Uiso   1.00
N1017  N     0.56625   0.61982   0.69343   0.00000  Uiso   1.00
H1018  H     0.60505   0.61120   0.70420   0.00000  Uiso   1.00
H1019  H     0.55629   0.61043   0.65786   0.00000  Uiso   1.00
N1020  N     0.56188   0.88493   0.82460   0.00000  Uiso   1.00
H1021  H     0.55066   0.89629   0.85632   0.00000  Uiso   1.00
H1022  H     0.60116   0.89381   0.82479   0.00000  Uiso   1.00
N1023  N     0.44111   0.68621   0.62040   0.00000  Uiso   1.00
H1024  H     0.45362   0.65446   0.61255   0.00000  Uiso   1.00
H1025  H     0.40219   0.68889   0.60496   0.00000  Uiso   1.00
N1026  N     0.57979   0.79441   0.88337   0.00000  Uiso   1.00
H1027  H     0.61487   0.77943   0.89693   0.00000  Uiso   1.00
H1028  H     0.58190   0.82720   0.89601   0.00000  Uiso   1.00
N1029  N     0.55899   0.81373   0.63557   0.00000  Uiso   1.00
H1030  H     0.54649   0.84547   0.62451   0.00000  Uiso   1.00
H1031  H     0.59789   0.81100   0.63011   0.00000  Uiso   1.00
N1032  N     0.42330   0.70179   0.86281   0.00000  Uiso   1.00
H1033  H     0.38654   0.71265   0.86821   0.00000  Uiso   1.00
H1034  H     0.42604   0.66879   0.87444   0.00000  Uiso   1.00
C1035  C     0.83369   0.66394   0.74994   0.00000  Uiso   1.00
C1036  C     0.83344   0.83610   0.74997   0.00000  Uiso   1.00
C1037  C     0.80509   0.71741   0.54922   0.00000  Uiso   1.00
C1038  C     0.87328   0.77126   0.95273   0.00000  Uiso   1.00
C1039  C     0.80481   0.71842   0.59872   0.00000  Uiso   1.00
C1040  C     0.87231   0.77170   0.90305   0.00000  Uiso   1.00
C1041  C     0.86186   0.78149   0.60606   0.00000  Uiso   1.00
C1042  C     0.79498   0.72741   0.89288   0.00000  Uiso   1.00
C1043  C     0.86150   0.78239   0.55649   0.00000  Uiso   1.00
C1044  C     0.79371   0.72795   0.94228   0.00000  Uiso   1.00
C1045  C     0.83328   0.74986   0.52686   0.00000  Uiso   1.00
C1046  C     0.83331   0.74981   0.97349   0.00000  Uiso   1.00
C1047  C     0.73398   0.74994   0.73778   0.00000  Uiso   1.00
C1048  C     0.93272   0.75088   0.76204   0.00000  Uiso   1.00
C1049  C     0.67948   0.74429   0.73185   0.00000  Uiso   1.00
C1050  C     0.98706   0.75836   0.76691   0.00000  Uiso   1.00
C1051  C     0.80905   0.54451   0.77987   0.00000  Uiso   1.00
C1052  C     0.81183   0.95355   0.70795   0.00000  Uiso   1.00
C1053  C     0.80413   0.59102   0.77797   0.00000  Uiso   1.00
C1054  C     0.80606   0.90696   0.71049   0.00000  Uiso   1.00
C1055  C     0.83472   0.61583   0.74950   0.00000  Uiso   1.00
C1056  C     0.83397   0.88430   0.74946   0.00000  Uiso   1.00
C1057  C     0.86722   0.59460   0.72108   0.00000  Uiso   1.00
C1058  C     0.86507   0.90775   0.78625   0.00000  Uiso   1.00
C1059  C     0.86840   0.54855   0.72037   0.00000  Uiso   1.00
C1060  C     0.86717   0.95374   0.78500   0.00000  Uiso   1.00
C1061  C     0.83966   0.52401   0.74934   0.00000  Uiso   1.00
C1062  C     0.84056   0.97620   0.74664   0.00000  Uiso   1.00
H1063  H     0.89240   0.53182   0.69779   0.00000  Uiso   1.00
H1064  H     0.88972   0.97213   0.81402   0.00000  Uiso   1.00
H1065  H     0.78355   0.69080   0.52906   0.00000  Uiso   1.00
H1066  H     0.90598   0.78738   0.97447   0.00000  Uiso   1.00
H1067  H     0.88302   0.80894   0.54186   0.00000  Uiso   1.00
H1068  H     0.76142   0.71112   0.95545   0.00000  Uiso   1.00
N1069  N     0.83333   0.74999   0.62624   0.00000  Uiso   1.00
N1070  N     0.83333   0.75001   0.87377   0.00000  Uiso   1.00
O1071  O     0.83334   0.68454   0.78974   0.00000  Uiso   1.00
O1072  O     0.83333   0.81547   0.71026   0.00000  Uiso   1.00
O1073  O     0.83334   0.68453   0.71026   0.00000  Uiso   1.00
O1074  O     0.83333   0.81547   0.78974   0.00000  Uiso   1.00
O1075  O     0.75725   0.75000   0.78045   0.00000  Uiso   1.00
O1076  O     0.90942   0.75000   0.71956   0.00000  Uiso   1.00
O1077  O     0.75725   0.75000   0.70097   0.00000  Uiso   1.00
O1078  O     0.90942   0.75001   0.79904   0.00000  Uiso   1.00
Zn1079 Zn    0.83333   0.75001   0.80307   0.00000  Uiso   1.00
Zn1080 Zn    0.83333   0.75000   0.69693   0.00000  Uiso   1.00
N1081  N     0.98801   0.71996   0.69067   0.00000  Uiso   1.00
H1082  H     0.99405   0.73784   0.66034   0.00000  Uiso   1.00
H1083  H     0.67237   0.68906   0.68934   0.00000  Uiso   1.00
N1084  N     0.67787   0.78642   0.80534   0.00000  Uiso   1.00
H1085  H     0.99270   0.81719   0.80272   0.00000  Uiso   1.00
H1086  H     0.67138   0.77190   0.83733   0.00000  Uiso   1.00
N1087  N     0.78586   0.51826   0.81347   0.00000  Uiso   1.00
H1088  H     0.78959   0.53146   0.84725   0.00000  Uiso   1.00
C1089  C     0.73473   0.99914   0.79721   0.00000  Uiso   1.00
H1090  H     0.72148   0.97896   0.82609   0.00000  Uiso   1.00
H1091  H     0.73604   0.97664   0.76653   0.00000  Uiso   1.00
H1092  H     0.70611   0.52573   0.78736   0.00000  Uiso   1.00
N1093  N     0.79125   0.97775   0.66653   0.00000  Uiso   1.00
H1094  H     0.79663   0.96328   0.63479   0.00000  Uiso   1.00
C1095  C     0.73993   0.99599   0.66629   0.00000  Uiso   1.00
H1096  H     0.72872   0.51449   0.63275   0.00000  Uiso   1.00
H1097  H     0.73983   0.51984   0.69604   0.00000  Uiso   1.00
H1098  H     0.71061   0.96896   0.66865   0.00000  Uiso   1.00
N1099  N     0.76678   0.61273   0.80203   0.00000  Uiso   1.00
H1100  H     0.75827   0.59758   0.83248   0.00000  Uiso   1.00
C1101  C     0.72025   0.62642   0.77153   0.00000  Uiso   1.00
H1102  H     0.69864   0.59696   0.75446   0.00000  Uiso   1.00
H1103  H     0.73045   0.64918   0.74352   0.00000  Uiso   1.00
H1104  H     0.69437   0.64439   0.79274   0.00000  Uiso   1.00
N1105  N     0.77121   0.88282   0.67553   0.00000  Uiso   1.00
H1106  H     0.76588   0.89598   0.64187   0.00000  Uiso   1.00
C1107  C     0.72261   0.86818   0.69082   0.00000  Uiso   1.00
H1108  H     0.69903   0.89730   0.69790   0.00000  Uiso   1.00
H1109  H     0.72987   0.84783   0.72353   0.00000  Uiso   1.00
H1110  H     0.69988   0.84730   0.66260   0.00000  Uiso   1.00
N1111  N     0.89958   0.61982   0.69343   0.00000  Uiso   1.00
H1112  H     0.93838   0.61120   0.70420   0.00000  Uiso   1.00
H1113  H     0.88962   0.61043   0.65786   0.00000  Uiso   1.00
N1114  N     0.89521   0.88493   0.82460   0.00000  Uiso   1.00
H1115  H     0.88399   0.89629   0.85632   0.00000  Uiso   1.00
H1116  H     0.93449   0.89381   0.82479   0.00000  Uiso   1.00
N1117  N     0.77444   0.68621   0.62040   0.00000  Uiso   1.00
H1118  H     0.78696   0.65446   0.61255   0.00000  Uiso   1.00
H1119  H     0.73552   0.68889   0.60496   0.00000  Uiso   1.00
N1120  N     0.91313   0.79441   0.88337   0.00000  Uiso   1.00
H1121  H     0.94820   0.77943   0.89693   0.00000  Uiso   1.00
H1122  H     0.91523   0.82720   0.89601   0.00000  Uiso   1.00
N1123  N     0.89232   0.81373   0.63557   0.00000  Uiso   1.00
H1124  H     0.87983   0.84547   0.62451   0.00000  Uiso   1.00
H1125  H     0.93122   0.81100   0.63011   0.00000  Uiso   1.00
N1126  N     0.75664   0.70179   0.86281   0.00000  Uiso   1.00
H1127  H     0.71987   0.71265   0.86821   0.00000  Uiso   1.00
H1128  H     0.75937   0.66879   0.87444   0.00000  Uiso   1.00
loop_
_geom_bond_atom_site_label_1
_geom_bond_atom_site_label_2
_geom_bond_distance
_geom_bond_site_symmetry_2
_ccdc_geom_bond_type
C1     C21     1.443   .     S
C1     O37     1.291   .     A
C1     O39     1.287   .     A
C2     C22     1.445   .     S
C2     O38     1.288   .     A
C2     O40     1.291   .     A
C3     H31     1.080   .     S
C3     C5      1.410   .     A
C3     C11     1.411   .     A
C4     H32     1.081   .     S
C4     C6      1.411   .     A
C4     C12     1.408   .     A
C5     N83     1.429   .     S
C5     N35     1.364   .     A
C6     N86     1.427   .     S
C6     N36     1.368   .     A
C7     N89     1.429   .     S
C7     C9      1.410   .     A
C7     N35     1.364   .     A
C8     N36     1.367   .     A
C8     N92     1.427   .     S
C8     C10     1.411   .     A
C9     H33     1.081   .     S
C9     C11     1.411   .     A
C10    H34     1.080   .     S
C10    C12     1.408   .     A
C11    C576    1.519   1_554 S
C12    C575    1.519   .     S
C13    O41     1.277   .     A
C13    C15     1.404   .     S
C13    O43     1.281   .     A
C14    O42     1.272   .     A
C14    C16     1.408   .     S
C14    O44     1.286   .     A
C15    C204    1.348   1_455 S
C15    N235    1.444   1_455 S
C16    C109    1.348   .     S
C16    N144    1.442   .     S
C17    C27     1.405   .     A
C17    N53     1.429   .     S
C17    C19     1.403   .     A
C18    C20     1.405   .     A
C18    C28     1.405   .     A
C18    N59     1.428   .     S
C19    C21     1.414   .     A
C19    N65     1.428   .     S
C20    N71     1.430   .     S
C20    C22     1.417   .     A
C21    C23     1.408   .     A
C22    C24     1.406   .     A
C23    N77     1.435   .     S
C23    C25     1.382   .     A
C24    N80     1.432   .     S
C24    C26     1.380   .     A
C25    H29     1.085   .     S
C25    C27     1.389   .     A
C26    H30     1.085   .     S
C26    C28     1.388   .     A
C27    C310    1.436   1_545 S
C28    C309    1.436   .     S
N35    Zn46    2.012   .     S
N36    Zn45    2.012   .     S
O37    Zn45    1.999   .     S
O38    Zn46    1.999   .     S
O39    Zn46    2.000   .     S
O40    Zn45    2.000   .     S
O41    Zn45    1.984   .     S
O42    Zn46    1.984   .     S
O43    Zn46    1.990   .     S
O44    Zn45    1.990   .     S
N47    H48     1.046   .     S
N47    C109    1.444   .     S
N47    H143    1.045   .     S
H49    N235    1.045   1_455 S
N50    H52     1.043   .     S
N50    C204    1.442   1_455 S
N50    H239    1.046   1_455 S
H51    N144    1.046   .     S
N53    H54     1.030   .     S
N53    C337    1.446   1_545 S
C55    H56     1.110   .     S
C55    H57     1.108   .     S
C55    N335    1.446   .     S
C55    H340    1.108   .     S
H58    C337    1.108   1_545 S
N59    H60     1.030   .     S
N59    C61     1.446   .     S
C61    H64     1.108   .     S
C61    H344    1.110   .     S
C61    H345    1.108   .     S
H62    C343    1.110   1_545 S
H63    C343    1.108   1_545 S
N65    C67     1.448   .     S
N65    H66     1.029   .     S
C67    H68     1.110   .     S
C67    H69     1.107   .     S
C67    H70     1.110   .     S
N71    C73     1.449   .     S
N71    H72     1.029   .     S
C73    H74     1.110   .     S
C73    H75     1.109   .     S
C73    H76     1.111   .     S
N77    H79     1.046   .     S
N77    H78     1.046   .     S
N80    H82     1.046   .     S
N80    H81     1.046   .     S
N83    H84     1.046   .     S
N83    H85     1.046   .     S
N86    H88     1.044   .     S
N86    H87     1.045   .     S
N89    H91     1.046   .     S
N89    H90     1.046   .     S
N92    H94     1.044   .     S
N92    H93     1.044   .     S
C95    C115    1.443   .     S
C95    O131    1.291   .     A
C95    O133    1.287   .     A
C96    C116    1.445   .     S
C96    O132    1.288   .     A
C96    O134    1.291   .     A
C97    H125    1.080   .     S
C97    C99     1.410   .     A
C97    C105    1.411   .     A
C98    H126    1.081   .     S
C98    C100    1.411   .     A
C98    C106    1.408   .     A
C99    N177    1.429   .     S
C99    N129    1.364   .     A
C100   N180    1.427   .     S
C100   N130    1.368   .     A
C101   N183    1.429   .     S
C101   C103    1.410   .     A
C101   N129    1.364   .     A
C102   N130    1.367   .     A
C102   N186    1.427   .     S
C102   C104    1.411   .     A
C103   H127    1.081   .     S
C103   C105    1.411   .     A
C104   H128    1.080   .     S
C104   C106    1.408   .     A
C105   C670    1.519   1_554 S
C106   C669    1.519   .     S
C107   O135    1.277   .     A
C107   C109    1.404   .     S
C107   O137    1.281   .     A
C108   O136    1.272   .     A
C108   C110    1.408   .     S
C108   O138    1.286   .     A
C110   C203    1.348   .     S
C110   N238    1.442   .     S
C111   C121    1.405   .     A
C111   N147    1.429   .     S
C111   C113    1.403   .     A
C112   C114    1.405   .     A
C112   C122    1.405   .     A
C112   N153    1.428   .     S
C113   C115    1.414   .     A
C113   N159    1.428   .     S
C114   N165    1.430   .     S
C114   C116    1.417   .     A
C115   C117    1.408   .     A
C116   C118    1.406   .     A
C117   N171    1.435   .     S
C117   C119    1.382   .     A
C118   N174    1.432   .     S
C118   C120    1.380   .     A
C119   H123    1.085   .     S
C119   C121    1.389   .     A
C120   H124    1.085   .     S
C120   C122    1.388   .     A
C121   C404    1.436   1_545 S
C122   C403    1.436   .     S
N129   Zn140   2.012   .     S
N130   Zn139   2.012   .     S
O131   Zn139   1.999   .     S
O132   Zn140   1.999   .     S
O133   Zn140   2.000   .     S
O134   Zn139   2.000   .     S
O135   Zn139   1.984   .     S
O136   Zn140   1.984   .     S
O137   Zn140   1.990   .     S
O138   Zn139   1.990   .     S
N141   H142    1.046   .     S
N141   C203    1.444   .     S
N141   H237    1.045   .     S
N144   H146    1.043   .     S
H145   N238    1.046   .     S
N147   H148    1.030   .     S
N147   C431    1.446   1_545 S
C149   H150    1.110   .     S
C149   H151    1.108   .     S
C149   N429    1.446   .     S
C149   H434    1.108   .     S
H152   C431    1.108   1_545 S
N153   H154    1.030   .     S
N153   C155    1.446   .     S
C155   H158    1.108   .     S
C155   H438    1.110   .     S
C155   H439    1.108   .     S
H156   C437    1.110   1_545 S
H157   C437    1.108   1_545 S
N159   C161    1.448   .     S
N159   H160    1.029   .     S
C161   H162    1.110   .     S
C161   H163    1.107   .     S
C161   H164    1.110   .     S
N165   C167    1.449   .     S
N165   H166    1.029   .     S
C167   H168    1.110   .     S
C167   H169    1.109   .     S
C167   H170    1.111   .     S
N171   H173    1.046   .     S
N171   H172    1.046   .     S
N174   H176    1.046   .     S
N174   H175    1.046   .     S
N177   H178    1.046   .     S
N177   H179    1.046   .     S
N180   H182    1.044   .     S
N180   H181    1.045   .     S
N183   H185    1.046   .     S
N183   H184    1.046   .     S
N186   H188    1.044   .     S
N186   H187    1.044   .     S
C189   C209    1.443   .     S
C189   O225    1.291   .     A
C189   O227    1.287   .     A
C190   C210    1.445   .     S
C190   O226    1.288   .     A
C190   O228    1.291   .     A
C191   H219    1.080   .     S
C191   C193    1.410   .     A
C191   C199    1.411   .     A
C192   H220    1.081   .     S
C192   C194    1.411   .     A
C192   C200    1.408   .     A
C193   N271    1.429   .     S
C193   N223    1.364   .     A
C194   N274    1.427   .     S
C194   N224    1.368   .     A
C195   N277    1.429   .     S
C195   C197    1.410   .     A
C195   N223    1.364   .     A
C196   N224    1.367   .     A
C196   N280    1.427   .     S
C196   C198    1.411   .     A
C197   H221    1.081   .     S
C197   C199    1.411   .     A
C198   H222    1.080   .     S
C198   C200    1.408   .     A
C199   C764    1.519   1_554 S
C200   C763    1.519   .     S
C201   O229    1.277   .     A
C201   C203    1.404   .     S
C201   O231    1.281   .     A
C202   O230    1.272   .     A
C202   C204    1.408   .     S
C202   O232    1.286   .     A
C204   C15     1.348   1_655 S
C204   N50     1.442   1_655 S
C205   C215    1.405   .     A
C205   N241    1.429   .     S
C205   C207    1.403   .     A
C206   C208    1.405   .     A
C206   C216    1.405   .     A
C206   N247    1.428   .     S
C207   C209    1.414   .     A
C207   N253    1.428   .     S
C208   N259    1.430   .     S
C208   C210    1.417   .     A
C209   C211    1.408   .     A
C210   C212    1.406   .     A
C211   N265    1.435   .     S
C211   C213    1.382   .     A
C212   N268    1.432   .     S
C212   C214    1.380   .     A
C213   H217    1.085   .     S
C213   C215    1.389   .     A
C214   H218    1.085   .     S
C214   C216    1.388   .     A
C215   C498    1.436   1_545 S
C216   C497    1.436   .     S
N223   Zn234   2.012   .     S
N224   Zn233   2.012   .     S
O225   Zn233   1.999   .     S
O226   Zn234   1.999   .     S
O227   Zn234   2.000   .     S
O228   Zn233   2.000   .     S
O229   Zn233   1.984   .     S
O230   Zn234   1.984   .     S
O231   Zn234   1.990   .     S
O232   Zn233   1.990   .     S
N235   H236    1.046   .     S
N235   C15     1.444   1_655 S
N235   H49     1.045   1_655 S
N238   H240    1.043   .     S
H239   N50     1.046   1_655 S
N241   H242    1.030   .     S
N241   C525    1.446   1_545 S
C243   H244    1.110   .     S
C243   H245    1.108   .     S
C243   N523    1.446   .     S
C243   H528    1.108   .     S
H246   C525    1.108   1_545 S
N247   H248    1.030   .     S
N247   C249    1.446   .     S
C249   H252    1.108   .     S
C249   H532    1.110   .     S
C249   H533    1.108   .     S
H250   C531    1.110   1_545 S
H251   C531    1.108   1_545 S
N253   C255    1.448   .     S
N253   H254    1.029   .     S
C255   H256    1.110   .     S
C255   H257    1.107   .     S
C255   H258    1.110   .     S
N259   C261    1.449   .     S
N259   H260    1.029   .     S
C261   H262    1.110   .     S
C261   H263    1.109   .     S
C261   H264    1.111   .     S
N265   H267    1.046   .     S
N265   H266    1.046   .     S
N268   H270    1.046   .     S
N268   H269    1.046   .     S
N271   H272    1.046   .     S
N271   H273    1.046   .     S
N274   H276    1.044   .     S
N274   H275    1.045   .     S
N277   H279    1.046   .     S
N277   H278    1.046   .     S
N280   H282    1.044   .     S
N280   H281    1.044   .     S
C283   C303    1.443   .     S
C283   O319    1.291   .     A
C283   O321    1.287   .     A
C284   C304    1.445   .     S
C284   O320    1.288   .     A
C284   O322    1.291   .     A
C285   H313    1.080   .     S
C285   C287    1.410   .     A
C285   C293    1.411   .     A
C286   H314    1.081   .     S
C286   C288    1.411   .     A
C286   C294    1.408   .     A
C287   N365    1.429   .     S
C287   N317    1.364   .     A
C288   N368    1.427   .     S
C288   N318    1.368   .     A
C289   N371    1.429   .     S
C289   C291    1.410   .     A
C289   N317    1.364   .     A
C290   N318    1.367   .     A
C290   N374    1.427   .     S
C290   C292    1.411   .     A
C291   H315    1.081   .     S
C291   C293    1.411   .     A
C292   H316    1.080   .     S
C292   C294    1.408   .     A
C293   C858    1.519   1_554 S
C294   C857    1.519   .     S
C295   O323    1.277   .     A
C295   C297    1.404   .     S
C295   O325    1.281   .     A
C296   O324    1.272   .     A
C296   C298    1.408   .     S
C296   O326    1.286   .     A
C297   C486    1.348   1_455 S
C297   N517    1.444   1_455 S
C298   C391    1.348   .     S
C298   N426    1.442   .     S
C299   C309    1.405   .     A
C299   N335    1.429   .     S
C299   C301    1.403   .     A
C300   C302    1.405   .     A
C300   C310    1.405   .     A
C300   N341    1.428   .     S
C301   C303    1.414   .     A
C301   N347    1.428   .     S
C302   N353    1.430   .     S
C302   C304    1.417   .     A
C303   C305    1.408   .     A
C304   C306    1.406   .     A
C305   N359    1.435   .     S
C305   C307    1.382   .     A
C306   N362    1.432   .     S
C306   C308    1.380   .     A
C307   H311    1.085   .     S
C307   C309    1.389   .     A
C308   H312    1.085   .     S
C308   C310    1.388   .     A
C310   C27     1.436   1_565 S
N317   Zn328   2.012   .     S
N318   Zn327   2.012   .     S
O319   Zn327   1.999   .     S
O320   Zn328   1.999   .     S
O321   Zn328   2.000   .     S
O322   Zn327   2.000   .     S
O323   Zn327   1.984   .     S
O324   Zn328   1.984   .     S
O325   Zn328   1.990   .     S
O326   Zn327   1.990   .     S
N329   H330    1.046   .     S
N329   C391    1.444   .     S
N329   H425    1.045   .     S
H331   N517    1.045   1_455 S
N332   H334    1.043   .     S
N332   C486    1.442   1_455 S
N332   H521    1.046   1_455 S
H333   N426    1.046   .     S
N335   H336    1.030   .     S
C337   H338    1.110   .     S
C337   H339    1.108   .     S
C337   N53     1.446   1_565 S
C337   H58     1.108   1_565 S
N341   H342    1.030   .     S
N341   C343    1.446   .     S
C343   H346    1.108   .     S
C343   H62     1.110   1_565 S
C343   H63     1.108   1_565 S
N347   C349    1.448   .     S
N347   H348    1.029   .     S
C349   H350    1.110   .     S
C349   H351    1.107   .     S
C349   H352    1.110   .     S
N353   C355    1.449   .     S
N353   H354    1.029   .     S
C355   H356    1.110   .     S
C355   H357    1.109   .     S
C355   H358    1.111   .     S
N359   H361    1.046   .     S
N359   H360    1.046   .     S
N362   H364    1.046   .     S
N362   H363    1.046   .     S
N365   H366    1.046   .     S
N365   H367    1.046   .     S
N368   H370    1.044   .     S
N368   H369    1.045   .     S
N371   H373    1.046   .     S
N371   H372    1.046   .     S
N374   H376    1.044   .     S
N374   H375    1.044   .     S
C377   C397    1.443   .     S
C377   O413    1.291   .     A
C377   O415    1.287   .     A
C378   C398    1.445   .     S
C378   O414    1.288   .     A
C378   O416    1.291   .     A
C379   H407    1.080   .     S
C379   C381    1.410   .     A
C379   C387    1.411   .     A
C380   H408    1.081   .     S
C380   C382    1.411   .     A
C380   C388    1.408   .     A
C381   N459    1.429   .     S
C381   N411    1.364   .     A
C382   N462    1.427   .     S
C382   N412    1.368   .     A
C383   N465    1.429   .     S
C383   C385    1.410   .     A
C383   N411    1.364   .     A
C384   N412    1.367   .     A
C384   N468    1.427   .     S
C384   C386    1.411   .     A
C385   H409    1.081   .     S
C385   C387    1.411   .     A
C386   H410    1.080   .     S
C386   C388    1.408   .     A
C387   C952    1.519   1_554 S
C388   C951    1.519   .     S
C389   O417    1.277   .     A
C389   C391    1.404   .     S
C389   O419    1.281   .     A
C390   O418    1.272   .     A
C390   C392    1.408   .     S
C390   O420    1.286   .     A
C392   C485    1.348   .     S
C392   N520    1.442   .     S
C393   C403    1.405   .     A
C393   N429    1.429   .     S
C393   C395    1.403   .     A
C394   C396    1.405   .     A
C394   C404    1.405   .     A
C394   N435    1.428   .     S
C395   C397    1.414   .     A
C395   N441    1.428   .     S
C396   N447    1.430   .     S
C396   C398    1.417   .     A
C397   C399    1.408   .     A
C398   C400    1.406   .     A
C399   N453    1.435   .     S
C399   C401    1.382   .     A
C400   N456    1.432   .     S
C400   C402    1.380   .     A
C401   H405    1.085   .     S
C401   C403    1.389   .     A
C402   H406    1.085   .     S
C402   C404    1.388   .     A
C404   C121    1.436   1_565 S
N411   Zn422   2.012   .     S
N412   Zn421   2.012   .     S
O413   Zn421   1.999   .     S
O414   Zn422   1.999   .     S
O415   Zn422   2.000   .     S
O416   Zn421   2.000   .     S
O417   Zn421   1.984   .     S
O418   Zn422   1.984   .     S
O419   Zn422   1.990   .     S
O420   Zn421   1.990   .     S
N423   H424    1.046   .     S
N423   C485    1.444   .     S
N423   H519    1.045   .     S
N426   H428    1.043   .     S
H427   N520    1.046   .     S
N429   H430    1.030   .     S
C431   H432    1.110   .     S
C431   H433    1.108   .     S
C431   N147    1.446   1_565 S
C431   H152    1.108   1_565 S
N435   H436    1.030   .     S
N435   C437    1.446   .     S
C437   H440    1.108   .     S
C437   H156    1.110   1_565 S
C437   H157    1.108   1_565 S
N441   C443    1.448   .     S
N441   H442    1.029   .     S
C443   H444    1.110   .     S
C443   H445    1.107   .     S
C443   H446    1.110   .     S
N447   C449    1.449   .     S
N447   H448    1.029   .     S
C449   H450    1.110   .     S
C449   H451    1.109   .     S
C449   H452    1.111   .     S
N453   H455    1.046   .     S
N453   H454    1.046   .     S
N456   H458    1.046   .     S
N456   H457    1.046   .     S
N459   H460    1.046   .     S
N459   H461    1.046   .     S
N462   H464    1.044   .     S
N462   H463    1.045   .     S
N465   H467    1.046   .     S
N465   H466    1.046   .     S
N468   H470    1.044   .     S
N468   H469    1.044   .     S
C471   C491    1.443   .     S
C471   O507    1.291   .     A
C471   O509    1.287   .     A
C472   C492    1.445   .     S
C472   O508    1.288   .     A
C472   O510    1.291   .     A
C473   H501    1.080   .     S
C473   C475    1.410   .     A
C473   C481    1.411   .     A
C474   H502    1.081   .     S
C474   C476    1.411   .     A
C474   C482    1.408   .     A
C475   N553    1.429   .     S
C475   N505    1.364   .     A
C476   N556    1.427   .     S
C476   N506    1.368   .     A
C477   N559    1.429   .     S
C477   C479    1.410   .     A
C477   N505    1.364   .     A
C478   N506    1.367   .     A
C478   N562    1.427   .     S
C478   C480    1.411   .     A
C479   H503    1.081   .     S
C479   C481    1.411   .     A
C480   H504    1.080   .     S
C480   C482    1.408   .     A
C481   C1046   1.519   1_554 S
C482   C1045   1.519   .     S
C483   O511    1.277   .     A
C483   C485    1.404   .     S
C483   O513    1.281   .     A
C484   O512    1.272   .     A
C484   C486    1.408   .     S
C484   O514    1.286   .     A
C486   C297    1.348   1_655 S
C486   N332    1.442   1_655 S
C487   C497    1.405   .     A
C487   N523    1.429   .     S
C487   C489    1.403   .     A
C488   C490    1.405   .     A
C488   C498    1.405   .     A
C488   N529    1.428   .     S
C489   C491    1.414   .     A
C489   N535    1.428   .     S
C490   N541    1.430   .     S
C490   C492    1.417   .     A
C491   C493    1.408   .     A
C492   C494    1.406   .     A
C493   N547    1.435   .     S
C493   C495    1.382   .     A
C494   N550    1.432   .     S
C494   C496    1.380   .     A
C495   H499    1.085   .     S
C495   C497    1.389   .     A
C496   H500    1.085   .     S
C496   C498    1.388   .     A
C498   C215    1.436   1_565 S
N505   Zn516   2.012   .     S
N506   Zn515   2.012   .     S
O507   Zn515   1.999   .     S
O508   Zn516   1.999   .     S
O509   Zn516   2.000   .     S
O510   Zn515   2.000   .     S
O511   Zn515   1.984   .     S
O512   Zn516   1.984   .     S
O513   Zn516   1.990   .     S
O514   Zn515   1.990   .     S
N517   H518    1.046   .     S
N517   C297    1.444   1_655 S
N517   H331    1.045   1_655 S
N520   H522    1.043   .     S
H521   N332    1.046   1_655 S
N523   H524    1.030   .     S
C525   H526    1.110   .     S
C525   H527    1.108   .     S
C525   N241    1.446   1_565 S
C525   H246    1.108   1_565 S
N529   H530    1.030   .     S
N529   C531    1.446   .     S
C531   H534    1.108   .     S
C531   H250    1.110   1_565 S
C531   H251    1.108   1_565 S
N535   C537    1.448   .     S
N535   H536    1.029   .     S
C537   H538    1.110   .     S
C537   H539    1.107   .     S
C537   H540    1.110   .     S
N541   C543    1.449   .     S
N541   H542    1.029   .     S
C543   H544    1.110   .     S
C543   H545    1.109   .     S
C543   H546    1.111   .     S
N547   H549    1.046   .     S
N547   H548    1.046   .     S
N550   H552    1.046   .     S
N550   H551    1.046   .     S
N553   H554    1.046   .     S
N553   H555    1.046   .     S
N556   H558    1.044   .     S
N556   H557    1.045   .     S
N559   H561    1.046   .     S
N559   H560    1.046   .     S
N562   H564    1.044   .     S
N562   H563    1.044   .     S
C565   C585    1.443   .     S
C565   O601    1.291   .     A
C565   O603    1.287   .     A
C566   C586    1.445   .     S
C566   O602    1.288   .     A
C566   O604    1.291   .     A
C567   H595    1.080   .     S
C567   C569    1.410   .     A
C567   C575    1.411   .     A
C568   H596    1.081   .     S
C568   C570    1.411   .     A
C568   C576    1.408   .     A
C569   N647    1.429   .     S
C569   N599    1.364   .     A
C570   N650    1.427   .     S
C570   N600    1.368   .     A
C571   N653    1.429   .     S
C571   C573    1.410   .     A
C571   N599    1.364   .     A
C572   N600    1.367   .     A
C572   N656    1.427   .     S
C572   C574    1.411   .     A
C573   H597    1.081   .     S
C573   C575    1.411   .     A
C574   H598    1.080   .     S
C574   C576    1.408   .     A
C576   C11     1.519   1_556 S
C577   O605    1.277   .     A
C577   C579    1.404   .     S
C577   O607    1.281   .     A
C578   O606    1.272   .     A
C578   C580    1.408   .     S
C578   O608    1.286   .     A
C579   C768    1.348   1_455 S
C579   N799    1.444   1_455 S
C580   C673    1.348   .     S
C580   N708    1.442   .     S
C581   C591    1.405   .     A
C581   N617    1.429   .     S
C581   C583    1.403   .     A
C582   C584    1.405   .     A
C582   C592    1.405   .     A
C582   N623    1.428   .     S
C583   C585    1.414   .     A
C583   N629    1.428   .     S
C584   N635    1.430   .     S
C584   C586    1.417   .     A
C585   C587    1.408   .     A
C586   C588    1.406   .     A
C587   N641    1.435   .     S
C587   C589    1.382   .     A
C588   N644    1.432   .     S
C588   C590    1.380   .     A
C589   H593    1.085   .     S
C589   C591    1.389   .     A
C590   H594    1.085   .     S
C590   C592    1.388   .     A
C591   C874    1.436   1_545 S
C592   C873    1.436   .     S
N599   Zn610   2.012   .     S
N600   Zn609   2.012   .     S
O601   Zn609   1.999   .     S
O602   Zn610   1.999   .     S
O603   Zn610   2.000   .     S
O604   Zn609   2.000   .     S
O605   Zn609   1.984   .     S
O606   Zn610   1.984   .     S
O607   Zn610   1.990   .     S
O608   Zn609   1.990   .     S
N611   H612    1.046   .     S
N611   C673    1.444   .     S
N611   H707    1.045   .     S
H613   N799    1.045   1_455 S
N614   H616    1.043   .     S
N614   C768    1.442   1_455 S
N614   H803    1.046   1_455 S
H615   N708    1.046   .     S
N617   H618    1.030   .     S
N617   C901    1.446   1_545 S
C619   H620    1.110   .     S
C619   H621    1.108   .     S
C619   N899    1.446   .     S
C619   H904    1.108   .     S
H622   C901    1.108   1_545 S
N623   H624    1.030   .     S
N623   C625    1.446   .     S
C625   H628    1.108   .     S
C625   H908    1.110   .     S
C625   H909    1.108   .     S
H626   C907    1.110   1_545 S
H627   C907    1.108   1_545 S
N629   C631    1.448   .     S
N629   H630    1.029   .     S
C631   H632    1.110   .     S
C631   H633    1.107   .     S
C631   H634    1.110   .     S
N635   C637    1.449   .     S
N635   H636    1.029   .     S
C637   H638    1.110   .     S
C637   H639    1.109   .     S
C637   H640    1.111   .     S
N641   H643    1.046   .     S
N641   H642    1.046   .     S
N644   H646    1.046   .     S
N644   H645    1.046   .     S
N647   H648    1.046   .     S
N647   H649    1.046   .     S
N650   H652    1.044   .     S
N650   H651    1.045   .     S
N653   H655    1.046   .     S
N653   H654    1.046   .     S
N656   H658    1.044   .     S
N656   H657    1.044   .     S
C659   C679    1.443   .     S
C659   O695    1.291   .     A
C659   O697    1.287   .     A
C660   C680    1.445   .     S
C660   O696    1.288   .     A
C660   O698    1.291   .     A
C661   H689    1.080   .     S
C661   C663    1.410   .     A
C661   C669    1.411   .     A
C662   H690    1.081   .     S
C662   C664    1.411   .     A
C662   C670    1.408   .     A
C663   N741    1.429   .     S
C663   N693    1.364   .     A
C664   N744    1.427   .     S
C664   N694    1.368   .     A
C665   N747    1.429   .     S
C665   C667    1.410   .     A
C665   N693    1.364   .     A
C666   N694    1.367   .     A
C666   N750    1.427   .     S
C666   C668    1.411   .     A
C667   H691    1.081   .     S
C667   C669    1.411   .     A
C668   H692    1.080   .     S
C668   C670    1.408   .     A
C670   C105    1.519   1_556 S
C671   O699    1.277   .     A
C671   C673    1.404   .     S
C671   O701    1.281   .     A
C672   O700    1.272   .     A
C672   C674    1.408   .     S
C672   O702    1.286   .     A
C674   C767    1.348   .     S
C674   N802    1.442   .     S
C675   C685    1.405   .     A
C675   N711    1.429   .     S
C675   C677    1.403   .     A
C676   C678    1.405   .     A
C676   C686    1.405   .     A
C676   N717    1.428   .     S
C677   C679    1.414   .     A
C677   N723    1.428   .     S
C678   N729    1.430   .     S
C678   C680    1.417   .     A
C679   C681    1.408   .     A
C680   C682    1.406   .     A
C681   N735    1.435   .     S
C681   C683    1.382   .     A
C682   N738    1.432   .     S
C682   C684    1.380   .     A
C683   H687    1.085   .     S
C683   C685    1.389   .     A
C684   H688    1.085   .     S
C684   C686    1.388   .     A
C685   C968    1.436   1_545 S
C686   C967    1.436   .     S
N693   Zn704   2.012   .     S
N694   Zn703   2.012   .     S
O695   Zn703   1.999   .     S
O696   Zn704   1.999   .     S
O697   Zn704   2.000   .     S
O698   Zn703   2.000   .     S
O699   Zn703   1.984   .     S
O700   Zn704   1.984   .     S
O701   Zn704   1.990   .     S
O702   Zn703   1.990   .     S
N705   H706    1.046   .     S
N705   C767    1.444   .     S
N705   H801    1.045   .     S
N708   H710    1.043   .     S
H709   N802    1.046   .     S
N711   H712    1.030   .     S
N711   C995    1.446   1_545 S
C713   H714    1.110   .     S
C713   H715    1.108   .     S
C713   N993    1.446   .     S
C713   H998    1.108   .     S
H716   C995    1.108   1_545 S
N717   H718    1.030   .     S
N717   C719    1.446   .     S
C719   H722    1.108   .     S
C719   H1002   1.110   .     S
C719   H1003   1.108   .     S
H720   C1001   1.110   1_545 S
H721   C1001   1.108   1_545 S
N723   C725    1.448   .     S
N723   H724    1.029   .     S
C725   H726    1.110   .     S
C725   H727    1.107   .     S
C725   H728    1.110   .     S
N729   C731    1.449   .     S
N729   H730    1.029   .     S
C731   H732    1.110   .     S
C731   H733    1.109   .     S
C731   H734    1.111   .     S
N735   H737    1.046   .     S
N735   H736    1.046   .     S
N738   H740    1.046   .     S
N738   H739    1.046   .     S
N741   H742    1.046   .     S
N741   H743    1.046   .     S
N744   H746    1.044   .     S
N744   H745    1.045   .     S
N747   H749    1.046   .     S
N747   H748    1.046   .     S
N750   H752    1.044   .     S
N750   H751    1.044   .     S
C753   C773    1.443   .     S
C753   O789    1.291   .     A
C753   O791    1.287   .     A
C754   C774    1.445   .     S
C754   O790    1.288   .     A
C754   O792    1.291   .     A
C755   H783    1.080   .     S
C755   C757    1.410   .     A
C755   C763    1.411   .     A
C756   H784    1.081   .     S
C756   C758    1.411   .     A
C756   C764    1.408   .     A
C757   N835    1.429   .     S
C757   N787    1.364   .     A
C758   N838    1.427   .     S
C758   N788    1.368   .     A
C759   N841    1.429   .     S
C759   C761    1.410   .     A
C759   N787    1.364   .     A
C760   N788    1.367   .     A
C760   N844    1.427   .     S
C760   C762    1.411   .     A
C761   H785    1.081   .     S
C761   C763    1.411   .     A
C762   H786    1.080   .     S
C762   C764    1.408   .     A
C764   C199    1.519   1_556 S
C765   O793    1.277   .     A
C765   C767    1.404   .     S
C765   O795    1.281   .     A
C766   O794    1.272   .     A
C766   C768    1.408   .     S
C766   O796    1.286   .     A
C768   C579    1.348   1_655 S
C768   N614    1.442   1_655 S
C769   C779    1.405   .     A
C769   N805    1.429   .     S
C769   C771    1.403   .     A
C770   C772    1.405   .     A
C770   C780    1.405   .     A
C770   N811    1.428   .     S
C771   C773    1.414   .     A
C771   N817    1.428   .     S
C772   N823    1.430   .     S
C772   C774    1.417   .     A
C773   C775    1.408   .     A
C774   C776    1.406   .     A
C775   N829    1.435   .     S
C775   C777    1.382   .     A
C776   N832    1.432   .     S
C776   C778    1.380   .     A
C777   H781    1.085   .     S
C777   C779    1.389   .     A
C778   H782    1.085   .     S
C778   C780    1.388   .     A
C779   C1062   1.436   1_545 S
C780   C1061   1.436   .     S
N787   Zn798   2.012   .     S
N788   Zn797   2.012   .     S
O789   Zn797   1.999   .     S
O790   Zn798   1.999   .     S
O791   Zn798   2.000   .     S
O792   Zn797   2.000   .     S
O793   Zn797   1.984   .     S
O794   Zn798   1.984   .     S
O795   Zn798   1.990   .     S
O796   Zn797   1.990   .     S
N799   H800    1.046   .     S
N799   C579    1.444   1_655 S
N799   H613    1.045   1_655 S
N802   H804    1.043   .     S
H803   N614    1.046   1_655 S
N805   H806    1.030   .     S
N805   C1089   1.446   1_545 S
C807   H808    1.110   .     S
C807   H809    1.108   .     S
C807   N1087   1.446   .     S
C807   H1092   1.108   .     S
H810   C1089   1.108   1_545 S
N811   H812    1.030   .     S
N811   C813    1.446   .     S
C813   H816    1.108   .     S
C813   H1096   1.110   .     S
C813   H1097   1.108   .     S
H814   C1095   1.110   1_545 S
H815   C1095   1.108   1_545 S
N817   C819    1.448   .     S
N817   H818    1.029   .     S
C819   H820    1.110   .     S
C819   H821    1.107   .     S
C819   H822    1.110   .     S
N823   C825    1.449   .     S
N823   H824    1.029   .     S
C825   H826    1.110   .     S
C825   H827    1.109   .     S
C825   H828    1.111   .     S
N829   H831    1.046   .     S
N829   H830    1.046   .     S
N832   H834    1.046   .     S
N832   H833    1.046   .     S
N835   H836    1.046   .     S
N835   H837    1.046   .     S
N838   H840    1.044   .     S
N838   H839    1.045   .     S
N841   H843    1.046   .     S
N841   H842    1.046   .     S
N844   H846    1.044   .     S
N844   H845    1.044   .     S
C847   C867    1.443   .     S
C847   O883    1.291   .     A
C847   O885    1.287   .     A
C848   C868    1.445   .     S
C848   O884    1.288   .     A
C848   O886    1.291   .     A
C849   H877    1.080   .     S
C849   C851    1.410   .     A
C849   C857    1.411   .     A
C850   H878    1.081   .     S
C850   C852    1.411   .     A
C850   C858    1.408   .     A
C851   N929    1.429   .     S
C851   N881    1.364   .     A
C852   N932    1.427   .     S
C852   N882    1.368   .     A
C853   N935    1.429   .     S
C853   C855    1.410   .     A
C853   N881    1.364   .     A
C854   N882    1.367   .     A
C854   N938    1.427   .     S
C854   C856    1.411   .     A
C855   H879    1.081   .     S
C855   C857    1.411   .     A
C856   H880    1.080   .     S
C856   C858    1.408   .     A
C858   C293    1.519   1_556 S
C859   O887    1.277   .     A
C859   C861    1.404   .     S
C859   O889    1.281   .     A
C860   O888    1.272   .     A
C860   C862    1.408   .     S
C860   O890    1.286   .     A
C861   C1050   1.348   1_455 S
C861   N1081   1.444   1_455 S
C862   C955    1.348   .     S
C862   N990    1.442   .     S
C863   C873    1.405   .     A
C863   N899    1.429   .     S
C863   C865    1.403   .     A
C864   C866    1.405   .     A
C864   C874    1.405   .     A
C864   N905    1.428   .     S
C865   C867    1.414   .     A
C865   N911    1.428   .     S
C866   N917    1.430   .     S
C866   C868    1.417   .     A
C867   C869    1.408   .     A
C868   C870    1.406   .     A
C869   N923    1.435   .     S
C869   C871    1.382   .     A
C870   N926    1.432   .     S
C870   C872    1.380   .     A
C871   H875    1.085   .     S
C871   C873    1.389   .     A
C872   H876    1.085   .     S
C872   C874    1.388   .     A
C874   C591    1.436   1_565 S
N881   Zn892   2.012   .     S
N882   Zn891   2.012   .     S
O883   Zn891   1.999   .     S
O884   Zn892   1.999   .     S
O885   Zn892   2.000   .     S
O886   Zn891   2.000   .     S
O887   Zn891   1.984   .     S
O888   Zn892   1.984   .     S
O889   Zn892   1.990   .     S
O890   Zn891   1.990   .     S
N893   H894    1.046   .     S
N893   C955    1.444   .     S
N893   H989    1.045   .     S
H895   N1081   1.045   1_455 S
N896   H898    1.043   .     S
N896   C1050   1.442   1_455 S
N896   H1085   1.046   1_455 S
H897   N990    1.046   .     S
N899   H900    1.030   .     S
C901   H902    1.110   .     S
C901   H903    1.108   .     S
C901   N617    1.446   1_565 S
C901   H622    1.108   1_565 S
N905   H906    1.030   .     S
N905   C907    1.446   .     S
C907   H910    1.108   .     S
C907   H626    1.110   1_565 S
C907   H627    1.108   1_565 S
N911   C913    1.448   .     S
N911   H912    1.029   .     S
C913   H914    1.110   .     S
C913   H915    1.107   .     S
C913   H916    1.110   .     S
N917   C919    1.449   .     S
N917   H918    1.029   .     S
C919   H920    1.110   .     S
C919   H921    1.109   .     S
C919   H922    1.111   .     S
N923   H925    1.046   .     S
N923   H924    1.046   .     S
N926   H928    1.046   .     S
N926   H927    1.046   .     S
N929   H930    1.046   .     S
N929   H931    1.046   .     S
N932   H934    1.044   .     S
N932   H933    1.045   .     S
N935   H937    1.046   .     S
N935   H936    1.046   .     S
N938   H940    1.044   .     S
N938   H939    1.044   .     S
C941   C961    1.443   .     S
C941   O977    1.291   .     A
C941   O979    1.287   .     A
C942   C962    1.445   .     S
C942   O978    1.288   .     A
C942   O980    1.291   .     A
C943   H971    1.080   .     S
C943   C945    1.410   .     A
C943   C951    1.411   .     A
C944   H972    1.081   .     S
C944   C946    1.411   .     A
C944   C952    1.408   .     A
C945   N1023   1.429   .     S
C945   N975    1.364   .     A
C946   N1026   1.427   .     S
C946   N976    1.368   .     A
C947   N1029   1.429   .     S
C947   C949    1.410   .     A
C947   N975    1.364   .     A
C948   N976    1.367   .     A
C948   N1032   1.427   .     S
C948   C950    1.411   .     A
C949   H973    1.081   .     S
C949   C951    1.411   .     A
C950   H974    1.080   .     S
C950   C952    1.408   .     A
C952   C387    1.519   1_556 S
C953   O981    1.277   .     A
C953   C955    1.404   .     S
C953   O983    1.281   .     A
C954   O982    1.272   .     A
C954   C956    1.408   .     S
C954   O984    1.286   .     A
C956   C1049   1.348   .     S
C956   N1084   1.442   .     S
C957   C967    1.405   .     A
C957   N993    1.429   .     S
C957   C959    1.403   .     A
C958   C960    1.405   .     A
C958   C968    1.405   .     A
C958   N999    1.428   .     S
C959   C961    1.414   .     A
C959   N1005   1.428   .     S
C960   N1011   1.430   .     S
C960   C962    1.417   .     A
C961   C963    1.408   .     A
C962   C964    1.406   .     A
C963   N1017   1.435   .     S
C963   C965    1.382   .     A
C964   N1020   1.432   .     S
C964   C966    1.380   .     A
C965   H969    1.085   .     S
C965   C967    1.389   .     A
C966   H970    1.085   .     S
C966   C968    1.388   .     A
C968   C685    1.436   1_565 S
N975   Zn986   2.012   .     S
N976   Zn985   2.012   .     S
O977   Zn985   1.999   .     S
O978   Zn986   1.999   .     S
O979   Zn986   2.000   .     S
O980   Zn985   2.000   .     S
O981   Zn985   1.984   .     S
O982   Zn986   1.984   .     S
O983   Zn986   1.990   .     S
O984   Zn985   1.990   .     S
N987   H988    1.046   .     S
N987   C1049   1.444   .     S
N987   H1083   1.045   .     S
N990   H992    1.043   .     S
H991   N1084   1.046   .     S
N993   H994    1.030   .     S
C995   H996    1.110   .     S
C995   H997    1.108   .     S
C995   N711    1.446   1_565 S
C995   H716    1.108   1_565 S
N999   H1000   1.030   .     S
N999   C1001   1.446   .     S
C1001  H1004   1.108   .     S
C1001  H720    1.110   1_565 S
C1001  H721    1.108   1_565 S
N1005  C1007   1.448   .     S
N1005  H1006   1.029   .     S
C1007  H1008   1.110   .     S
C1007  H1009   1.107   .     S
C1007  H1010   1.110   .     S
N1011  C1013   1.449   .     S
N1011  H1012   1.029   .     S
C1013  H1014   1.110   .     S
C1013  H1015   1.109   .     S
C1013  H1016   1.111   .     S
N1017  H1019   1.046   .     S
N1017  H1018   1.046   .     S
N1020  H1022   1.046   .     S
N1020  H1021   1.046   .     S
N1023  H1024   1.046   .     S
N1023  H1025   1.046   .     S
N1026  H1028   1.044   .     S
N1026  H1027   1.045   .     S
N1029  H1031   1.046   .     S
N1029  H1030   1.046   .     S
N1032  H1034   1.044   .     S
N1032  H1033   1.044   .     S
C1035  C1055   1.443   .     S
C1035  O1071   1.291   .     A
C1035  O1073   1.287   .     A
C1036  C1056   1.445   .     S
C1036  O1072   1.288   .     A
C1036  O1074   1.291   .     A
C1037  H1065   1.080   .     S
C1037  C1039   1.410   .     A
C1037  C1045   1.411   .     A
C1038  H1066   1.081   .     S
C1038  C1040   1.411   .     A
C1038  C1046   1.408   .     A
C1039  N1117   1.429   .     S
C1039  N1069   1.364   .     A
C1040  N1120   1.427   .     S
C1040  N1070   1.368   .     A
C1041  N1123   1.429   .     S
C1041  C1043   1.410   .     A
C1041  N1069   1.364   .     A
C1042  N1070   1.367   .     A
C1042  N1126   1.427   .     S
C1042  C1044   1.411   .     A
C1043  H1067   1.081   .     S
C1043  C1045   1.411   .     A
C1044  H1068   1.080   .     S
C1044  C1046   1.408   .     A
C1046  C481    1.519   1_556 S
C1047  O1075   1.277   .     A
C1047  C1049   1.404   .     S
C1047  O1077   1.281   .     A
C1048  O1076   1.272   .     A
C1048  C1050   1.408   .     S
C1048  O1078   1.286   .     A
C1050  C861    1.348   1_655 S
C1050  N896    1.442   1_655 S
C1051  C1061   1.405   .     A
C1051  N1087   1.429   .     S
C1051  C1053   1.403   .     A
C1052  C1054   1.405   .     A
C1052  C1062   1.405   .     A
C1052  N1093   1.428   .     S
C1053  C1055   1.414   .     A
C1053  N1099   1.428   .     S
C1054  N1105   1.430   .     S
C1054  C1056   1.417   .     A
C1055  C1057   1.408   .     A
C1056  C1058   1.406   .     A
C1057  N1111   1.435   .     S
C1057  C1059   1.382   .     A
C1058  N1114   1.432   .     S
C1058  C1060   1.380   .     A
C1059  H1063   1.085   .     S
C1059  C1061   1.389   .     A
C1060  H1064   1.085   .     S
C1060  C1062   1.388   .     A
C1062  C779    1.436   1_565 S
N1069  Zn1080  2.012   .     S
N1070  Zn1079  2.012   .     S
O1071  Zn1079  1.999   .     S
O1072  Zn1080  1.999   .     S
O1073  Zn1080  2.000   .     S
O1074  Zn1079  2.000   .     S
O1075  Zn1079  1.984   .     S
O1076  Zn1080  1.984   .     S
O1077  Zn1080  1.990   .     S
O1078  Zn1079  1.990   .     S
N1081  H1082   1.046   .     S
N1081  C861    1.444   1_655 S
N1081  H895    1.045   1_655 S
N1084  H1086   1.043   .     S
H1085  N896    1.046   1_655 S
N1087  H1088   1.030   .     S
C1089  H1090   1.110   .     S
C1089  H1091   1.108   .     S
C1089  N805    1.446   1_565 S
C1089  H810    1.108   1_565 S
N1093  H1094   1.030   .     S
N1093  C1095   1.446   .     S
C1095  H1098   1.108   .     S
C1095  H814    1.110   1_565 S
C1095  H815    1.108   1_565 S
N1099  C1101   1.448   .     S
N1099  H1100   1.029   .     S
C1101  H1102   1.110   .     S
C1101  H1103   1.107   .     S
C1101  H1104   1.110   .     S
N1105  C1107   1.449   .     S
N1105  H1106   1.029   .     S
C1107  H1108   1.110   .     S
C1107  H1109   1.109   .     S
C1107  H1110   1.111   .     S
N1111  H1113   1.046   .     S
N1111  H1112   1.046   .     S
N1114  H1116   1.046   .     S
N1114  H1115   1.046   .     S
N1117  H1118   1.046   .     S
N1117  H1119   1.046   .     S
N1120  H1122   1.044   .     S
N1120  H1121   1.045   .     S
N1123  H1125   1.046   .     S
N1123  H1124   1.046   .     S
N1126  H1128   1.044   .     S
N1126  H1127   1.044   .     S
