data_str_m3_o2_o5_pcu_sym.48
_audit_creation_date              2020-01-03
_audit_creation_method            'Materials Studio'
_symmetry_space_group_name_H-M    'P1'
_symmetry_Int_Tables_number       1
_symmetry_cell_setting            triclinic
loop_
_symmetry_equiv_pos_as_xyz
  x,y,z
_cell_length_a                    30.0202
_cell_length_b                    28.5660
_cell_length_c                    26.7090
_cell_angle_alpha                 90.2667
_cell_angle_beta                  91.2226
_cell_angle_gamma                 89.7043
loop_
_atom_site_label
_atom_site_type_symbol
_atom_site_fract_x
_atom_site_fract_y
_atom_site_fract_z
_atom_site_U_iso_or_equiv
_atom_site_adp_type
_atom_site_occupancy
C1     C     0.16396   0.25008   0.16690   0.00000  Uiso   1.00
C2     C     0.21523   0.44684   0.14137   0.00000  Uiso   1.00
C3     C     0.24993   0.24993   0.07294   0.00000  Uiso   1.00
C4     C     0.25007   0.25007   0.26040   0.00000  Uiso   1.00
C5     C     0.25255   0.02681   0.16360   0.00000  Uiso   1.00
C6     C     0.24717   0.47323   0.16933   0.00000  Uiso   1.00
C7     C     0.24997   0.24990   0.02181   0.00000  Uiso   1.00
C8     C     0.25003   0.25010   0.31152   0.00000  Uiso   1.00
C9     C     0.04614   0.28954   0.15397   0.00000  Uiso   1.00
C10    C     0.45306   0.21003   0.15265   0.00000  Uiso   1.00
C11    C     0.45281   0.28850   0.18851   0.00000  Uiso   1.00
C12    C     0.33603   0.24989   0.16696   0.00000  Uiso   1.00
C13    C     0.04807   0.21024   0.18681   0.00000  Uiso   1.00
C14    C     0.09210   0.28983   0.15306   0.00000  Uiso   1.00
C15    C     0.40704   0.21007   0.15163   0.00000  Uiso   1.00
C16    C     0.40683   0.28881   0.18681   0.00000  Uiso   1.00
C17    C     0.09401   0.21028   0.18522   0.00000  Uiso   1.00
C18    C     0.11605   0.25009   0.16831   0.00000  Uiso   1.00
C19    C     0.38394   0.24962   0.16834   0.00000  Uiso   1.00
C20    C     0.02410   0.24976   0.17088   0.00000  Uiso   1.00
C21    C     0.47596   0.24928   0.17104   0.00000  Uiso   1.00
C22    C     0.22501   0.10231   0.13167   0.00000  Uiso   1.00
C23    C     0.27424   0.39787   0.20222   0.00000  Uiso   1.00
C24    C     0.28073   0.10221   0.19525   0.00000  Uiso   1.00
C25    C     0.21989   0.39770   0.13717   0.00000  Uiso   1.00
C26    C     0.22913   0.05321   0.12650   0.00000  Uiso   1.00
C27    C     0.27009   0.44702   0.20696   0.00000  Uiso   1.00
C28    C     0.28503   0.05302   0.19100   0.00000  Uiso   1.00
Cl29   Cl    0.18877   0.13274   0.09052   0.00000  Uiso   1.00
Cl30   Cl    0.30966   0.36767   0.24441   0.00000  Uiso   1.00
Cl31   Cl    0.31715   0.13266   0.23616   0.00000  Uiso   1.00
Cl32   Cl    0.18473   0.36723   0.09497   0.00000  Uiso   1.00
Cl33   Cl    0.22097   0.03007   0.06535   0.00000  Uiso   1.00
Cl34   Cl    0.27821   0.47082   0.26785   0.00000  Uiso   1.00
Cl35   Cl    0.33868   0.02906   0.20329   0.00000  Uiso   1.00
Cl36   Cl    0.16138   0.47016   0.12881   0.00000  Uiso   1.00
H37    H     0.02783   0.32003   0.14084   0.00000  Uiso   1.00
H38    H     0.47072   0.17980   0.13836   0.00000  Uiso   1.00
H39    H     0.47028   0.31873   0.20350   0.00000  Uiso   1.00
H40    H     0.03129   0.17956   0.20063   0.00000  Uiso   1.00
H41    H     0.10873   0.32076   0.13977   0.00000  Uiso   1.00
H42    H     0.38960   0.17965   0.13704   0.00000  Uiso   1.00
H43    H     0.38928   0.31938   0.20037   0.00000  Uiso   1.00
H44    H     0.11223   0.17949   0.19770   0.00000  Uiso   1.00
N45    N     0.25000   0.12623   0.16667   0.00000  Uiso   1.00
N46    N     0.25000   0.37376   0.16667   0.00000  Uiso   1.00
O47    O     0.18453   0.28974   0.16667   0.00000  Uiso   1.00
O48    O     0.31547   0.21026   0.16666   0.00000  Uiso   1.00
O49    O     0.31547   0.28974   0.16666   0.00000  Uiso   1.00
O50    O     0.18453   0.21026   0.16667   0.00000  Uiso   1.00
O51    O     0.25000   0.28973   0.09511   0.00000  Uiso   1.00
O52    O     0.25000   0.21027   0.23822   0.00000  Uiso   1.00
O53    O     0.25000   0.28973   0.23822   0.00000  Uiso   1.00
O54    O     0.25000   0.21027   0.09511   0.00000  Uiso   1.00
Zn55   Zn    0.25000   0.30307   0.16667   0.00000  Uiso   1.00
Zn56   Zn    0.25000   0.19693   0.16667   0.00000  Uiso   1.00
C57    C     0.66396   0.25008   0.16690   0.00000  Uiso   1.00
C58    C     0.71523   0.44684   0.14137   0.00000  Uiso   1.00
C59    C     0.74993   0.24993   0.07294   0.00000  Uiso   1.00
C60    C     0.75007   0.25007   0.26040   0.00000  Uiso   1.00
C61    C     0.75255   0.02681   0.16360   0.00000  Uiso   1.00
C62    C     0.74717   0.47323   0.16933   0.00000  Uiso   1.00
C63    C     0.74997   0.24990   0.02181   0.00000  Uiso   1.00
C64    C     0.75003   0.25010   0.31152   0.00000  Uiso   1.00
C65    C     0.54614   0.28954   0.15397   0.00000  Uiso   1.00
C66    C     0.95306   0.21003   0.15265   0.00000  Uiso   1.00
C67    C     0.95281   0.28850   0.18851   0.00000  Uiso   1.00
C68    C     0.83603   0.24989   0.16696   0.00000  Uiso   1.00
C69    C     0.54807   0.21024   0.18681   0.00000  Uiso   1.00
C70    C     0.59210   0.28983   0.15306   0.00000  Uiso   1.00
C71    C     0.90704   0.21007   0.15163   0.00000  Uiso   1.00
C72    C     0.90683   0.28881   0.18681   0.00000  Uiso   1.00
C73    C     0.59401   0.21028   0.18522   0.00000  Uiso   1.00
C74    C     0.61605   0.25009   0.16831   0.00000  Uiso   1.00
C75    C     0.88394   0.24962   0.16834   0.00000  Uiso   1.00
C76    C     0.52410   0.24976   0.17088   0.00000  Uiso   1.00
C77    C     0.97596   0.24928   0.17104   0.00000  Uiso   1.00
C78    C     0.72501   0.10231   0.13167   0.00000  Uiso   1.00
C79    C     0.77424   0.39787   0.20222   0.00000  Uiso   1.00
C80    C     0.78073   0.10221   0.19525   0.00000  Uiso   1.00
C81    C     0.71989   0.39770   0.13717   0.00000  Uiso   1.00
C82    C     0.72913   0.05321   0.12650   0.00000  Uiso   1.00
C83    C     0.77009   0.44702   0.20696   0.00000  Uiso   1.00
C84    C     0.78503   0.05302   0.19100   0.00000  Uiso   1.00
Cl85   Cl    0.68877   0.13274   0.09052   0.00000  Uiso   1.00
Cl86   Cl    0.80966   0.36767   0.24441   0.00000  Uiso   1.00
Cl87   Cl    0.81715   0.13266   0.23616   0.00000  Uiso   1.00
Cl88   Cl    0.68473   0.36723   0.09497   0.00000  Uiso   1.00
Cl89   Cl    0.72097   0.03007   0.06535   0.00000  Uiso   1.00
Cl90   Cl    0.77821   0.47082   0.26785   0.00000  Uiso   1.00
Cl91   Cl    0.83868   0.02906   0.20329   0.00000  Uiso   1.00
Cl92   Cl    0.66138   0.47016   0.12881   0.00000  Uiso   1.00
H93    H     0.52783   0.32003   0.14084   0.00000  Uiso   1.00
H94    H     0.97072   0.17980   0.13836   0.00000  Uiso   1.00
H95    H     0.97028   0.31873   0.20350   0.00000  Uiso   1.00
H96    H     0.53129   0.17956   0.20063   0.00000  Uiso   1.00
H97    H     0.60873   0.32076   0.13977   0.00000  Uiso   1.00
H98    H     0.88960   0.17965   0.13704   0.00000  Uiso   1.00
H99    H     0.88928   0.31938   0.20037   0.00000  Uiso   1.00
H100   H     0.61223   0.17949   0.19770   0.00000  Uiso   1.00
N101   N     0.75000   0.12623   0.16667   0.00000  Uiso   1.00
N102   N     0.75000   0.37376   0.16667   0.00000  Uiso   1.00
O103   O     0.68453   0.28974   0.16667   0.00000  Uiso   1.00
O104   O     0.81547   0.21026   0.16666   0.00000  Uiso   1.00
O105   O     0.81547   0.28974   0.16666   0.00000  Uiso   1.00
O106   O     0.68453   0.21026   0.16667   0.00000  Uiso   1.00
O107   O     0.75000   0.28973   0.09511   0.00000  Uiso   1.00
O108   O     0.75000   0.21027   0.23822   0.00000  Uiso   1.00
O109   O     0.75000   0.28973   0.23822   0.00000  Uiso   1.00
O110   O     0.75000   0.21027   0.09511   0.00000  Uiso   1.00
Zn111  Zn    0.75000   0.30307   0.16667   0.00000  Uiso   1.00
Zn112  Zn    0.75000   0.19693   0.16667   0.00000  Uiso   1.00
C113   C     0.16396   0.75008   0.16690   0.00000  Uiso   1.00
C114   C     0.21523   0.94684   0.14137   0.00000  Uiso   1.00
C115   C     0.24993   0.74993   0.07294   0.00000  Uiso   1.00
C116   C     0.25007   0.75007   0.26040   0.00000  Uiso   1.00
C117   C     0.25255   0.52681   0.16360   0.00000  Uiso   1.00
C118   C     0.24717   0.97323   0.16933   0.00000  Uiso   1.00
C119   C     0.24997   0.74990   0.02181   0.00000  Uiso   1.00
C120   C     0.25003   0.75010   0.31152   0.00000  Uiso   1.00
C121   C     0.04614   0.78954   0.15397   0.00000  Uiso   1.00
C122   C     0.45306   0.71003   0.15265   0.00000  Uiso   1.00
C123   C     0.45281   0.78850   0.18851   0.00000  Uiso   1.00
C124   C     0.33603   0.74989   0.16696   0.00000  Uiso   1.00
C125   C     0.04807   0.71024   0.18681   0.00000  Uiso   1.00
C126   C     0.09210   0.78983   0.15306   0.00000  Uiso   1.00
C127   C     0.40704   0.71007   0.15163   0.00000  Uiso   1.00
C128   C     0.40683   0.78881   0.18681   0.00000  Uiso   1.00
C129   C     0.09401   0.71028   0.18522   0.00000  Uiso   1.00
C130   C     0.11605   0.75009   0.16831   0.00000  Uiso   1.00
C131   C     0.38394   0.74962   0.16834   0.00000  Uiso   1.00
C132   C     0.02410   0.74976   0.17088   0.00000  Uiso   1.00
C133   C     0.47596   0.74928   0.17104   0.00000  Uiso   1.00
C134   C     0.22501   0.60231   0.13167   0.00000  Uiso   1.00
C135   C     0.27424   0.89787   0.20222   0.00000  Uiso   1.00
C136   C     0.28073   0.60221   0.19525   0.00000  Uiso   1.00
C137   C     0.21989   0.89770   0.13717   0.00000  Uiso   1.00
C138   C     0.22913   0.55321   0.12650   0.00000  Uiso   1.00
C139   C     0.27009   0.94702   0.20696   0.00000  Uiso   1.00
C140   C     0.28503   0.55302   0.19100   0.00000  Uiso   1.00
Cl141  Cl    0.18877   0.63274   0.09052   0.00000  Uiso   1.00
Cl142  Cl    0.30966   0.86767   0.24441   0.00000  Uiso   1.00
Cl143  Cl    0.31715   0.63266   0.23616   0.00000  Uiso   1.00
Cl144  Cl    0.18473   0.86723   0.09497   0.00000  Uiso   1.00
Cl145  Cl    0.22097   0.53007   0.06535   0.00000  Uiso   1.00
Cl146  Cl    0.27821   0.97082   0.26785   0.00000  Uiso   1.00
Cl147  Cl    0.33868   0.52906   0.20329   0.00000  Uiso   1.00
Cl148  Cl    0.16138   0.97016   0.12881   0.00000  Uiso   1.00
H149   H     0.02783   0.82003   0.14084   0.00000  Uiso   1.00
H150   H     0.47072   0.67980   0.13836   0.00000  Uiso   1.00
H151   H     0.47028   0.81873   0.20350   0.00000  Uiso   1.00
H152   H     0.03129   0.67956   0.20063   0.00000  Uiso   1.00
H153   H     0.10873   0.82076   0.13977   0.00000  Uiso   1.00
H154   H     0.38960   0.67965   0.13704   0.00000  Uiso   1.00
H155   H     0.38928   0.81938   0.20037   0.00000  Uiso   1.00
H156   H     0.11223   0.67949   0.19770   0.00000  Uiso   1.00
N157   N     0.25000   0.62623   0.16667   0.00000  Uiso   1.00
N158   N     0.25000   0.87376   0.16667   0.00000  Uiso   1.00
O159   O     0.18453   0.78974   0.16667   0.00000  Uiso   1.00
O160   O     0.31547   0.71026   0.16666   0.00000  Uiso   1.00
O161   O     0.31547   0.78974   0.16666   0.00000  Uiso   1.00
O162   O     0.18453   0.71026   0.16667   0.00000  Uiso   1.00
O163   O     0.25000   0.78973   0.09511   0.00000  Uiso   1.00
O164   O     0.25000   0.71027   0.23822   0.00000  Uiso   1.00
O165   O     0.25000   0.78973   0.23822   0.00000  Uiso   1.00
O166   O     0.25000   0.71027   0.09511   0.00000  Uiso   1.00
Zn167  Zn    0.25000   0.80307   0.16667   0.00000  Uiso   1.00
Zn168  Zn    0.25000   0.69693   0.16667   0.00000  Uiso   1.00
C169   C     0.66396   0.75008   0.16690   0.00000  Uiso   1.00
C170   C     0.71523   0.94684   0.14137   0.00000  Uiso   1.00
C171   C     0.74993   0.74993   0.07294   0.00000  Uiso   1.00
C172   C     0.75007   0.75007   0.26040   0.00000  Uiso   1.00
C173   C     0.75255   0.52681   0.16360   0.00000  Uiso   1.00
C174   C     0.74717   0.97323   0.16933   0.00000  Uiso   1.00
C175   C     0.74997   0.74990   0.02181   0.00000  Uiso   1.00
C176   C     0.75003   0.75010   0.31152   0.00000  Uiso   1.00
C177   C     0.54614   0.78954   0.15397   0.00000  Uiso   1.00
C178   C     0.95306   0.71003   0.15265   0.00000  Uiso   1.00
C179   C     0.95281   0.78850   0.18851   0.00000  Uiso   1.00
C180   C     0.83603   0.74989   0.16696   0.00000  Uiso   1.00
C181   C     0.54807   0.71024   0.18681   0.00000  Uiso   1.00
C182   C     0.59210   0.78983   0.15306   0.00000  Uiso   1.00
C183   C     0.90704   0.71007   0.15163   0.00000  Uiso   1.00
C184   C     0.90683   0.78881   0.18681   0.00000  Uiso   1.00
C185   C     0.59401   0.71028   0.18522   0.00000  Uiso   1.00
C186   C     0.61605   0.75009   0.16831   0.00000  Uiso   1.00
C187   C     0.88394   0.74962   0.16834   0.00000  Uiso   1.00
C188   C     0.52410   0.74976   0.17088   0.00000  Uiso   1.00
C189   C     0.97596   0.74928   0.17104   0.00000  Uiso   1.00
C190   C     0.72501   0.60231   0.13167   0.00000  Uiso   1.00
C191   C     0.77424   0.89787   0.20222   0.00000  Uiso   1.00
C192   C     0.78073   0.60221   0.19525   0.00000  Uiso   1.00
C193   C     0.71989   0.89770   0.13717   0.00000  Uiso   1.00
C194   C     0.72913   0.55321   0.12650   0.00000  Uiso   1.00
C195   C     0.77009   0.94702   0.20696   0.00000  Uiso   1.00
C196   C     0.78503   0.55302   0.19100   0.00000  Uiso   1.00
Cl197  Cl    0.68877   0.63274   0.09052   0.00000  Uiso   1.00
Cl198  Cl    0.80966   0.86767   0.24441   0.00000  Uiso   1.00
Cl199  Cl    0.81715   0.63266   0.23616   0.00000  Uiso   1.00
Cl200  Cl    0.68473   0.86723   0.09497   0.00000  Uiso   1.00
Cl201  Cl    0.72097   0.53007   0.06535   0.00000  Uiso   1.00
Cl202  Cl    0.77821   0.97082   0.26785   0.00000  Uiso   1.00
Cl203  Cl    0.83868   0.52906   0.20329   0.00000  Uiso   1.00
Cl204  Cl    0.66138   0.97016   0.12881   0.00000  Uiso   1.00
H205   H     0.52783   0.82003   0.14084   0.00000  Uiso   1.00
H206   H     0.97072   0.67980   0.13836   0.00000  Uiso   1.00
H207   H     0.97028   0.81873   0.20350   0.00000  Uiso   1.00
H208   H     0.53129   0.67956   0.20063   0.00000  Uiso   1.00
H209   H     0.60873   0.82076   0.13977   0.00000  Uiso   1.00
H210   H     0.88960   0.67965   0.13704   0.00000  Uiso   1.00
H211   H     0.88928   0.81938   0.20037   0.00000  Uiso   1.00
H212   H     0.61223   0.67949   0.19770   0.00000  Uiso   1.00
N213   N     0.75000   0.62623   0.16667   0.00000  Uiso   1.00
N214   N     0.75000   0.87376   0.16667   0.00000  Uiso   1.00
O215   O     0.68453   0.78974   0.16667   0.00000  Uiso   1.00
O216   O     0.81547   0.71026   0.16666   0.00000  Uiso   1.00
O217   O     0.81547   0.78974   0.16666   0.00000  Uiso   1.00
O218   O     0.68453   0.71026   0.16667   0.00000  Uiso   1.00
O219   O     0.75000   0.78973   0.09511   0.00000  Uiso   1.00
O220   O     0.75000   0.71027   0.23822   0.00000  Uiso   1.00
O221   O     0.75000   0.78973   0.23822   0.00000  Uiso   1.00
O222   O     0.75000   0.71027   0.09511   0.00000  Uiso   1.00
Zn223  Zn    0.75000   0.80307   0.16667   0.00000  Uiso   1.00
Zn224  Zn    0.75000   0.69693   0.16667   0.00000  Uiso   1.00
C225   C     0.16396   0.25008   0.50023   0.00000  Uiso   1.00
C226   C     0.21523   0.44684   0.47470   0.00000  Uiso   1.00
C227   C     0.24993   0.24993   0.40627   0.00000  Uiso   1.00
C228   C     0.25007   0.25007   0.59373   0.00000  Uiso   1.00
C229   C     0.25255   0.02681   0.49694   0.00000  Uiso   1.00
C230   C     0.24717   0.47323   0.50266   0.00000  Uiso   1.00
C231   C     0.24997   0.24990   0.35514   0.00000  Uiso   1.00
C232   C     0.25003   0.25010   0.64486   0.00000  Uiso   1.00
C233   C     0.04614   0.28954   0.48730   0.00000  Uiso   1.00
C234   C     0.45306   0.21003   0.48598   0.00000  Uiso   1.00
C235   C     0.45281   0.28850   0.52184   0.00000  Uiso   1.00
C236   C     0.33603   0.24989   0.50030   0.00000  Uiso   1.00
C237   C     0.04807   0.21024   0.52014   0.00000  Uiso   1.00
C238   C     0.09210   0.28983   0.48639   0.00000  Uiso   1.00
C239   C     0.40704   0.21007   0.48496   0.00000  Uiso   1.00
C240   C     0.40683   0.28881   0.52014   0.00000  Uiso   1.00
C241   C     0.09401   0.21028   0.51856   0.00000  Uiso   1.00
C242   C     0.11605   0.25009   0.50165   0.00000  Uiso   1.00
C243   C     0.38394   0.24962   0.50168   0.00000  Uiso   1.00
C244   C     0.02410   0.24976   0.50421   0.00000  Uiso   1.00
C245   C     0.47596   0.24928   0.50437   0.00000  Uiso   1.00
C246   C     0.22501   0.10231   0.46500   0.00000  Uiso   1.00
C247   C     0.27424   0.39787   0.53555   0.00000  Uiso   1.00
C248   C     0.28073   0.10221   0.52858   0.00000  Uiso   1.00
C249   C     0.21989   0.39770   0.47050   0.00000  Uiso   1.00
C250   C     0.22913   0.05321   0.45984   0.00000  Uiso   1.00
C251   C     0.27009   0.44702   0.54030   0.00000  Uiso   1.00
C252   C     0.28503   0.05302   0.52433   0.00000  Uiso   1.00
Cl253  Cl    0.18877   0.13274   0.42385   0.00000  Uiso   1.00
Cl254  Cl    0.30966   0.36767   0.57774   0.00000  Uiso   1.00
Cl255  Cl    0.31715   0.13266   0.56950   0.00000  Uiso   1.00
Cl256  Cl    0.18473   0.36723   0.42830   0.00000  Uiso   1.00
Cl257  Cl    0.22097   0.03007   0.39868   0.00000  Uiso   1.00
Cl258  Cl    0.27821   0.47082   0.60118   0.00000  Uiso   1.00
Cl259  Cl    0.33868   0.02906   0.53662   0.00000  Uiso   1.00
Cl260  Cl    0.16138   0.47016   0.46215   0.00000  Uiso   1.00
H261   H     0.02783   0.32003   0.47418   0.00000  Uiso   1.00
H262   H     0.47072   0.17980   0.47170   0.00000  Uiso   1.00
H263   H     0.47028   0.31873   0.53684   0.00000  Uiso   1.00
H264   H     0.03129   0.17956   0.53396   0.00000  Uiso   1.00
H265   H     0.10873   0.32076   0.47311   0.00000  Uiso   1.00
H266   H     0.38960   0.17965   0.47037   0.00000  Uiso   1.00
H267   H     0.38928   0.31938   0.53371   0.00000  Uiso   1.00
H268   H     0.11223   0.17949   0.53103   0.00000  Uiso   1.00
N269   N     0.25000   0.12623   0.50000   0.00000  Uiso   1.00
N270   N     0.25000   0.37376   0.50000   0.00000  Uiso   1.00
O271   O     0.18453   0.28974   0.50000   0.00000  Uiso   1.00
O272   O     0.31547   0.21026   0.50000   0.00000  Uiso   1.00
O273   O     0.31547   0.28974   0.50000   0.00000  Uiso   1.00
O274   O     0.18453   0.21026   0.50000   0.00000  Uiso   1.00
O275   O     0.25000   0.28973   0.42845   0.00000  Uiso   1.00
O276   O     0.25000   0.21027   0.57155   0.00000  Uiso   1.00
O277   O     0.25000   0.28973   0.57155   0.00000  Uiso   1.00
O278   O     0.25000   0.21027   0.42845   0.00000  Uiso   1.00
Zn279  Zn    0.25000   0.30307   0.50000   0.00000  Uiso   1.00
Zn280  Zn    0.25000   0.19693   0.50000   0.00000  Uiso   1.00
C281   C     0.66396   0.25008   0.50023   0.00000  Uiso   1.00
C282   C     0.71523   0.44684   0.47470   0.00000  Uiso   1.00
C283   C     0.74993   0.24993   0.40627   0.00000  Uiso   1.00
C284   C     0.75007   0.25007   0.59373   0.00000  Uiso   1.00
C285   C     0.75255   0.02681   0.49694   0.00000  Uiso   1.00
C286   C     0.74717   0.47323   0.50266   0.00000  Uiso   1.00
C287   C     0.74997   0.24990   0.35514   0.00000  Uiso   1.00
C288   C     0.75003   0.25010   0.64486   0.00000  Uiso   1.00
C289   C     0.54614   0.28954   0.48730   0.00000  Uiso   1.00
C290   C     0.95306   0.21003   0.48598   0.00000  Uiso   1.00
C291   C     0.95281   0.28850   0.52184   0.00000  Uiso   1.00
C292   C     0.83603   0.24989   0.50030   0.00000  Uiso   1.00
C293   C     0.54807   0.21024   0.52014   0.00000  Uiso   1.00
C294   C     0.59210   0.28983   0.48639   0.00000  Uiso   1.00
C295   C     0.90704   0.21007   0.48496   0.00000  Uiso   1.00
C296   C     0.90683   0.28881   0.52014   0.00000  Uiso   1.00
C297   C     0.59401   0.21028   0.51856   0.00000  Uiso   1.00
C298   C     0.61605   0.25009   0.50165   0.00000  Uiso   1.00
C299   C     0.88394   0.24962   0.50168   0.00000  Uiso   1.00
C300   C     0.52410   0.24976   0.50421   0.00000  Uiso   1.00
C301   C     0.97596   0.24928   0.50437   0.00000  Uiso   1.00
C302   C     0.72501   0.10231   0.46500   0.00000  Uiso   1.00
C303   C     0.77424   0.39787   0.53555   0.00000  Uiso   1.00
C304   C     0.78073   0.10221   0.52858   0.00000  Uiso   1.00
C305   C     0.71989   0.39770   0.47050   0.00000  Uiso   1.00
C306   C     0.72913   0.05321   0.45984   0.00000  Uiso   1.00
C307   C     0.77009   0.44702   0.54030   0.00000  Uiso   1.00
C308   C     0.78503   0.05302   0.52433   0.00000  Uiso   1.00
Cl309  Cl    0.68877   0.13274   0.42385   0.00000  Uiso   1.00
Cl310  Cl    0.80966   0.36767   0.57774   0.00000  Uiso   1.00
Cl311  Cl    0.81715   0.13266   0.56950   0.00000  Uiso   1.00
Cl312  Cl    0.68473   0.36723   0.42830   0.00000  Uiso   1.00
Cl313  Cl    0.72097   0.03007   0.39868   0.00000  Uiso   1.00
Cl314  Cl    0.77821   0.47082   0.60118   0.00000  Uiso   1.00
Cl315  Cl    0.83868   0.02906   0.53662   0.00000  Uiso   1.00
Cl316  Cl    0.66138   0.47016   0.46215   0.00000  Uiso   1.00
H317   H     0.52783   0.32003   0.47418   0.00000  Uiso   1.00
H318   H     0.97072   0.17980   0.47170   0.00000  Uiso   1.00
H319   H     0.97028   0.31873   0.53684   0.00000  Uiso   1.00
H320   H     0.53129   0.17956   0.53396   0.00000  Uiso   1.00
H321   H     0.60873   0.32076   0.47311   0.00000  Uiso   1.00
H322   H     0.88960   0.17965   0.47037   0.00000  Uiso   1.00
H323   H     0.88928   0.31938   0.53371   0.00000  Uiso   1.00
H324   H     0.61223   0.17949   0.53103   0.00000  Uiso   1.00
N325   N     0.75000   0.12623   0.50000   0.00000  Uiso   1.00
N326   N     0.75000   0.37376   0.50000   0.00000  Uiso   1.00
O327   O     0.68453   0.28974   0.50000   0.00000  Uiso   1.00
O328   O     0.81547   0.21026   0.50000   0.00000  Uiso   1.00
O329   O     0.81547   0.28974   0.50000   0.00000  Uiso   1.00
O330   O     0.68453   0.21026   0.50000   0.00000  Uiso   1.00
O331   O     0.75000   0.28973   0.42845   0.00000  Uiso   1.00
O332   O     0.75000   0.21027   0.57155   0.00000  Uiso   1.00
O333   O     0.75000   0.28973   0.57155   0.00000  Uiso   1.00
O334   O     0.75000   0.21027   0.42845   0.00000  Uiso   1.00
Zn335  Zn    0.75000   0.30307   0.50000   0.00000  Uiso   1.00
Zn336  Zn    0.75000   0.19693   0.50000   0.00000  Uiso   1.00
C337   C     0.16396   0.75008   0.50023   0.00000  Uiso   1.00
C338   C     0.21523   0.94684   0.47470   0.00000  Uiso   1.00
C339   C     0.24993   0.74993   0.40627   0.00000  Uiso   1.00
C340   C     0.25007   0.75007   0.59373   0.00000  Uiso   1.00
C341   C     0.25255   0.52681   0.49694   0.00000  Uiso   1.00
C342   C     0.24717   0.97323   0.50266   0.00000  Uiso   1.00
C343   C     0.24997   0.74990   0.35514   0.00000  Uiso   1.00
C344   C     0.25003   0.75010   0.64486   0.00000  Uiso   1.00
C345   C     0.04614   0.78954   0.48730   0.00000  Uiso   1.00
C346   C     0.45306   0.71003   0.48598   0.00000  Uiso   1.00
C347   C     0.45281   0.78850   0.52184   0.00000  Uiso   1.00
C348   C     0.33603   0.74989   0.50030   0.00000  Uiso   1.00
C349   C     0.04807   0.71024   0.52014   0.00000  Uiso   1.00
C350   C     0.09210   0.78983   0.48639   0.00000  Uiso   1.00
C351   C     0.40704   0.71007   0.48496   0.00000  Uiso   1.00
C352   C     0.40683   0.78881   0.52014   0.00000  Uiso   1.00
C353   C     0.09401   0.71028   0.51856   0.00000  Uiso   1.00
C354   C     0.11605   0.75009   0.50165   0.00000  Uiso   1.00
C355   C     0.38394   0.74962   0.50168   0.00000  Uiso   1.00
C356   C     0.02410   0.74976   0.50421   0.00000  Uiso   1.00
C357   C     0.47596   0.74928   0.50437   0.00000  Uiso   1.00
C358   C     0.22501   0.60231   0.46500   0.00000  Uiso   1.00
C359   C     0.27424   0.89787   0.53555   0.00000  Uiso   1.00
C360   C     0.28073   0.60221   0.52858   0.00000  Uiso   1.00
C361   C     0.21989   0.89770   0.47050   0.00000  Uiso   1.00
C362   C     0.22913   0.55321   0.45984   0.00000  Uiso   1.00
C363   C     0.27009   0.94702   0.54030   0.00000  Uiso   1.00
C364   C     0.28503   0.55302   0.52433   0.00000  Uiso   1.00
Cl365  Cl    0.18877   0.63274   0.42385   0.00000  Uiso   1.00
Cl366  Cl    0.30966   0.86767   0.57774   0.00000  Uiso   1.00
Cl367  Cl    0.31715   0.63266   0.56950   0.00000  Uiso   1.00
Cl368  Cl    0.18473   0.86723   0.42830   0.00000  Uiso   1.00
Cl369  Cl    0.22097   0.53007   0.39868   0.00000  Uiso   1.00
Cl370  Cl    0.27821   0.97082   0.60118   0.00000  Uiso   1.00
Cl371  Cl    0.33868   0.52906   0.53662   0.00000  Uiso   1.00
Cl372  Cl    0.16138   0.97016   0.46215   0.00000  Uiso   1.00
H373   H     0.02783   0.82003   0.47418   0.00000  Uiso   1.00
H374   H     0.47072   0.67980   0.47170   0.00000  Uiso   1.00
H375   H     0.47028   0.81873   0.53684   0.00000  Uiso   1.00
H376   H     0.03129   0.67956   0.53396   0.00000  Uiso   1.00
H377   H     0.10873   0.82076   0.47311   0.00000  Uiso   1.00
H378   H     0.38960   0.67965   0.47037   0.00000  Uiso   1.00
H379   H     0.38928   0.81938   0.53371   0.00000  Uiso   1.00
H380   H     0.11223   0.67949   0.53103   0.00000  Uiso   1.00
N381   N     0.25000   0.62623   0.50000   0.00000  Uiso   1.00
N382   N     0.25000   0.87376   0.50000   0.00000  Uiso   1.00
O383   O     0.18453   0.78974   0.50000   0.00000  Uiso   1.00
O384   O     0.31547   0.71026   0.50000   0.00000  Uiso   1.00
O385   O     0.31547   0.78974   0.50000   0.00000  Uiso   1.00
O386   O     0.18453   0.71026   0.50000   0.00000  Uiso   1.00
O387   O     0.25000   0.78973   0.42845   0.00000  Uiso   1.00
O388   O     0.25000   0.71027   0.57155   0.00000  Uiso   1.00
O389   O     0.25000   0.78973   0.57155   0.00000  Uiso   1.00
O390   O     0.25000   0.71027   0.42845   0.00000  Uiso   1.00
Zn391  Zn    0.25000   0.80307   0.50000   0.00000  Uiso   1.00
Zn392  Zn    0.25000   0.69693   0.50000   0.00000  Uiso   1.00
C393   C     0.66396   0.75008   0.50023   0.00000  Uiso   1.00
C394   C     0.71523   0.94684   0.47470   0.00000  Uiso   1.00
C395   C     0.74993   0.74993   0.40627   0.00000  Uiso   1.00
C396   C     0.75007   0.75007   0.59373   0.00000  Uiso   1.00
C397   C     0.75255   0.52681   0.49694   0.00000  Uiso   1.00
C398   C     0.74717   0.97323   0.50266   0.00000  Uiso   1.00
C399   C     0.74997   0.74990   0.35514   0.00000  Uiso   1.00
C400   C     0.75003   0.75010   0.64486   0.00000  Uiso   1.00
C401   C     0.54614   0.78954   0.48730   0.00000  Uiso   1.00
C402   C     0.95306   0.71003   0.48598   0.00000  Uiso   1.00
C403   C     0.95281   0.78850   0.52184   0.00000  Uiso   1.00
C404   C     0.83603   0.74989   0.50030   0.00000  Uiso   1.00
C405   C     0.54807   0.71024   0.52014   0.00000  Uiso   1.00
C406   C     0.59210   0.78983   0.48639   0.00000  Uiso   1.00
C407   C     0.90704   0.71007   0.48496   0.00000  Uiso   1.00
C408   C     0.90683   0.78881   0.52014   0.00000  Uiso   1.00
C409   C     0.59401   0.71028   0.51856   0.00000  Uiso   1.00
C410   C     0.61605   0.75009   0.50165   0.00000  Uiso   1.00
C411   C     0.88394   0.74962   0.50168   0.00000  Uiso   1.00
C412   C     0.52410   0.74976   0.50421   0.00000  Uiso   1.00
C413   C     0.97596   0.74928   0.50437   0.00000  Uiso   1.00
C414   C     0.72501   0.60231   0.46500   0.00000  Uiso   1.00
C415   C     0.77424   0.89787   0.53555   0.00000  Uiso   1.00
C416   C     0.78073   0.60221   0.52858   0.00000  Uiso   1.00
C417   C     0.71989   0.89770   0.47050   0.00000  Uiso   1.00
C418   C     0.72913   0.55321   0.45984   0.00000  Uiso   1.00
C419   C     0.77009   0.94702   0.54030   0.00000  Uiso   1.00
C420   C     0.78503   0.55302   0.52433   0.00000  Uiso   1.00
Cl421  Cl    0.68877   0.63274   0.42385   0.00000  Uiso   1.00
Cl422  Cl    0.80966   0.86767   0.57774   0.00000  Uiso   1.00
Cl423  Cl    0.81715   0.63266   0.56950   0.00000  Uiso   1.00
Cl424  Cl    0.68473   0.86723   0.42830   0.00000  Uiso   1.00
Cl425  Cl    0.72097   0.53007   0.39868   0.00000  Uiso   1.00
Cl426  Cl    0.77821   0.97082   0.60118   0.00000  Uiso   1.00
Cl427  Cl    0.83868   0.52906   0.53662   0.00000  Uiso   1.00
Cl428  Cl    0.66138   0.97016   0.46215   0.00000  Uiso   1.00
H429   H     0.52783   0.82003   0.47418   0.00000  Uiso   1.00
H430   H     0.97072   0.67980   0.47170   0.00000  Uiso   1.00
H431   H     0.97028   0.81873   0.53684   0.00000  Uiso   1.00
H432   H     0.53129   0.67956   0.53396   0.00000  Uiso   1.00
H433   H     0.60873   0.82076   0.47311   0.00000  Uiso   1.00
H434   H     0.88960   0.67965   0.47037   0.00000  Uiso   1.00
H435   H     0.88928   0.81938   0.53371   0.00000  Uiso   1.00
H436   H     0.61223   0.67949   0.53103   0.00000  Uiso   1.00
N437   N     0.75000   0.62623   0.50000   0.00000  Uiso   1.00
N438   N     0.75000   0.87376   0.50000   0.00000  Uiso   1.00
O439   O     0.68453   0.78974   0.50000   0.00000  Uiso   1.00
O440   O     0.81547   0.71026   0.50000   0.00000  Uiso   1.00
O441   O     0.81547   0.78974   0.50000   0.00000  Uiso   1.00
O442   O     0.68453   0.71026   0.50000   0.00000  Uiso   1.00
O443   O     0.75000   0.78973   0.42845   0.00000  Uiso   1.00
O444   O     0.75000   0.71027   0.57155   0.00000  Uiso   1.00
O445   O     0.75000   0.78973   0.57155   0.00000  Uiso   1.00
O446   O     0.75000   0.71027   0.42845   0.00000  Uiso   1.00
Zn447  Zn    0.75000   0.80307   0.50000   0.00000  Uiso   1.00
Zn448  Zn    0.75000   0.69693   0.50000   0.00000  Uiso   1.00
C449   C     0.16396   0.25008   0.83356   0.00000  Uiso   1.00
C450   C     0.21523   0.44684   0.80804   0.00000  Uiso   1.00
C451   C     0.24993   0.24993   0.73960   0.00000  Uiso   1.00
C452   C     0.25007   0.25007   0.92706   0.00000  Uiso   1.00
C453   C     0.25255   0.02681   0.83027   0.00000  Uiso   1.00
C454   C     0.24717   0.47323   0.83599   0.00000  Uiso   1.00
C455   C     0.24997   0.24990   0.68848   0.00000  Uiso   1.00
C456   C     0.25003   0.25010   0.97819   0.00000  Uiso   1.00
C457   C     0.04614   0.28954   0.82063   0.00000  Uiso   1.00
C458   C     0.45306   0.21003   0.81932   0.00000  Uiso   1.00
C459   C     0.45281   0.28850   0.85518   0.00000  Uiso   1.00
C460   C     0.33603   0.24989   0.83363   0.00000  Uiso   1.00
C461   C     0.04807   0.21024   0.85348   0.00000  Uiso   1.00
C462   C     0.09210   0.28983   0.81973   0.00000  Uiso   1.00
C463   C     0.40704   0.21007   0.81830   0.00000  Uiso   1.00
C464   C     0.40683   0.28881   0.85348   0.00000  Uiso   1.00
C465   C     0.09401   0.21028   0.85189   0.00000  Uiso   1.00
C466   C     0.11605   0.25009   0.83498   0.00000  Uiso   1.00
C467   C     0.38394   0.24962   0.83501   0.00000  Uiso   1.00
C468   C     0.02410   0.24976   0.83754   0.00000  Uiso   1.00
C469   C     0.47596   0.24928   0.83770   0.00000  Uiso   1.00
C470   C     0.22501   0.10231   0.79834   0.00000  Uiso   1.00
C471   C     0.27424   0.39787   0.86888   0.00000  Uiso   1.00
C472   C     0.28073   0.10221   0.86192   0.00000  Uiso   1.00
C473   C     0.21989   0.39770   0.80384   0.00000  Uiso   1.00
C474   C     0.22913   0.05321   0.79317   0.00000  Uiso   1.00
C475   C     0.27009   0.44702   0.87363   0.00000  Uiso   1.00
C476   C     0.28503   0.05302   0.85766   0.00000  Uiso   1.00
Cl477  Cl    0.18877   0.13274   0.75718   0.00000  Uiso   1.00
Cl478  Cl    0.30966   0.36767   0.91108   0.00000  Uiso   1.00
Cl479  Cl    0.31715   0.13266   0.90283   0.00000  Uiso   1.00
Cl480  Cl    0.18473   0.36723   0.76163   0.00000  Uiso   1.00
Cl481  Cl    0.22097   0.03007   0.73202   0.00000  Uiso   1.00
Cl482  Cl    0.27821   0.47082   0.93451   0.00000  Uiso   1.00
Cl483  Cl    0.33868   0.02906   0.86996   0.00000  Uiso   1.00
Cl484  Cl    0.16138   0.47016   0.79548   0.00000  Uiso   1.00
H485   H     0.02783   0.32003   0.80751   0.00000  Uiso   1.00
H486   H     0.47072   0.17980   0.80503   0.00000  Uiso   1.00
H487   H     0.47028   0.31873   0.87017   0.00000  Uiso   1.00
H488   H     0.03129   0.17956   0.86729   0.00000  Uiso   1.00
H489   H     0.10873   0.32076   0.80644   0.00000  Uiso   1.00
H490   H     0.38960   0.17965   0.80371   0.00000  Uiso   1.00
H491   H     0.38928   0.31938   0.86704   0.00000  Uiso   1.00
H492   H     0.11223   0.17949   0.86436   0.00000  Uiso   1.00
N493   N     0.25000   0.12623   0.83333   0.00000  Uiso   1.00
N494   N     0.25000   0.37376   0.83333   0.00000  Uiso   1.00
O495   O     0.18453   0.28974   0.83334   0.00000  Uiso   1.00
O496   O     0.31547   0.21026   0.83333   0.00000  Uiso   1.00
O497   O     0.31547   0.28974   0.83333   0.00000  Uiso   1.00
O498   O     0.18453   0.21026   0.83334   0.00000  Uiso   1.00
O499   O     0.25000   0.28973   0.76178   0.00000  Uiso   1.00
O500   O     0.25000   0.21027   0.90489   0.00000  Uiso   1.00
O501   O     0.25000   0.28973   0.90489   0.00000  Uiso   1.00
O502   O     0.25000   0.21027   0.76178   0.00000  Uiso   1.00
Zn503  Zn    0.25000   0.30307   0.83333   0.00000  Uiso   1.00
Zn504  Zn    0.25000   0.19693   0.83333   0.00000  Uiso   1.00
C505   C     0.66396   0.25008   0.83356   0.00000  Uiso   1.00
C506   C     0.71523   0.44684   0.80804   0.00000  Uiso   1.00
C507   C     0.74993   0.24993   0.73960   0.00000  Uiso   1.00
C508   C     0.75007   0.25007   0.92706   0.00000  Uiso   1.00
C509   C     0.75255   0.02681   0.83027   0.00000  Uiso   1.00
C510   C     0.74717   0.47323   0.83599   0.00000  Uiso   1.00
C511   C     0.74997   0.24990   0.68848   0.00000  Uiso   1.00
C512   C     0.75003   0.25010   0.97819   0.00000  Uiso   1.00
C513   C     0.54614   0.28954   0.82063   0.00000  Uiso   1.00
C514   C     0.95306   0.21003   0.81932   0.00000  Uiso   1.00
C515   C     0.95281   0.28850   0.85518   0.00000  Uiso   1.00
C516   C     0.83603   0.24989   0.83363   0.00000  Uiso   1.00
C517   C     0.54807   0.21024   0.85348   0.00000  Uiso   1.00
C518   C     0.59210   0.28983   0.81973   0.00000  Uiso   1.00
C519   C     0.90704   0.21007   0.81830   0.00000  Uiso   1.00
C520   C     0.90683   0.28881   0.85348   0.00000  Uiso   1.00
C521   C     0.59401   0.21028   0.85189   0.00000  Uiso   1.00
C522   C     0.61605   0.25009   0.83498   0.00000  Uiso   1.00
C523   C     0.88394   0.24962   0.83501   0.00000  Uiso   1.00
C524   C     0.52410   0.24976   0.83754   0.00000  Uiso   1.00
C525   C     0.97596   0.24928   0.83770   0.00000  Uiso   1.00
C526   C     0.72501   0.10231   0.79834   0.00000  Uiso   1.00
C527   C     0.77424   0.39787   0.86888   0.00000  Uiso   1.00
C528   C     0.78073   0.10221   0.86192   0.00000  Uiso   1.00
C529   C     0.71989   0.39770   0.80384   0.00000  Uiso   1.00
C530   C     0.72913   0.05321   0.79317   0.00000  Uiso   1.00
C531   C     0.77009   0.44702   0.87363   0.00000  Uiso   1.00
C532   C     0.78503   0.05302   0.85766   0.00000  Uiso   1.00
Cl533  Cl    0.68877   0.13274   0.75718   0.00000  Uiso   1.00
Cl534  Cl    0.80966   0.36767   0.91108   0.00000  Uiso   1.00
Cl535  Cl    0.81715   0.13266   0.90283   0.00000  Uiso   1.00
Cl536  Cl    0.68473   0.36723   0.76163   0.00000  Uiso   1.00
Cl537  Cl    0.72097   0.03007   0.73202   0.00000  Uiso   1.00
Cl538  Cl    0.77821   0.47082   0.93451   0.00000  Uiso   1.00
Cl539  Cl    0.83868   0.02906   0.86996   0.00000  Uiso   1.00
Cl540  Cl    0.66138   0.47016   0.79548   0.00000  Uiso   1.00
H541   H     0.52783   0.32003   0.80751   0.00000  Uiso   1.00
H542   H     0.97072   0.17980   0.80503   0.00000  Uiso   1.00
H543   H     0.97028   0.31873   0.87017   0.00000  Uiso   1.00
H544   H     0.53129   0.17956   0.86729   0.00000  Uiso   1.00
H545   H     0.60873   0.32076   0.80644   0.00000  Uiso   1.00
H546   H     0.88960   0.17965   0.80371   0.00000  Uiso   1.00
H547   H     0.88928   0.31938   0.86704   0.00000  Uiso   1.00
H548   H     0.61223   0.17949   0.86436   0.00000  Uiso   1.00
N549   N     0.75000   0.12623   0.83333   0.00000  Uiso   1.00
N550   N     0.75000   0.37376   0.83333   0.00000  Uiso   1.00
O551   O     0.68453   0.28974   0.83334   0.00000  Uiso   1.00
O552   O     0.81547   0.21026   0.83333   0.00000  Uiso   1.00
O553   O     0.81547   0.28974   0.83333   0.00000  Uiso   1.00
O554   O     0.68453   0.21026   0.83334   0.00000  Uiso   1.00
O555   O     0.75000   0.28973   0.76178   0.00000  Uiso   1.00
O556   O     0.75000   0.21027   0.90489   0.00000  Uiso   1.00
O557   O     0.75000   0.28973   0.90489   0.00000  Uiso   1.00
O558   O     0.75000   0.21027   0.76178   0.00000  Uiso   1.00
Zn559  Zn    0.75000   0.30307   0.83333   0.00000  Uiso   1.00
Zn560  Zn    0.75000   0.19693   0.83333   0.00000  Uiso   1.00
C561   C     0.16396   0.75008   0.83356   0.00000  Uiso   1.00
C562   C     0.21523   0.94684   0.80804   0.00000  Uiso   1.00
C563   C     0.24993   0.74993   0.73960   0.00000  Uiso   1.00
C564   C     0.25007   0.75007   0.92706   0.00000  Uiso   1.00
C565   C     0.25255   0.52681   0.83027   0.00000  Uiso   1.00
C566   C     0.24717   0.97323   0.83599   0.00000  Uiso   1.00
C567   C     0.24997   0.74990   0.68848   0.00000  Uiso   1.00
C568   C     0.25003   0.75010   0.97819   0.00000  Uiso   1.00
C569   C     0.04614   0.78954   0.82063   0.00000  Uiso   1.00
C570   C     0.45306   0.71003   0.81932   0.00000  Uiso   1.00
C571   C     0.45281   0.78850   0.85518   0.00000  Uiso   1.00
C572   C     0.33603   0.74989   0.83363   0.00000  Uiso   1.00
C573   C     0.04807   0.71024   0.85348   0.00000  Uiso   1.00
C574   C     0.09210   0.78983   0.81973   0.00000  Uiso   1.00
C575   C     0.40704   0.71007   0.81830   0.00000  Uiso   1.00
C576   C     0.40683   0.78881   0.85348   0.00000  Uiso   1.00
C577   C     0.09401   0.71028   0.85189   0.00000  Uiso   1.00
C578   C     0.11605   0.75009   0.83498   0.00000  Uiso   1.00
C579   C     0.38394   0.74962   0.83501   0.00000  Uiso   1.00
C580   C     0.02410   0.74976   0.83754   0.00000  Uiso   1.00
C581   C     0.47596   0.74928   0.83770   0.00000  Uiso   1.00
C582   C     0.22501   0.60231   0.79834   0.00000  Uiso   1.00
C583   C     0.27424   0.89787   0.86888   0.00000  Uiso   1.00
C584   C     0.28073   0.60221   0.86192   0.00000  Uiso   1.00
C585   C     0.21989   0.89770   0.80384   0.00000  Uiso   1.00
C586   C     0.22913   0.55321   0.79317   0.00000  Uiso   1.00
C587   C     0.27009   0.94702   0.87363   0.00000  Uiso   1.00
C588   C     0.28503   0.55302   0.85766   0.00000  Uiso   1.00
Cl589  Cl    0.18877   0.63274   0.75718   0.00000  Uiso   1.00
Cl590  Cl    0.30966   0.86767   0.91108   0.00000  Uiso   1.00
Cl591  Cl    0.31715   0.63266   0.90283   0.00000  Uiso   1.00
Cl592  Cl    0.18473   0.86723   0.76163   0.00000  Uiso   1.00
Cl593  Cl    0.22097   0.53007   0.73202   0.00000  Uiso   1.00
Cl594  Cl    0.27821   0.97082   0.93451   0.00000  Uiso   1.00
Cl595  Cl    0.33868   0.52906   0.86996   0.00000  Uiso   1.00
Cl596  Cl    0.16138   0.97016   0.79548   0.00000  Uiso   1.00
H597   H     0.02783   0.82003   0.80751   0.00000  Uiso   1.00
H598   H     0.47072   0.67980   0.80503   0.00000  Uiso   1.00
H599   H     0.47028   0.81873   0.87017   0.00000  Uiso   1.00
H600   H     0.03129   0.67956   0.86729   0.00000  Uiso   1.00
H601   H     0.10873   0.82076   0.80644   0.00000  Uiso   1.00
H602   H     0.38960   0.67965   0.80371   0.00000  Uiso   1.00
H603   H     0.38928   0.81938   0.86704   0.00000  Uiso   1.00
H604   H     0.11223   0.67949   0.86436   0.00000  Uiso   1.00
N605   N     0.25000   0.62623   0.83333   0.00000  Uiso   1.00
N606   N     0.25000   0.87376   0.83333   0.00000  Uiso   1.00
O607   O     0.18453   0.78974   0.83334   0.00000  Uiso   1.00
O608   O     0.31547   0.71026   0.83333   0.00000  Uiso   1.00
O609   O     0.31547   0.78974   0.83333   0.00000  Uiso   1.00
O610   O     0.18453   0.71026   0.83334   0.00000  Uiso   1.00
O611   O     0.25000   0.78973   0.76178   0.00000  Uiso   1.00
O612   O     0.25000   0.71027   0.90489   0.00000  Uiso   1.00
O613   O     0.25000   0.78973   0.90489   0.00000  Uiso   1.00
O614   O     0.25000   0.71027   0.76178   0.00000  Uiso   1.00
Zn615  Zn    0.25000   0.80307   0.83333   0.00000  Uiso   1.00
Zn616  Zn    0.25000   0.69693   0.83333   0.00000  Uiso   1.00
C617   C     0.66396   0.75008   0.83356   0.00000  Uiso   1.00
C618   C     0.71523   0.94684   0.80804   0.00000  Uiso   1.00
C619   C     0.74993   0.74993   0.73960   0.00000  Uiso   1.00
C620   C     0.75007   0.75007   0.92706   0.00000  Uiso   1.00
C621   C     0.75255   0.52681   0.83027   0.00000  Uiso   1.00
C622   C     0.74717   0.97323   0.83599   0.00000  Uiso   1.00
C623   C     0.74997   0.74990   0.68848   0.00000  Uiso   1.00
C624   C     0.75003   0.75010   0.97819   0.00000  Uiso   1.00
C625   C     0.54614   0.78954   0.82063   0.00000  Uiso   1.00
C626   C     0.95306   0.71003   0.81932   0.00000  Uiso   1.00
C627   C     0.95281   0.78850   0.85518   0.00000  Uiso   1.00
C628   C     0.83603   0.74989   0.83363   0.00000  Uiso   1.00
C629   C     0.54807   0.71024   0.85348   0.00000  Uiso   1.00
C630   C     0.59210   0.78983   0.81973   0.00000  Uiso   1.00
C631   C     0.90704   0.71007   0.81830   0.00000  Uiso   1.00
C632   C     0.90683   0.78881   0.85348   0.00000  Uiso   1.00
C633   C     0.59401   0.71028   0.85189   0.00000  Uiso   1.00
C634   C     0.61605   0.75009   0.83498   0.00000  Uiso   1.00
C635   C     0.88394   0.74962   0.83501   0.00000  Uiso   1.00
C636   C     0.52410   0.74976   0.83754   0.00000  Uiso   1.00
C637   C     0.97596   0.74928   0.83770   0.00000  Uiso   1.00
C638   C     0.72501   0.60231   0.79834   0.00000  Uiso   1.00
C639   C     0.77424   0.89787   0.86888   0.00000  Uiso   1.00
C640   C     0.78073   0.60221   0.86192   0.00000  Uiso   1.00
C641   C     0.71989   0.89770   0.80384   0.00000  Uiso   1.00
C642   C     0.72913   0.55321   0.79317   0.00000  Uiso   1.00
C643   C     0.77009   0.94702   0.87363   0.00000  Uiso   1.00
C644   C     0.78503   0.55302   0.85766   0.00000  Uiso   1.00
Cl645  Cl    0.68877   0.63274   0.75718   0.00000  Uiso   1.00
Cl646  Cl    0.80966   0.86767   0.91108   0.00000  Uiso   1.00
Cl647  Cl    0.81715   0.63266   0.90283   0.00000  Uiso   1.00
Cl648  Cl    0.68473   0.86723   0.76163   0.00000  Uiso   1.00
Cl649  Cl    0.72097   0.53007   0.73202   0.00000  Uiso   1.00
Cl650  Cl    0.77821   0.97082   0.93451   0.00000  Uiso   1.00
Cl651  Cl    0.83868   0.52906   0.86996   0.00000  Uiso   1.00
Cl652  Cl    0.66138   0.97016   0.79548   0.00000  Uiso   1.00
H653   H     0.52783   0.82003   0.80751   0.00000  Uiso   1.00
H654   H     0.97072   0.67980   0.80503   0.00000  Uiso   1.00
H655   H     0.97028   0.81873   0.87017   0.00000  Uiso   1.00
H656   H     0.53129   0.67956   0.86729   0.00000  Uiso   1.00
H657   H     0.60873   0.82076   0.80644   0.00000  Uiso   1.00
H658   H     0.88960   0.67965   0.80371   0.00000  Uiso   1.00
H659   H     0.88928   0.81938   0.86704   0.00000  Uiso   1.00
H660   H     0.61223   0.67949   0.86436   0.00000  Uiso   1.00
N661   N     0.75000   0.62623   0.83333   0.00000  Uiso   1.00
N662   N     0.75000   0.87376   0.83333   0.00000  Uiso   1.00
O663   O     0.68453   0.78974   0.83334   0.00000  Uiso   1.00
O664   O     0.81547   0.71026   0.83333   0.00000  Uiso   1.00
O665   O     0.81547   0.78974   0.83333   0.00000  Uiso   1.00
O666   O     0.68453   0.71026   0.83334   0.00000  Uiso   1.00
O667   O     0.75000   0.78973   0.76178   0.00000  Uiso   1.00
O668   O     0.75000   0.71027   0.90489   0.00000  Uiso   1.00
O669   O     0.75000   0.78973   0.90489   0.00000  Uiso   1.00
O670   O     0.75000   0.71027   0.76178   0.00000  Uiso   1.00
Zn671  Zn    0.75000   0.80307   0.83333   0.00000  Uiso   1.00
Zn672  Zn    0.75000   0.69693   0.83333   0.00000  Uiso   1.00
loop_
_geom_bond_atom_site_label_1
_geom_bond_atom_site_label_2
_geom_bond_distance
_geom_bond_site_symmetry_2
_ccdc_geom_bond_type
C1     O50     1.291   .     A
C1     C18     1.440   .     S
C1     O47     1.293   .     A
C2     C6      1.420   .     A
C2     C25     1.414   .     A
C2     Cl36    1.771   .     S
C3     C7      1.366   .     S
C3     O54     1.281   .     A
C3     O51     1.279   .     A
C4     O53     1.281   .     A
C4     C8      1.366   .     S
C4     O52     1.279   .     A
C5     C28     1.421   .     A
C5     C26     1.420   .     A
C5     C118    1.549   1_545 S
C6     C27     1.420   .     A
C6     C117    1.549   .     S
C7     C456    1.165   1_554 S
C8     C231    1.165   .     S
C9     C14     1.380   .     A
C9     H37     1.083   .     S
C9     C20     1.400   .     A
C10    H38     1.083   .     S
C10    C21     1.400   .     A
C10    C15     1.381   .     A
C11    H39     1.083   .     S
C11    C16     1.380   .     A
C11    C21     1.399   .     A
C12    C19     1.438   .     S
C12    O48     1.292   .     A
C12    O49     1.292   .     A
C13    C17     1.381   .     A
C13    H40     1.083   .     S
C13    C20     1.399   .     A
C14    C18     1.398   .     A
C14    H41     1.082   .     S
C15    C19     1.399   .     A
C15    H42     1.084   .     S
C16    H43     1.083   .     S
C16    C19     1.399   .     A
C17    C18     1.400   .     A
C17    H44     1.083   .     S
C20    C77     1.445   1_455 S
C21    C76     1.445   .     S
C22    Cl29    1.759   .     S
C22    C26     1.414   .     A
C22    N45     1.369   .     A
C23    C27     1.414   .     A
C23    N46     1.369   .     A
C23    Cl30    1.759   .     S
C24    N45     1.369   .     A
C24    Cl31    1.759   .     S
C24    C28     1.415   .     A
C25    Cl32    1.758   .     S
C25    N46     1.369   .     A
C26    Cl33    1.772   .     S
C27    Cl34    1.772   .     S
C28    Cl35    1.772   .     S
N45    Zn56    2.019   .     S
N46    Zn55    2.019   .     S
O47    Zn55    2.004   .     S
O48    Zn56    2.004   .     S
O49    Zn55    2.000   .     S
O50    Zn56    2.000   .     S
O51    Zn55    1.947   .     S
O52    Zn56    1.947   .     S
O53    Zn55    1.950   .     S
O54    Zn56    1.950   .     S
C57    O106    1.291   .     A
C57    C74     1.440   .     S
C57    O103    1.293   .     A
C58    C62     1.420   .     A
C58    C81     1.414   .     A
C58    Cl92    1.771   .     S
C59    C63     1.366   .     S
C59    O110    1.281   .     A
C59    O107    1.279   .     A
C60    O109    1.281   .     A
C60    C64     1.366   .     S
C60    O108    1.279   .     A
C61    C84     1.421   .     A
C61    C82     1.420   .     A
C61    C174    1.549   1_545 S
C62    C83     1.420   .     A
C62    C173    1.549   .     S
C63    C512    1.165   1_554 S
C64    C287    1.165   .     S
C65    C70     1.380   .     A
C65    H93     1.083   .     S
C65    C76     1.400   .     A
C66    H94     1.083   .     S
C66    C77     1.400   .     A
C66    C71     1.381   .     A
C67    H95     1.083   .     S
C67    C72     1.380   .     A
C67    C77     1.399   .     A
C68    C75     1.438   .     S
C68    O104    1.292   .     A
C68    O105    1.292   .     A
C69    C73     1.381   .     A
C69    H96     1.083   .     S
C69    C76     1.399   .     A
C70    C74     1.398   .     A
C70    H97     1.082   .     S
C71    C75     1.399   .     A
C71    H98     1.084   .     S
C72    H99     1.083   .     S
C72    C75     1.399   .     A
C73    C74     1.400   .     A
C73    H100    1.083   .     S
C77    C20     1.445   1_655 S
C78    Cl85    1.759   .     S
C78    C82     1.414   .     A
C78    N101    1.369   .     A
C79    C83     1.414   .     A
C79    N102    1.369   .     A
C79    Cl86    1.759   .     S
C80    N101    1.369   .     A
C80    Cl87    1.759   .     S
C80    C84     1.415   .     A
C81    Cl88    1.758   .     S
C81    N102    1.369   .     A
C82    Cl89    1.772   .     S
C83    Cl90    1.772   .     S
C84    Cl91    1.772   .     S
N101   Zn112   2.019   .     S
N102   Zn111   2.019   .     S
O103   Zn111   2.004   .     S
O104   Zn112   2.004   .     S
O105   Zn111   2.000   .     S
O106   Zn112   2.000   .     S
O107   Zn111   1.947   .     S
O108   Zn112   1.947   .     S
O109   Zn111   1.950   .     S
O110   Zn112   1.950   .     S
C113   O162    1.291   .     A
C113   C130    1.440   .     S
C113   O159    1.293   .     A
C114   C118    1.420   .     A
C114   C137    1.414   .     A
C114   Cl148   1.771   .     S
C115   C119    1.366   .     S
C115   O166    1.281   .     A
C115   O163    1.279   .     A
C116   O165    1.281   .     A
C116   C120    1.366   .     S
C116   O164    1.279   .     A
C117   C140    1.421   .     A
C117   C138    1.420   .     A
C118   C139    1.420   .     A
C118   C5      1.549   1_565 S
C119   C568    1.165   1_554 S
C120   C343    1.165   .     S
C121   C126    1.380   .     A
C121   H149    1.083   .     S
C121   C132    1.400   .     A
C122   H150    1.083   .     S
C122   C133    1.400   .     A
C122   C127    1.381   .     A
C123   H151    1.083   .     S
C123   C128    1.380   .     A
C123   C133    1.399   .     A
C124   C131    1.438   .     S
C124   O160    1.292   .     A
C124   O161    1.292   .     A
C125   C129    1.381   .     A
C125   H152    1.083   .     S
C125   C132    1.399   .     A
C126   C130    1.398   .     A
C126   H153    1.082   .     S
C127   C131    1.399   .     A
C127   H154    1.084   .     S
C128   H155    1.083   .     S
C128   C131    1.399   .     A
C129   C130    1.400   .     A
C129   H156    1.083   .     S
C132   C189    1.445   1_455 S
C133   C188    1.445   .     S
C134   Cl141   1.759   .     S
C134   C138    1.414   .     A
C134   N157    1.369   .     A
C135   C139    1.414   .     A
C135   N158    1.369   .     A
C135   Cl142   1.759   .     S
C136   N157    1.369   .     A
C136   Cl143   1.759   .     S
C136   C140    1.415   .     A
C137   Cl144   1.758   .     S
C137   N158    1.369   .     A
C138   Cl145   1.772   .     S
C139   Cl146   1.772   .     S
C140   Cl147   1.772   .     S
N157   Zn168   2.019   .     S
N158   Zn167   2.019   .     S
O159   Zn167   2.004   .     S
O160   Zn168   2.004   .     S
O161   Zn167   2.000   .     S
O162   Zn168   2.000   .     S
O163   Zn167   1.947   .     S
O164   Zn168   1.947   .     S
O165   Zn167   1.950   .     S
O166   Zn168   1.950   .     S
C169   O218    1.291   .     A
C169   C186    1.440   .     S
C169   O215    1.293   .     A
C170   C174    1.420   .     A
C170   C193    1.414   .     A
C170   Cl204   1.771   .     S
C171   C175    1.366   .     S
C171   O222    1.281   .     A
C171   O219    1.279   .     A
C172   O221    1.281   .     A
C172   C176    1.366   .     S
C172   O220    1.279   .     A
C173   C196    1.421   .     A
C173   C194    1.420   .     A
C174   C195    1.420   .     A
C174   C61     1.549   1_565 S
C175   C624    1.165   1_554 S
C176   C399    1.165   .     S
C177   C182    1.380   .     A
C177   H205    1.083   .     S
C177   C188    1.400   .     A
C178   H206    1.083   .     S
C178   C189    1.400   .     A
C178   C183    1.381   .     A
C179   H207    1.083   .     S
C179   C184    1.380   .     A
C179   C189    1.399   .     A
C180   C187    1.438   .     S
C180   O216    1.292   .     A
C180   O217    1.292   .     A
C181   C185    1.381   .     A
C181   H208    1.083   .     S
C181   C188    1.399   .     A
C182   C186    1.398   .     A
C182   H209    1.082   .     S
C183   C187    1.399   .     A
C183   H210    1.084   .     S
C184   H211    1.083   .     S
C184   C187    1.399   .     A
C185   C186    1.400   .     A
C185   H212    1.083   .     S
C189   C132    1.445   1_655 S
C190   Cl197   1.759   .     S
C190   C194    1.414   .     A
C190   N213    1.369   .     A
C191   C195    1.414   .     A
C191   N214    1.369   .     A
C191   Cl198   1.759   .     S
C192   N213    1.369   .     A
C192   Cl199   1.759   .     S
C192   C196    1.415   .     A
C193   Cl200   1.758   .     S
C193   N214    1.369   .     A
C194   Cl201   1.772   .     S
C195   Cl202   1.772   .     S
C196   Cl203   1.772   .     S
N213   Zn224   2.019   .     S
N214   Zn223   2.019   .     S
O215   Zn223   2.004   .     S
O216   Zn224   2.004   .     S
O217   Zn223   2.000   .     S
O218   Zn224   2.000   .     S
O219   Zn223   1.947   .     S
O220   Zn224   1.947   .     S
O221   Zn223   1.950   .     S
O222   Zn224   1.950   .     S
C225   O274    1.291   .     A
C225   C242    1.440   .     S
C225   O271    1.293   .     A
C226   C230    1.420   .     A
C226   C249    1.414   .     A
C226   Cl260   1.771   .     S
C227   C231    1.366   .     S
C227   O278    1.281   .     A
C227   O275    1.279   .     A
C228   O277    1.281   .     A
C228   C232    1.366   .     S
C228   O276    1.279   .     A
C229   C252    1.421   .     A
C229   C250    1.420   .     A
C229   C342    1.549   1_545 S
C230   C251    1.420   .     A
C230   C341    1.549   .     S
C232   C455    1.165   .     S
C233   C238    1.380   .     A
C233   H261    1.083   .     S
C233   C244    1.400   .     A
C234   H262    1.083   .     S
C234   C245    1.400   .     A
C234   C239    1.381   .     A
C235   H263    1.083   .     S
C235   C240    1.380   .     A
C235   C245    1.399   .     A
C236   C243    1.438   .     S
C236   O272    1.292   .     A
C236   O273    1.292   .     A
C237   C241    1.381   .     A
C237   H264    1.083   .     S
C237   C244    1.399   .     A
C238   C242    1.398   .     A
C238   H265    1.082   .     S
C239   C243    1.399   .     A
C239   H266    1.084   .     S
C240   H267    1.083   .     S
C240   C243    1.399   .     A
C241   C242    1.400   .     A
C241   H268    1.083   .     S
C244   C301    1.445   1_455 S
C245   C300    1.445   .     S
C246   Cl253   1.759   .     S
C246   C250    1.414   .     A
C246   N269    1.369   .     A
C247   C251    1.414   .     A
C247   N270    1.369   .     A
C247   Cl254   1.759   .     S
C248   N269    1.369   .     A
C248   Cl255   1.759   .     S
C248   C252    1.415   .     A
C249   Cl256   1.758   .     S
C249   N270    1.369   .     A
C250   Cl257   1.772   .     S
C251   Cl258   1.772   .     S
C252   Cl259   1.772   .     S
N269   Zn280   2.019   .     S
N270   Zn279   2.019   .     S
O271   Zn279   2.004   .     S
O272   Zn280   2.004   .     S
O273   Zn279   2.000   .     S
O274   Zn280   2.000   .     S
O275   Zn279   1.947   .     S
O276   Zn280   1.947   .     S
O277   Zn279   1.950   .     S
O278   Zn280   1.950   .     S
C281   O330    1.291   .     A
C281   C298    1.440   .     S
C281   O327    1.293   .     A
C282   C286    1.420   .     A
C282   C305    1.414   .     A
C282   Cl316   1.771   .     S
C283   C287    1.366   .     S
C283   O334    1.281   .     A
C283   O331    1.279   .     A
C284   O333    1.281   .     A
C284   C288    1.366   .     S
C284   O332    1.279   .     A
C285   C308    1.421   .     A
C285   C306    1.420   .     A
C285   C398    1.549   1_545 S
C286   C307    1.420   .     A
C286   C397    1.549   .     S
C288   C511    1.165   .     S
C289   C294    1.380   .     A
C289   H317    1.083   .     S
C289   C300    1.400   .     A
C290   H318    1.083   .     S
C290   C301    1.400   .     A
C290   C295    1.381   .     A
C291   H319    1.083   .     S
C291   C296    1.380   .     A
C291   C301    1.399   .     A
C292   C299    1.438   .     S
C292   O328    1.292   .     A
C292   O329    1.292   .     A
C293   C297    1.381   .     A
C293   H320    1.083   .     S
C293   C300    1.399   .     A
C294   C298    1.398   .     A
C294   H321    1.082   .     S
C295   C299    1.399   .     A
C295   H322    1.084   .     S
C296   H323    1.083   .     S
C296   C299    1.399   .     A
C297   C298    1.400   .     A
C297   H324    1.083   .     S
C301   C244    1.445   1_655 S
C302   Cl309   1.759   .     S
C302   C306    1.414   .     A
C302   N325    1.369   .     A
C303   C307    1.414   .     A
C303   N326    1.369   .     A
C303   Cl310   1.759   .     S
C304   N325    1.369   .     A
C304   Cl311   1.759   .     S
C304   C308    1.415   .     A
C305   Cl312   1.758   .     S
C305   N326    1.369   .     A
C306   Cl313   1.772   .     S
C307   Cl314   1.772   .     S
C308   Cl315   1.772   .     S
N325   Zn336   2.019   .     S
N326   Zn335   2.019   .     S
O327   Zn335   2.004   .     S
O328   Zn336   2.004   .     S
O329   Zn335   2.000   .     S
O330   Zn336   2.000   .     S
O331   Zn335   1.947   .     S
O332   Zn336   1.947   .     S
O333   Zn335   1.950   .     S
O334   Zn336   1.950   .     S
C337   O386    1.291   .     A
C337   C354    1.440   .     S
C337   O383    1.293   .     A
C338   C342    1.420   .     A
C338   C361    1.414   .     A
C338   Cl372   1.771   .     S
C339   C343    1.366   .     S
C339   O390    1.281   .     A
C339   O387    1.279   .     A
C340   O389    1.281   .     A
C340   C344    1.366   .     S
C340   O388    1.279   .     A
C341   C364    1.421   .     A
C341   C362    1.420   .     A
C342   C363    1.420   .     A
C342   C229    1.549   1_565 S
C344   C567    1.165   .     S
C345   C350    1.380   .     A
C345   H373    1.083   .     S
C345   C356    1.400   .     A
C346   H374    1.083   .     S
C346   C357    1.400   .     A
C346   C351    1.381   .     A
C347   H375    1.083   .     S
C347   C352    1.380   .     A
C347   C357    1.399   .     A
C348   C355    1.438   .     S
C348   O384    1.292   .     A
C348   O385    1.292   .     A
C349   C353    1.381   .     A
C349   H376    1.083   .     S
C349   C356    1.399   .     A
C350   C354    1.398   .     A
C350   H377    1.082   .     S
C351   C355    1.399   .     A
C351   H378    1.084   .     S
C352   H379    1.083   .     S
C352   C355    1.399   .     A
C353   C354    1.400   .     A
C353   H380    1.083   .     S
C356   C413    1.445   1_455 S
C357   C412    1.445   .     S
C358   Cl365   1.759   .     S
C358   C362    1.414   .     A
C358   N381    1.369   .     A
C359   C363    1.414   .     A
C359   N382    1.369   .     A
C359   Cl366   1.759   .     S
C360   N381    1.369   .     A
C360   Cl367   1.759   .     S
C360   C364    1.415   .     A
C361   Cl368   1.758   .     S
C361   N382    1.369   .     A
C362   Cl369   1.772   .     S
C363   Cl370   1.772   .     S
C364   Cl371   1.772   .     S
N381   Zn392   2.019   .     S
N382   Zn391   2.019   .     S
O383   Zn391   2.004   .     S
O384   Zn392   2.004   .     S
O385   Zn391   2.000   .     S
O386   Zn392   2.000   .     S
O387   Zn391   1.947   .     S
O388   Zn392   1.947   .     S
O389   Zn391   1.950   .     S
O390   Zn392   1.950   .     S
C393   O442    1.291   .     A
C393   C410    1.440   .     S
C393   O439    1.293   .     A
C394   C398    1.420   .     A
C394   C417    1.414   .     A
C394   Cl428   1.771   .     S
C395   C399    1.366   .     S
C395   O446    1.281   .     A
C395   O443    1.279   .     A
C396   O445    1.281   .     A
C396   C400    1.366   .     S
C396   O444    1.279   .     A
C397   C420    1.421   .     A
C397   C418    1.420   .     A
C398   C419    1.420   .     A
C398   C285    1.549   1_565 S
C400   C623    1.165   .     S
C401   C406    1.380   .     A
C401   H429    1.083   .     S
C401   C412    1.400   .     A
C402   H430    1.083   .     S
C402   C413    1.400   .     A
C402   C407    1.381   .     A
C403   H431    1.083   .     S
C403   C408    1.380   .     A
C403   C413    1.399   .     A
C404   C411    1.438   .     S
C404   O440    1.292   .     A
C404   O441    1.292   .     A
C405   C409    1.381   .     A
C405   H432    1.083   .     S
C405   C412    1.399   .     A
C406   C410    1.398   .     A
C406   H433    1.082   .     S
C407   C411    1.399   .     A
C407   H434    1.084   .     S
C408   H435    1.083   .     S
C408   C411    1.399   .     A
C409   C410    1.400   .     A
C409   H436    1.083   .     S
C413   C356    1.445   1_655 S
C414   Cl421   1.759   .     S
C414   C418    1.414   .     A
C414   N437    1.369   .     A
C415   C419    1.414   .     A
C415   N438    1.369   .     A
C415   Cl422   1.759   .     S
C416   N437    1.369   .     A
C416   Cl423   1.759   .     S
C416   C420    1.415   .     A
C417   Cl424   1.758   .     S
C417   N438    1.369   .     A
C418   Cl425   1.772   .     S
C419   Cl426   1.772   .     S
C420   Cl427   1.772   .     S
N437   Zn448   2.019   .     S
N438   Zn447   2.019   .     S
O439   Zn447   2.004   .     S
O440   Zn448   2.004   .     S
O441   Zn447   2.000   .     S
O442   Zn448   2.000   .     S
O443   Zn447   1.947   .     S
O444   Zn448   1.947   .     S
O445   Zn447   1.950   .     S
O446   Zn448   1.950   .     S
C449   O498    1.291   .     A
C449   C466    1.440   .     S
C449   O495    1.293   .     A
C450   C454    1.420   .     A
C450   C473    1.414   .     A
C450   Cl484   1.771   .     S
C451   C455    1.366   .     S
C451   O502    1.281   .     A
C451   O499    1.279   .     A
C452   O501    1.281   .     A
C452   C456    1.366   .     S
C452   O500    1.279   .     A
C453   C476    1.421   .     A
C453   C474    1.420   .     A
C453   C566    1.549   1_545 S
C454   C475    1.420   .     A
C454   C565    1.549   .     S
C456   C7      1.165   1_556 S
C457   C462    1.380   .     A
C457   H485    1.083   .     S
C457   C468    1.400   .     A
C458   H486    1.083   .     S
C458   C469    1.400   .     A
C458   C463    1.381   .     A
C459   H487    1.083   .     S
C459   C464    1.380   .     A
C459   C469    1.399   .     A
C460   C467    1.438   .     S
C460   O496    1.292   .     A
C460   O497    1.292   .     A
C461   C465    1.381   .     A
C461   H488    1.083   .     S
C461   C468    1.399   .     A
C462   C466    1.398   .     A
C462   H489    1.082   .     S
C463   C467    1.399   .     A
C463   H490    1.084   .     S
C464   H491    1.083   .     S
C464   C467    1.399   .     A
C465   C466    1.400   .     A
C465   H492    1.083   .     S
C468   C525    1.445   1_455 S
C469   C524    1.445   .     S
C470   Cl477   1.759   .     S
C470   C474    1.414   .     A
C470   N493    1.369   .     A
C471   C475    1.414   .     A
C471   N494    1.369   .     A
C471   Cl478   1.759   .     S
C472   N493    1.369   .     A
C472   Cl479   1.759   .     S
C472   C476    1.415   .     A
C473   Cl480   1.758   .     S
C473   N494    1.369   .     A
C474   Cl481   1.772   .     S
C475   Cl482   1.772   .     S
C476   Cl483   1.772   .     S
N493   Zn504   2.019   .     S
N494   Zn503   2.019   .     S
O495   Zn503   2.004   .     S
O496   Zn504   2.004   .     S
O497   Zn503   2.000   .     S
O498   Zn504   2.000   .     S
O499   Zn503   1.947   .     S
O500   Zn504   1.947   .     S
O501   Zn503   1.950   .     S
O502   Zn504   1.950   .     S
C505   O554    1.291   .     A
C505   C522    1.440   .     S
C505   O551    1.293   .     A
C506   C510    1.420   .     A
C506   C529    1.414   .     A
C506   Cl540   1.771   .     S
C507   C511    1.366   .     S
C507   O558    1.281   .     A
C507   O555    1.279   .     A
C508   O557    1.281   .     A
C508   C512    1.366   .     S
C508   O556    1.279   .     A
C509   C532    1.421   .     A
C509   C530    1.420   .     A
C509   C622    1.549   1_545 S
C510   C531    1.420   .     A
C510   C621    1.549   .     S
C512   C63     1.165   1_556 S
C513   C518    1.380   .     A
C513   H541    1.083   .     S
C513   C524    1.400   .     A
C514   H542    1.083   .     S
C514   C525    1.400   .     A
C514   C519    1.381   .     A
C515   H543    1.083   .     S
C515   C520    1.380   .     A
C515   C525    1.399   .     A
C516   C523    1.438   .     S
C516   O552    1.292   .     A
C516   O553    1.292   .     A
C517   C521    1.381   .     A
C517   H544    1.083   .     S
C517   C524    1.399   .     A
C518   C522    1.398   .     A
C518   H545    1.082   .     S
C519   C523    1.399   .     A
C519   H546    1.084   .     S
C520   H547    1.083   .     S
C520   C523    1.399   .     A
C521   C522    1.400   .     A
C521   H548    1.083   .     S
C525   C468    1.445   1_655 S
C526   Cl533   1.759   .     S
C526   C530    1.414   .     A
C526   N549    1.369   .     A
C527   C531    1.414   .     A
C527   N550    1.369   .     A
C527   Cl534   1.759   .     S
C528   N549    1.369   .     A
C528   Cl535   1.759   .     S
C528   C532    1.415   .     A
C529   Cl536   1.758   .     S
C529   N550    1.369   .     A
C530   Cl537   1.772   .     S
C531   Cl538   1.772   .     S
C532   Cl539   1.772   .     S
N549   Zn560   2.019   .     S
N550   Zn559   2.019   .     S
O551   Zn559   2.004   .     S
O552   Zn560   2.004   .     S
O553   Zn559   2.000   .     S
O554   Zn560   2.000   .     S
O555   Zn559   1.947   .     S
O556   Zn560   1.947   .     S
O557   Zn559   1.950   .     S
O558   Zn560   1.950   .     S
C561   O610    1.291   .     A
C561   C578    1.440   .     S
C561   O607    1.293   .     A
C562   C566    1.420   .     A
C562   C585    1.414   .     A
C562   Cl596   1.771   .     S
C563   C567    1.366   .     S
C563   O614    1.281   .     A
C563   O611    1.279   .     A
C564   O613    1.281   .     A
C564   C568    1.366   .     S
C564   O612    1.279   .     A
C565   C588    1.421   .     A
C565   C586    1.420   .     A
C566   C587    1.420   .     A
C566   C453    1.549   1_565 S
C568   C119    1.165   1_556 S
C569   C574    1.380   .     A
C569   H597    1.083   .     S
C569   C580    1.400   .     A
C570   H598    1.083   .     S
C570   C581    1.400   .     A
C570   C575    1.381   .     A
C571   H599    1.083   .     S
C571   C576    1.380   .     A
C571   C581    1.399   .     A
C572   C579    1.438   .     S
C572   O608    1.292   .     A
C572   O609    1.292   .     A
C573   C577    1.381   .     A
C573   H600    1.083   .     S
C573   C580    1.399   .     A
C574   C578    1.398   .     A
C574   H601    1.082   .     S
C575   C579    1.399   .     A
C575   H602    1.084   .     S
C576   H603    1.083   .     S
C576   C579    1.399   .     A
C577   C578    1.400   .     A
C577   H604    1.083   .     S
C580   C637    1.445   1_455 S
C581   C636    1.445   .     S
C582   Cl589   1.759   .     S
C582   C586    1.414   .     A
C582   N605    1.369   .     A
C583   C587    1.414   .     A
C583   N606    1.369   .     A
C583   Cl590   1.759   .     S
C584   N605    1.369   .     A
C584   Cl591   1.759   .     S
C584   C588    1.415   .     A
C585   Cl592   1.758   .     S
C585   N606    1.369   .     A
C586   Cl593   1.772   .     S
C587   Cl594   1.772   .     S
C588   Cl595   1.772   .     S
N605   Zn616   2.019   .     S
N606   Zn615   2.019   .     S
O607   Zn615   2.004   .     S
O608   Zn616   2.004   .     S
O609   Zn615   2.000   .     S
O610   Zn616   2.000   .     S
O611   Zn615   1.947   .     S
O612   Zn616   1.947   .     S
O613   Zn615   1.950   .     S
O614   Zn616   1.950   .     S
C617   O666    1.291   .     A
C617   C634    1.440   .     S
C617   O663    1.293   .     A
C618   C622    1.420   .     A
C618   C641    1.414   .     A
C618   Cl652   1.771   .     S
C619   C623    1.366   .     S
C619   O670    1.281   .     A
C619   O667    1.279   .     A
C620   O669    1.281   .     A
C620   C624    1.366   .     S
C620   O668    1.279   .     A
C621   C644    1.421   .     A
C621   C642    1.420   .     A
C622   C643    1.420   .     A
C622   C509    1.549   1_565 S
C624   C175    1.165   1_556 S
C625   C630    1.380   .     A
C625   H653    1.083   .     S
C625   C636    1.400   .     A
C626   H654    1.083   .     S
C626   C637    1.400   .     A
C626   C631    1.381   .     A
C627   H655    1.083   .     S
C627   C632    1.380   .     A
C627   C637    1.399   .     A
C628   C635    1.438   .     S
C628   O664    1.292   .     A
C628   O665    1.292   .     A
C629   C633    1.381   .     A
C629   H656    1.083   .     S
C629   C636    1.399   .     A
C630   C634    1.398   .     A
C630   H657    1.082   .     S
C631   C635    1.399   .     A
C631   H658    1.084   .     S
C632   H659    1.083   .     S
C632   C635    1.399   .     A
C633   C634    1.400   .     A
C633   H660    1.083   .     S
C637   C580    1.445   1_655 S
C638   Cl645   1.759   .     S
C638   C642    1.414   .     A
C638   N661    1.369   .     A
C639   C643    1.414   .     A
C639   N662    1.369   .     A
C639   Cl646   1.759   .     S
C640   N661    1.369   .     A
C640   Cl647   1.759   .     S
C640   C644    1.415   .     A
C641   Cl648   1.758   .     S
C641   N662    1.369   .     A
C642   Cl649   1.772   .     S
C643   Cl650   1.772   .     S
C644   Cl651   1.772   .     S
N661   Zn672   2.019   .     S
N662   Zn671   2.019   .     S
O663   Zn671   2.004   .     S
O664   Zn672   2.004   .     S
O665   Zn671   2.000   .     S
O666   Zn672   2.000   .     S
O667   Zn671   1.947   .     S
O668   Zn672   1.947   .     S
O669   Zn671   1.950   .     S
O670   Zn672   1.950   .     S
