data_str_m3_o10_o17_pcu_sym.110
_audit_creation_date              2020-01-03
_audit_creation_method            'Materials Studio'
_symmetry_space_group_name_H-M    'P1'
_symmetry_Int_Tables_number       1
_symmetry_cell_setting            triclinic
loop_
_symmetry_equiv_pos_as_xyz
  x,y,z
_cell_length_a                    23.5116
_cell_length_b                    26.0309
_cell_length_c                    29.9793
_cell_angle_alpha                 93.6350
_cell_angle_beta                  85.9752
_cell_angle_gamma                 93.8256
loop_
_atom_site_label
_atom_site_type_symbol
_atom_site_fract_x
_atom_site_fract_y
_atom_site_fract_z
_atom_site_U_iso_or_equiv
_atom_site_adp_type
_atom_site_occupancy
Br1    Br    0.27984   0.30174   0.04698   0.00000  Uiso   1.00
Br2    Br    0.05350   0.03159   0.45302   0.00000  Uiso   1.00
Br3    Br    0.26021   0.01052   0.27943   0.00000  Uiso   1.00
Br4    Br    0.07312   0.32282   0.22058   0.00000  Uiso   1.00
C5     C     0.18159   0.26469   0.24877   0.00000  Uiso   1.00
C6     C     0.19090   0.21046   0.40805   0.00000  Uiso   1.00
C7     C     0.16560   0.16607   0.11611   0.00000  Uiso   1.00
C8     C     0.16774   0.16726   0.38389   0.00000  Uiso   1.00
C9     C     0.19310   0.20848   0.09504   0.00000  Uiso   1.00
C10    C     0.14023   0.12486   0.40496   0.00000  Uiso   1.00
C11    C     0.19716   0.20808   0.04783   0.00000  Uiso   1.00
C12    C     0.13618   0.12525   0.45218   0.00000  Uiso   1.00
C13    C     0.16725   0.16685   0.02349   0.00000  Uiso   1.00
C14    C     0.16609   0.16649   0.47651   0.00000  Uiso   1.00
C15    C     0.13869   0.12554   0.04595   0.00000  Uiso   1.00
C16    C     0.15174   0.06864   0.25123   0.00000  Uiso   1.00
C17    C     0.19464   0.20779   0.45405   0.00000  Uiso   1.00
C18    C     0.22922   0.24665   0.02356   0.00000  Uiso   1.00
C19    C     0.10412   0.08668   0.47644   0.00000  Uiso   1.00
C20    C     0.12719   0.07327   0.11384   0.00000  Uiso   1.00
C21    C     0.20615   0.26007   0.38616   0.00000  Uiso   1.00
C22    C     0.21553   0.25230   0.12413   0.00000  Uiso   1.00
C23    C     0.11780   0.08103   0.37587   0.00000  Uiso   1.00
C24    C     0.33323   0.15080   0.19149   0.00000  Uiso   1.00
C25    C     0.00010   0.18253   0.30851   0.00000  Uiso   1.00
C26    C     0.22769   0.24552   0.47761   0.00000  Uiso   1.00
C27    C     0.10564   0.08781   0.02239   0.00000  Uiso   1.00
C28    C     0.18885   0.31898   0.25369   0.00000  Uiso   1.00
C29    C     0.14448   0.01436   0.24631   0.00000  Uiso   1.00
C30    C     0.16739   0.16791   0.33618   0.00000  Uiso   1.00
C31    C     0.16595   0.16542   0.16382   0.00000  Uiso   1.00
C32    C     0.14243   0.12287   0.09195   0.00000  Uiso   1.00
H33    H     0.25378   0.27468   0.46005   0.00000  Uiso   1.00
H34    H     0.07955   0.05865   0.03995   0.00000  Uiso   1.00
H35    H     0.17351   0.03103   0.06728   0.00000  Uiso   1.00
H36    H     0.15983   0.30230   0.43272   0.00000  Uiso   1.00
H37    H     0.28125   0.28423   0.15821   0.00000  Uiso   1.00
H38    H     0.05208   0.04910   0.34179   0.00000  Uiso   1.00
H39    H     0.33115   0.10919   0.13255   0.00000  Uiso   1.00
H40    H     0.00218   0.22415   0.36745   0.00000  Uiso   1.00
N41    N     0.31678   0.15265   0.23783   0.00000  Uiso   1.00
N42    N     0.01656   0.18068   0.26217   0.00000  Uiso   1.00
O43    O     0.12975   0.24619   0.25299   0.00000  Uiso   1.00
O44    O     0.14562   0.02660   0.09428   0.00000  Uiso   1.00
O45    O     0.23491   0.26050   0.35079   0.00000  Uiso   1.00
O46    O     0.18771   0.30673   0.40572   0.00000  Uiso   1.00
O47    O     0.18355   0.28496   0.13960   0.00000  Uiso   1.00
O48    O     0.27161   0.25349   0.13697   0.00000  Uiso   1.00
O49    O     0.14979   0.04837   0.36040   0.00000  Uiso   1.00
O50    O     0.06172   0.07985   0.36303   0.00000  Uiso   1.00
O51    O     0.01598   0.19041   0.17322   0.00000  Uiso   1.00
O52    O     0.32249   0.10501   0.16579   0.00000  Uiso   1.00
O53    O     0.31735   0.14292   0.32678   0.00000  Uiso   1.00
O54    O     0.20358   0.08714   0.24702   0.00000  Uiso   1.00
O55    O     0.01084   0.22832   0.33421   0.00000  Uiso   1.00
O56    O     0.22613   0.23721   0.24519   0.00000  Uiso   1.00
O57    O     0.10720   0.09613   0.25482   0.00000  Uiso   1.00
O58    O     0.11847   0.17117   0.31998   0.00000  Uiso   1.00
O59    O     0.21486   0.16216   0.18003   0.00000  Uiso   1.00
O60    O     0.21485   0.16219   0.31218   0.00000  Uiso   1.00
O61    O     0.11848   0.17115   0.18783   0.00000  Uiso   1.00
O62    O     0.09843   0.07284   0.14921   0.00000  Uiso   1.00
Zn63   Zn    0.10231   0.17266   0.25521   0.00000  Uiso   1.00
Zn64   Zn    0.23102   0.16067   0.24479   0.00000  Uiso   1.00
Br65   Br    0.61317   0.30174   0.04698   0.00000  Uiso   1.00
Br66   Br    0.38683   0.03159   0.45302   0.00000  Uiso   1.00
Br67   Br    0.59354   0.01052   0.27943   0.00000  Uiso   1.00
Br68   Br    0.40646   0.32282   0.22058   0.00000  Uiso   1.00
C69    C     0.51492   0.26469   0.24877   0.00000  Uiso   1.00
C70    C     0.52423   0.21046   0.40805   0.00000  Uiso   1.00
C71    C     0.49893   0.16607   0.11611   0.00000  Uiso   1.00
C72    C     0.50107   0.16726   0.38389   0.00000  Uiso   1.00
C73    C     0.52644   0.20848   0.09504   0.00000  Uiso   1.00
C74    C     0.47356   0.12486   0.40496   0.00000  Uiso   1.00
C75    C     0.53049   0.20808   0.04783   0.00000  Uiso   1.00
C76    C     0.46951   0.12525   0.45218   0.00000  Uiso   1.00
C77    C     0.50058   0.16685   0.02349   0.00000  Uiso   1.00
C78    C     0.49942   0.16649   0.47651   0.00000  Uiso   1.00
C79    C     0.47202   0.12554   0.04595   0.00000  Uiso   1.00
C80    C     0.48508   0.06864   0.25123   0.00000  Uiso   1.00
C81    C     0.52798   0.20779   0.45405   0.00000  Uiso   1.00
C82    C     0.56255   0.24665   0.02356   0.00000  Uiso   1.00
C83    C     0.43745   0.08668   0.47644   0.00000  Uiso   1.00
C84    C     0.46052   0.07327   0.11384   0.00000  Uiso   1.00
C85    C     0.53948   0.26007   0.38616   0.00000  Uiso   1.00
C86    C     0.54886   0.25230   0.12413   0.00000  Uiso   1.00
C87    C     0.45114   0.08103   0.37587   0.00000  Uiso   1.00
C88    C     0.66657   0.15080   0.19149   0.00000  Uiso   1.00
C89    C     0.33343   0.18253   0.30851   0.00000  Uiso   1.00
C90    C     0.56102   0.24552   0.47761   0.00000  Uiso   1.00
C91    C     0.43898   0.08781   0.02239   0.00000  Uiso   1.00
C92    C     0.52218   0.31898   0.25369   0.00000  Uiso   1.00
C93    C     0.47782   0.01436   0.24631   0.00000  Uiso   1.00
C94    C     0.50072   0.16791   0.33618   0.00000  Uiso   1.00
C95    C     0.49928   0.16542   0.16382   0.00000  Uiso   1.00
C96    C     0.47577   0.12287   0.09195   0.00000  Uiso   1.00
H97    H     0.58712   0.27468   0.46005   0.00000  Uiso   1.00
H98    H     0.41289   0.05865   0.03995   0.00000  Uiso   1.00
H99    H     0.50684   0.03103   0.06728   0.00000  Uiso   1.00
H100   H     0.49316   0.30230   0.43272   0.00000  Uiso   1.00
H101   H     0.61459   0.28423   0.15821   0.00000  Uiso   1.00
H102   H     0.38541   0.04910   0.34179   0.00000  Uiso   1.00
H103   H     0.66449   0.10919   0.13255   0.00000  Uiso   1.00
H104   H     0.33551   0.22415   0.36745   0.00000  Uiso   1.00
N105   N     0.65011   0.15265   0.23783   0.00000  Uiso   1.00
N106   N     0.34989   0.18068   0.26217   0.00000  Uiso   1.00
O107   O     0.46308   0.24619   0.25299   0.00000  Uiso   1.00
O108   O     0.47896   0.02660   0.09428   0.00000  Uiso   1.00
O109   O     0.56824   0.26050   0.35079   0.00000  Uiso   1.00
O110   O     0.52104   0.30673   0.40572   0.00000  Uiso   1.00
O111   O     0.51688   0.28496   0.13960   0.00000  Uiso   1.00
O112   O     0.60495   0.25349   0.13697   0.00000  Uiso   1.00
O113   O     0.48312   0.04837   0.36040   0.00000  Uiso   1.00
O114   O     0.39505   0.07985   0.36303   0.00000  Uiso   1.00
O115   O     0.34932   0.19041   0.17322   0.00000  Uiso   1.00
O116   O     0.65583   0.10501   0.16579   0.00000  Uiso   1.00
O117   O     0.65068   0.14292   0.32678   0.00000  Uiso   1.00
O118   O     0.53692   0.08714   0.24702   0.00000  Uiso   1.00
O119   O     0.34417   0.22832   0.33421   0.00000  Uiso   1.00
O120   O     0.55946   0.23721   0.24519   0.00000  Uiso   1.00
O121   O     0.44054   0.09613   0.25482   0.00000  Uiso   1.00
O122   O     0.45181   0.17117   0.31998   0.00000  Uiso   1.00
O123   O     0.54819   0.16216   0.18003   0.00000  Uiso   1.00
O124   O     0.54819   0.16219   0.31218   0.00000  Uiso   1.00
O125   O     0.45181   0.17115   0.18783   0.00000  Uiso   1.00
O126   O     0.43176   0.07284   0.14921   0.00000  Uiso   1.00
Zn127  Zn    0.43565   0.17266   0.25521   0.00000  Uiso   1.00
Zn128  Zn    0.56435   0.16067   0.24479   0.00000  Uiso   1.00
Br129  Br    0.94650   0.30174   0.04698   0.00000  Uiso   1.00
Br130  Br    0.72016   0.03159   0.45302   0.00000  Uiso   1.00
Br131  Br    0.92688   0.01052   0.27943   0.00000  Uiso   1.00
Br132  Br    0.73979   0.32282   0.22058   0.00000  Uiso   1.00
C133   C     0.84826   0.26469   0.24877   0.00000  Uiso   1.00
C134   C     0.85757   0.21046   0.40805   0.00000  Uiso   1.00
C135   C     0.83226   0.16607   0.11611   0.00000  Uiso   1.00
C136   C     0.83441   0.16726   0.38389   0.00000  Uiso   1.00
C137   C     0.85977   0.20848   0.09504   0.00000  Uiso   1.00
C138   C     0.80690   0.12486   0.40496   0.00000  Uiso   1.00
C139   C     0.86382   0.20808   0.04783   0.00000  Uiso   1.00
C140   C     0.80284   0.12525   0.45218   0.00000  Uiso   1.00
C141   C     0.83392   0.16685   0.02349   0.00000  Uiso   1.00
C142   C     0.83275   0.16649   0.47651   0.00000  Uiso   1.00
C143   C     0.80536   0.12554   0.04595   0.00000  Uiso   1.00
C144   C     0.81841   0.06864   0.25123   0.00000  Uiso   1.00
C145   C     0.86131   0.20779   0.45405   0.00000  Uiso   1.00
C146   C     0.89588   0.24665   0.02356   0.00000  Uiso   1.00
C147   C     0.77078   0.08668   0.47644   0.00000  Uiso   1.00
C148   C     0.79385   0.07327   0.11384   0.00000  Uiso   1.00
C149   C     0.87281   0.26007   0.38616   0.00000  Uiso   1.00
C150   C     0.88220   0.25230   0.12413   0.00000  Uiso   1.00
C151   C     0.78447   0.08103   0.37587   0.00000  Uiso   1.00
C152   C     0.99990   0.15080   0.19149   0.00000  Uiso   1.00
C153   C     0.66677   0.18253   0.30851   0.00000  Uiso   1.00
C154   C     0.89436   0.24552   0.47761   0.00000  Uiso   1.00
C155   C     0.77231   0.08781   0.02239   0.00000  Uiso   1.00
C156   C     0.85552   0.31898   0.25369   0.00000  Uiso   1.00
C157   C     0.81115   0.01436   0.24631   0.00000  Uiso   1.00
C158   C     0.83405   0.16791   0.33618   0.00000  Uiso   1.00
C159   C     0.83261   0.16542   0.16382   0.00000  Uiso   1.00
C160   C     0.80910   0.12287   0.09195   0.00000  Uiso   1.00
H161   H     0.92045   0.27468   0.46005   0.00000  Uiso   1.00
H162   H     0.74622   0.05865   0.03995   0.00000  Uiso   1.00
H163   H     0.84017   0.03103   0.06728   0.00000  Uiso   1.00
H164   H     0.82649   0.30230   0.43272   0.00000  Uiso   1.00
H165   H     0.94792   0.28423   0.15821   0.00000  Uiso   1.00
H166   H     0.71875   0.04910   0.34179   0.00000  Uiso   1.00
H167   H     0.99782   0.10919   0.13255   0.00000  Uiso   1.00
H168   H     0.66885   0.22415   0.36745   0.00000  Uiso   1.00
N169   N     0.98344   0.15265   0.23783   0.00000  Uiso   1.00
N170   N     0.68322   0.18068   0.26217   0.00000  Uiso   1.00
O171   O     0.79642   0.24619   0.25299   0.00000  Uiso   1.00
O172   O     0.81229   0.02660   0.09428   0.00000  Uiso   1.00
O173   O     0.90157   0.26050   0.35079   0.00000  Uiso   1.00
O174   O     0.85438   0.30673   0.40572   0.00000  Uiso   1.00
O175   O     0.85021   0.28496   0.13960   0.00000  Uiso   1.00
O176   O     0.93828   0.25349   0.13697   0.00000  Uiso   1.00
O177   O     0.81645   0.04837   0.36040   0.00000  Uiso   1.00
O178   O     0.72839   0.07985   0.36303   0.00000  Uiso   1.00
O179   O     0.68265   0.19041   0.17322   0.00000  Uiso   1.00
O180   O     0.98916   0.10501   0.16579   0.00000  Uiso   1.00
O181   O     0.98402   0.14292   0.32678   0.00000  Uiso   1.00
O182   O     0.87025   0.08714   0.24702   0.00000  Uiso   1.00
O183   O     0.67751   0.22832   0.33421   0.00000  Uiso   1.00
O184   O     0.89280   0.23721   0.24519   0.00000  Uiso   1.00
O185   O     0.77387   0.09613   0.25482   0.00000  Uiso   1.00
O186   O     0.78514   0.17117   0.31998   0.00000  Uiso   1.00
O187   O     0.88153   0.16216   0.18003   0.00000  Uiso   1.00
O188   O     0.88152   0.16219   0.31218   0.00000  Uiso   1.00
O189   O     0.78515   0.17115   0.18783   0.00000  Uiso   1.00
O190   O     0.76509   0.07284   0.14921   0.00000  Uiso   1.00
Zn191  Zn    0.76898   0.17266   0.25521   0.00000  Uiso   1.00
Zn192  Zn    0.89769   0.16067   0.24479   0.00000  Uiso   1.00
Br193  Br    0.27984   0.63507   0.04698   0.00000  Uiso   1.00
Br194  Br    0.05350   0.36493   0.45302   0.00000  Uiso   1.00
Br195  Br    0.26021   0.34385   0.27943   0.00000  Uiso   1.00
Br196  Br    0.07312   0.65615   0.22058   0.00000  Uiso   1.00
C197   C     0.18159   0.59803   0.24877   0.00000  Uiso   1.00
C198   C     0.19090   0.54379   0.40805   0.00000  Uiso   1.00
C199   C     0.16560   0.49940   0.11611   0.00000  Uiso   1.00
C200   C     0.16774   0.50060   0.38389   0.00000  Uiso   1.00
C201   C     0.19310   0.54181   0.09504   0.00000  Uiso   1.00
C202   C     0.14023   0.45819   0.40496   0.00000  Uiso   1.00
C203   C     0.19716   0.54142   0.04783   0.00000  Uiso   1.00
C204   C     0.13618   0.45858   0.45218   0.00000  Uiso   1.00
C205   C     0.16725   0.50018   0.02349   0.00000  Uiso   1.00
C206   C     0.16609   0.49982   0.47651   0.00000  Uiso   1.00
C207   C     0.13869   0.45887   0.04595   0.00000  Uiso   1.00
C208   C     0.15174   0.40197   0.25123   0.00000  Uiso   1.00
C209   C     0.19464   0.54113   0.45405   0.00000  Uiso   1.00
C210   C     0.22922   0.57998   0.02356   0.00000  Uiso   1.00
C211   C     0.10412   0.42002   0.47644   0.00000  Uiso   1.00
C212   C     0.12719   0.40660   0.11384   0.00000  Uiso   1.00
C213   C     0.20615   0.59340   0.38616   0.00000  Uiso   1.00
C214   C     0.21553   0.58563   0.12413   0.00000  Uiso   1.00
C215   C     0.11780   0.41437   0.37587   0.00000  Uiso   1.00
C216   C     0.33323   0.48414   0.19149   0.00000  Uiso   1.00
C217   C     0.00010   0.51586   0.30851   0.00000  Uiso   1.00
C218   C     0.22769   0.57886   0.47761   0.00000  Uiso   1.00
C219   C     0.10564   0.42114   0.02239   0.00000  Uiso   1.00
C220   C     0.18885   0.65231   0.25369   0.00000  Uiso   1.00
C221   C     0.14448   0.34769   0.24631   0.00000  Uiso   1.00
C222   C     0.16739   0.50125   0.33618   0.00000  Uiso   1.00
C223   C     0.16595   0.49875   0.16382   0.00000  Uiso   1.00
C224   C     0.14243   0.45621   0.09195   0.00000  Uiso   1.00
H225   H     0.25378   0.60802   0.46005   0.00000  Uiso   1.00
H226   H     0.07955   0.39198   0.03995   0.00000  Uiso   1.00
H227   H     0.17351   0.36436   0.06728   0.00000  Uiso   1.00
H228   H     0.15983   0.63564   0.43272   0.00000  Uiso   1.00
H229   H     0.28125   0.61756   0.15821   0.00000  Uiso   1.00
H230   H     0.05208   0.38244   0.34179   0.00000  Uiso   1.00
H231   H     0.33115   0.44252   0.13255   0.00000  Uiso   1.00
H232   H     0.00218   0.55748   0.36745   0.00000  Uiso   1.00
N233   N     0.31678   0.48598   0.23783   0.00000  Uiso   1.00
N234   N     0.01656   0.51402   0.26217   0.00000  Uiso   1.00
O235   O     0.12975   0.57952   0.25299   0.00000  Uiso   1.00
O236   O     0.14562   0.35993   0.09428   0.00000  Uiso   1.00
O237   O     0.23491   0.59383   0.35079   0.00000  Uiso   1.00
O238   O     0.18771   0.64007   0.40572   0.00000  Uiso   1.00
O239   O     0.18355   0.61829   0.13960   0.00000  Uiso   1.00
O240   O     0.27161   0.58682   0.13697   0.00000  Uiso   1.00
O241   O     0.14979   0.38171   0.36040   0.00000  Uiso   1.00
O242   O     0.06172   0.41318   0.36303   0.00000  Uiso   1.00
O243   O     0.01598   0.52375   0.17322   0.00000  Uiso   1.00
O244   O     0.32249   0.43835   0.16579   0.00000  Uiso   1.00
O245   O     0.31735   0.47625   0.32678   0.00000  Uiso   1.00
O246   O     0.20358   0.42048   0.24702   0.00000  Uiso   1.00
O247   O     0.01084   0.56165   0.33421   0.00000  Uiso   1.00
O248   O     0.22613   0.57054   0.24519   0.00000  Uiso   1.00
O249   O     0.10720   0.42946   0.25482   0.00000  Uiso   1.00
O250   O     0.11847   0.50450   0.31998   0.00000  Uiso   1.00
O251   O     0.21486   0.49550   0.18003   0.00000  Uiso   1.00
O252   O     0.21485   0.49552   0.31218   0.00000  Uiso   1.00
O253   O     0.11848   0.50448   0.18783   0.00000  Uiso   1.00
O254   O     0.09843   0.40617   0.14921   0.00000  Uiso   1.00
Zn255  Zn    0.10231   0.50600   0.25521   0.00000  Uiso   1.00
Zn256  Zn    0.23102   0.49400   0.24479   0.00000  Uiso   1.00
Br257  Br    0.61317   0.63507   0.04698   0.00000  Uiso   1.00
Br258  Br    0.38683   0.36493   0.45302   0.00000  Uiso   1.00
Br259  Br    0.59354   0.34385   0.27943   0.00000  Uiso   1.00
Br260  Br    0.40646   0.65615   0.22058   0.00000  Uiso   1.00
C261   C     0.51492   0.59803   0.24877   0.00000  Uiso   1.00
C262   C     0.52423   0.54379   0.40805   0.00000  Uiso   1.00
C263   C     0.49893   0.49940   0.11611   0.00000  Uiso   1.00
C264   C     0.50107   0.50060   0.38389   0.00000  Uiso   1.00
C265   C     0.52644   0.54181   0.09504   0.00000  Uiso   1.00
C266   C     0.47356   0.45819   0.40496   0.00000  Uiso   1.00
C267   C     0.53049   0.54142   0.04783   0.00000  Uiso   1.00
C268   C     0.46951   0.45858   0.45218   0.00000  Uiso   1.00
C269   C     0.50058   0.50018   0.02349   0.00000  Uiso   1.00
C270   C     0.49942   0.49982   0.47651   0.00000  Uiso   1.00
C271   C     0.47202   0.45887   0.04595   0.00000  Uiso   1.00
C272   C     0.48508   0.40197   0.25123   0.00000  Uiso   1.00
C273   C     0.52798   0.54113   0.45405   0.00000  Uiso   1.00
C274   C     0.56255   0.57998   0.02356   0.00000  Uiso   1.00
C275   C     0.43745   0.42002   0.47644   0.00000  Uiso   1.00
C276   C     0.46052   0.40660   0.11384   0.00000  Uiso   1.00
C277   C     0.53948   0.59340   0.38616   0.00000  Uiso   1.00
C278   C     0.54886   0.58563   0.12413   0.00000  Uiso   1.00
C279   C     0.45114   0.41437   0.37587   0.00000  Uiso   1.00
C280   C     0.66657   0.48414   0.19149   0.00000  Uiso   1.00
C281   C     0.33343   0.51586   0.30851   0.00000  Uiso   1.00
C282   C     0.56102   0.57886   0.47761   0.00000  Uiso   1.00
C283   C     0.43898   0.42114   0.02239   0.00000  Uiso   1.00
C284   C     0.52218   0.65231   0.25369   0.00000  Uiso   1.00
C285   C     0.47782   0.34769   0.24631   0.00000  Uiso   1.00
C286   C     0.50072   0.50125   0.33618   0.00000  Uiso   1.00
C287   C     0.49928   0.49875   0.16382   0.00000  Uiso   1.00
C288   C     0.47577   0.45621   0.09195   0.00000  Uiso   1.00
H289   H     0.58712   0.60802   0.46005   0.00000  Uiso   1.00
H290   H     0.41289   0.39198   0.03995   0.00000  Uiso   1.00
H291   H     0.50684   0.36436   0.06728   0.00000  Uiso   1.00
H292   H     0.49316   0.63564   0.43272   0.00000  Uiso   1.00
H293   H     0.61459   0.61756   0.15821   0.00000  Uiso   1.00
H294   H     0.38541   0.38244   0.34179   0.00000  Uiso   1.00
H295   H     0.66449   0.44252   0.13255   0.00000  Uiso   1.00
H296   H     0.33551   0.55748   0.36745   0.00000  Uiso   1.00
N297   N     0.65011   0.48598   0.23783   0.00000  Uiso   1.00
N298   N     0.34989   0.51402   0.26217   0.00000  Uiso   1.00
O299   O     0.46308   0.57952   0.25299   0.00000  Uiso   1.00
O300   O     0.47896   0.35993   0.09428   0.00000  Uiso   1.00
O301   O     0.56824   0.59383   0.35079   0.00000  Uiso   1.00
O302   O     0.52104   0.64007   0.40572   0.00000  Uiso   1.00
O303   O     0.51688   0.61829   0.13960   0.00000  Uiso   1.00
O304   O     0.60495   0.58682   0.13697   0.00000  Uiso   1.00
O305   O     0.48312   0.38171   0.36040   0.00000  Uiso   1.00
O306   O     0.39505   0.41318   0.36303   0.00000  Uiso   1.00
O307   O     0.34932   0.52375   0.17322   0.00000  Uiso   1.00
O308   O     0.65583   0.43835   0.16579   0.00000  Uiso   1.00
O309   O     0.65068   0.47625   0.32678   0.00000  Uiso   1.00
O310   O     0.53692   0.42048   0.24702   0.00000  Uiso   1.00
O311   O     0.34417   0.56165   0.33421   0.00000  Uiso   1.00
O312   O     0.55946   0.57054   0.24519   0.00000  Uiso   1.00
O313   O     0.44054   0.42946   0.25482   0.00000  Uiso   1.00
O314   O     0.45181   0.50450   0.31998   0.00000  Uiso   1.00
O315   O     0.54819   0.49550   0.18003   0.00000  Uiso   1.00
O316   O     0.54819   0.49552   0.31218   0.00000  Uiso   1.00
O317   O     0.45181   0.50448   0.18783   0.00000  Uiso   1.00
O318   O     0.43176   0.40617   0.14921   0.00000  Uiso   1.00
Zn319  Zn    0.43565   0.50600   0.25521   0.00000  Uiso   1.00
Zn320  Zn    0.56435   0.49400   0.24479   0.00000  Uiso   1.00
Br321  Br    0.94650   0.63507   0.04698   0.00000  Uiso   1.00
Br322  Br    0.72016   0.36493   0.45302   0.00000  Uiso   1.00
Br323  Br    0.92688   0.34385   0.27943   0.00000  Uiso   1.00
Br324  Br    0.73979   0.65615   0.22058   0.00000  Uiso   1.00
C325   C     0.84826   0.59803   0.24877   0.00000  Uiso   1.00
C326   C     0.85757   0.54379   0.40805   0.00000  Uiso   1.00
C327   C     0.83226   0.49940   0.11611   0.00000  Uiso   1.00
C328   C     0.83441   0.50060   0.38389   0.00000  Uiso   1.00
C329   C     0.85977   0.54181   0.09504   0.00000  Uiso   1.00
C330   C     0.80690   0.45819   0.40496   0.00000  Uiso   1.00
C331   C     0.86382   0.54142   0.04783   0.00000  Uiso   1.00
C332   C     0.80284   0.45858   0.45218   0.00000  Uiso   1.00
C333   C     0.83392   0.50018   0.02349   0.00000  Uiso   1.00
C334   C     0.83275   0.49982   0.47651   0.00000  Uiso   1.00
C335   C     0.80536   0.45887   0.04595   0.00000  Uiso   1.00
C336   C     0.81841   0.40197   0.25123   0.00000  Uiso   1.00
C337   C     0.86131   0.54113   0.45405   0.00000  Uiso   1.00
C338   C     0.89588   0.57998   0.02356   0.00000  Uiso   1.00
C339   C     0.77078   0.42002   0.47644   0.00000  Uiso   1.00
C340   C     0.79385   0.40660   0.11384   0.00000  Uiso   1.00
C341   C     0.87281   0.59340   0.38616   0.00000  Uiso   1.00
C342   C     0.88220   0.58563   0.12413   0.00000  Uiso   1.00
C343   C     0.78447   0.41437   0.37587   0.00000  Uiso   1.00
C344   C     0.99990   0.48414   0.19149   0.00000  Uiso   1.00
C345   C     0.66677   0.51586   0.30851   0.00000  Uiso   1.00
C346   C     0.89436   0.57886   0.47761   0.00000  Uiso   1.00
C347   C     0.77231   0.42114   0.02239   0.00000  Uiso   1.00
C348   C     0.85552   0.65231   0.25369   0.00000  Uiso   1.00
C349   C     0.81115   0.34769   0.24631   0.00000  Uiso   1.00
C350   C     0.83405   0.50125   0.33618   0.00000  Uiso   1.00
C351   C     0.83261   0.49875   0.16382   0.00000  Uiso   1.00
C352   C     0.80910   0.45621   0.09195   0.00000  Uiso   1.00
H353   H     0.92045   0.60802   0.46005   0.00000  Uiso   1.00
H354   H     0.74622   0.39198   0.03995   0.00000  Uiso   1.00
H355   H     0.84017   0.36436   0.06728   0.00000  Uiso   1.00
H356   H     0.82649   0.63564   0.43272   0.00000  Uiso   1.00
H357   H     0.94792   0.61756   0.15821   0.00000  Uiso   1.00
H358   H     0.71875   0.38244   0.34179   0.00000  Uiso   1.00
H359   H     0.99782   0.44252   0.13255   0.00000  Uiso   1.00
H360   H     0.66885   0.55748   0.36745   0.00000  Uiso   1.00
N361   N     0.98344   0.48598   0.23783   0.00000  Uiso   1.00
N362   N     0.68322   0.51402   0.26217   0.00000  Uiso   1.00
O363   O     0.79642   0.57952   0.25299   0.00000  Uiso   1.00
O364   O     0.81229   0.35993   0.09428   0.00000  Uiso   1.00
O365   O     0.90157   0.59383   0.35079   0.00000  Uiso   1.00
O366   O     0.85438   0.64007   0.40572   0.00000  Uiso   1.00
O367   O     0.85021   0.61829   0.13960   0.00000  Uiso   1.00
O368   O     0.93828   0.58682   0.13697   0.00000  Uiso   1.00
O369   O     0.81645   0.38171   0.36040   0.00000  Uiso   1.00
O370   O     0.72839   0.41318   0.36303   0.00000  Uiso   1.00
O371   O     0.68265   0.52375   0.17322   0.00000  Uiso   1.00
O372   O     0.98916   0.43835   0.16579   0.00000  Uiso   1.00
O373   O     0.98402   0.47625   0.32678   0.00000  Uiso   1.00
O374   O     0.87025   0.42048   0.24702   0.00000  Uiso   1.00
O375   O     0.67751   0.56165   0.33421   0.00000  Uiso   1.00
O376   O     0.89280   0.57054   0.24519   0.00000  Uiso   1.00
O377   O     0.77387   0.42946   0.25482   0.00000  Uiso   1.00
O378   O     0.78514   0.50450   0.31998   0.00000  Uiso   1.00
O379   O     0.88153   0.49550   0.18003   0.00000  Uiso   1.00
O380   O     0.88152   0.49552   0.31218   0.00000  Uiso   1.00
O381   O     0.78515   0.50448   0.18783   0.00000  Uiso   1.00
O382   O     0.76509   0.40617   0.14921   0.00000  Uiso   1.00
Zn383  Zn    0.76898   0.50600   0.25521   0.00000  Uiso   1.00
Zn384  Zn    0.89769   0.49400   0.24479   0.00000  Uiso   1.00
Br385  Br    0.27984   0.96841   0.04698   0.00000  Uiso   1.00
Br386  Br    0.05350   0.69826   0.45302   0.00000  Uiso   1.00
Br387  Br    0.26021   0.67718   0.27943   0.00000  Uiso   1.00
Br388  Br    0.07312   0.98948   0.22058   0.00000  Uiso   1.00
C389   C     0.18159   0.93136   0.24877   0.00000  Uiso   1.00
C390   C     0.19090   0.87713   0.40805   0.00000  Uiso   1.00
C391   C     0.16560   0.83274   0.11611   0.00000  Uiso   1.00
C392   C     0.16774   0.83393   0.38389   0.00000  Uiso   1.00
C393   C     0.19310   0.87514   0.09504   0.00000  Uiso   1.00
C394   C     0.14023   0.79152   0.40496   0.00000  Uiso   1.00
C395   C     0.19716   0.87475   0.04783   0.00000  Uiso   1.00
C396   C     0.13618   0.79192   0.45218   0.00000  Uiso   1.00
C397   C     0.16725   0.83351   0.02349   0.00000  Uiso   1.00
C398   C     0.16609   0.83315   0.47651   0.00000  Uiso   1.00
C399   C     0.13869   0.79220   0.04595   0.00000  Uiso   1.00
C400   C     0.15174   0.73531   0.25123   0.00000  Uiso   1.00
C401   C     0.19464   0.87446   0.45405   0.00000  Uiso   1.00
C402   C     0.22922   0.91332   0.02356   0.00000  Uiso   1.00
C403   C     0.10412   0.75335   0.47644   0.00000  Uiso   1.00
C404   C     0.12719   0.73993   0.11384   0.00000  Uiso   1.00
C405   C     0.20615   0.92673   0.38616   0.00000  Uiso   1.00
C406   C     0.21553   0.91897   0.12413   0.00000  Uiso   1.00
C407   C     0.11780   0.74770   0.37587   0.00000  Uiso   1.00
C408   C     0.33323   0.81747   0.19149   0.00000  Uiso   1.00
C409   C     0.00010   0.84920   0.30851   0.00000  Uiso   1.00
C410   C     0.22769   0.91219   0.47761   0.00000  Uiso   1.00
C411   C     0.10564   0.75447   0.02239   0.00000  Uiso   1.00
C412   C     0.18885   0.98564   0.25369   0.00000  Uiso   1.00
C413   C     0.14448   0.68102   0.24631   0.00000  Uiso   1.00
C414   C     0.16739   0.83458   0.33618   0.00000  Uiso   1.00
C415   C     0.16595   0.83209   0.16382   0.00000  Uiso   1.00
C416   C     0.14243   0.78954   0.09195   0.00000  Uiso   1.00
H417   H     0.25378   0.94135   0.46005   0.00000  Uiso   1.00
H418   H     0.07955   0.72532   0.03995   0.00000  Uiso   1.00
H419   H     0.17351   0.69770   0.06728   0.00000  Uiso   1.00
H420   H     0.15983   0.96897   0.43272   0.00000  Uiso   1.00
H421   H     0.28125   0.95090   0.15821   0.00000  Uiso   1.00
H422   H     0.05208   0.71577   0.34179   0.00000  Uiso   1.00
H423   H     0.33115   0.77585   0.13255   0.00000  Uiso   1.00
H424   H     0.00218   0.89081   0.36745   0.00000  Uiso   1.00
N425   N     0.31678   0.81932   0.23783   0.00000  Uiso   1.00
N426   N     0.01656   0.84735   0.26217   0.00000  Uiso   1.00
O427   O     0.12975   0.91286   0.25299   0.00000  Uiso   1.00
O428   O     0.14562   0.69327   0.09428   0.00000  Uiso   1.00
O429   O     0.23491   0.92716   0.35079   0.00000  Uiso   1.00
O430   O     0.18771   0.97340   0.40572   0.00000  Uiso   1.00
O431   O     0.18355   0.95162   0.13960   0.00000  Uiso   1.00
O432   O     0.27161   0.92015   0.13697   0.00000  Uiso   1.00
O433   O     0.14979   0.71504   0.36040   0.00000  Uiso   1.00
O434   O     0.06172   0.74651   0.36303   0.00000  Uiso   1.00
O435   O     0.01598   0.85708   0.17322   0.00000  Uiso   1.00
O436   O     0.32249   0.77168   0.16579   0.00000  Uiso   1.00
O437   O     0.31735   0.80959   0.32678   0.00000  Uiso   1.00
O438   O     0.20358   0.75381   0.24702   0.00000  Uiso   1.00
O439   O     0.01084   0.89499   0.33421   0.00000  Uiso   1.00
O440   O     0.22613   0.90387   0.24519   0.00000  Uiso   1.00
O441   O     0.10720   0.76279   0.25482   0.00000  Uiso   1.00
O442   O     0.11847   0.83784   0.31998   0.00000  Uiso   1.00
O443   O     0.21486   0.82883   0.18003   0.00000  Uiso   1.00
O444   O     0.21485   0.82885   0.31218   0.00000  Uiso   1.00
O445   O     0.11848   0.83781   0.18783   0.00000  Uiso   1.00
O446   O     0.09843   0.73950   0.14921   0.00000  Uiso   1.00
Zn447  Zn    0.10231   0.83933   0.25521   0.00000  Uiso   1.00
Zn448  Zn    0.23102   0.82734   0.24479   0.00000  Uiso   1.00
Br449  Br    0.61317   0.96841   0.04698   0.00000  Uiso   1.00
Br450  Br    0.38683   0.69826   0.45302   0.00000  Uiso   1.00
Br451  Br    0.59354   0.67718   0.27943   0.00000  Uiso   1.00
Br452  Br    0.40646   0.98948   0.22058   0.00000  Uiso   1.00
C453   C     0.51492   0.93136   0.24877   0.00000  Uiso   1.00
C454   C     0.52423   0.87713   0.40805   0.00000  Uiso   1.00
C455   C     0.49893   0.83274   0.11611   0.00000  Uiso   1.00
C456   C     0.50107   0.83393   0.38389   0.00000  Uiso   1.00
C457   C     0.52644   0.87514   0.09504   0.00000  Uiso   1.00
C458   C     0.47356   0.79152   0.40496   0.00000  Uiso   1.00
C459   C     0.53049   0.87475   0.04783   0.00000  Uiso   1.00
C460   C     0.46951   0.79192   0.45218   0.00000  Uiso   1.00
C461   C     0.50058   0.83351   0.02349   0.00000  Uiso   1.00
C462   C     0.49942   0.83315   0.47651   0.00000  Uiso   1.00
C463   C     0.47202   0.79220   0.04595   0.00000  Uiso   1.00
C464   C     0.48508   0.73531   0.25123   0.00000  Uiso   1.00
C465   C     0.52798   0.87446   0.45405   0.00000  Uiso   1.00
C466   C     0.56255   0.91332   0.02356   0.00000  Uiso   1.00
C467   C     0.43745   0.75335   0.47644   0.00000  Uiso   1.00
C468   C     0.46052   0.73993   0.11384   0.00000  Uiso   1.00
C469   C     0.53948   0.92673   0.38616   0.00000  Uiso   1.00
C470   C     0.54886   0.91897   0.12413   0.00000  Uiso   1.00
C471   C     0.45114   0.74770   0.37587   0.00000  Uiso   1.00
C472   C     0.66657   0.81747   0.19149   0.00000  Uiso   1.00
C473   C     0.33343   0.84920   0.30851   0.00000  Uiso   1.00
C474   C     0.56102   0.91219   0.47761   0.00000  Uiso   1.00
C475   C     0.43898   0.75447   0.02239   0.00000  Uiso   1.00
C476   C     0.52218   0.98564   0.25369   0.00000  Uiso   1.00
C477   C     0.47782   0.68102   0.24631   0.00000  Uiso   1.00
C478   C     0.50072   0.83458   0.33618   0.00000  Uiso   1.00
C479   C     0.49928   0.83209   0.16382   0.00000  Uiso   1.00
C480   C     0.47577   0.78954   0.09195   0.00000  Uiso   1.00
H481   H     0.58712   0.94135   0.46005   0.00000  Uiso   1.00
H482   H     0.41289   0.72532   0.03995   0.00000  Uiso   1.00
H483   H     0.50684   0.69770   0.06728   0.00000  Uiso   1.00
H484   H     0.49316   0.96897   0.43272   0.00000  Uiso   1.00
H485   H     0.61459   0.95090   0.15821   0.00000  Uiso   1.00
H486   H     0.38541   0.71577   0.34179   0.00000  Uiso   1.00
H487   H     0.66449   0.77585   0.13255   0.00000  Uiso   1.00
H488   H     0.33551   0.89081   0.36745   0.00000  Uiso   1.00
N489   N     0.65011   0.81932   0.23783   0.00000  Uiso   1.00
N490   N     0.34989   0.84735   0.26217   0.00000  Uiso   1.00
O491   O     0.46308   0.91286   0.25299   0.00000  Uiso   1.00
O492   O     0.47896   0.69327   0.09428   0.00000  Uiso   1.00
O493   O     0.56824   0.92716   0.35079   0.00000  Uiso   1.00
O494   O     0.52104   0.97340   0.40572   0.00000  Uiso   1.00
O495   O     0.51688   0.95162   0.13960   0.00000  Uiso   1.00
O496   O     0.60495   0.92015   0.13697   0.00000  Uiso   1.00
O497   O     0.48312   0.71504   0.36040   0.00000  Uiso   1.00
O498   O     0.39505   0.74651   0.36303   0.00000  Uiso   1.00
O499   O     0.34932   0.85708   0.17322   0.00000  Uiso   1.00
O500   O     0.65583   0.77168   0.16579   0.00000  Uiso   1.00
O501   O     0.65068   0.80959   0.32678   0.00000  Uiso   1.00
O502   O     0.53692   0.75381   0.24702   0.00000  Uiso   1.00
O503   O     0.34417   0.89499   0.33421   0.00000  Uiso   1.00
O504   O     0.55946   0.90387   0.24519   0.00000  Uiso   1.00
O505   O     0.44054   0.76279   0.25482   0.00000  Uiso   1.00
O506   O     0.45181   0.83784   0.31998   0.00000  Uiso   1.00
O507   O     0.54819   0.82883   0.18003   0.00000  Uiso   1.00
O508   O     0.54819   0.82885   0.31218   0.00000  Uiso   1.00
O509   O     0.45181   0.83781   0.18783   0.00000  Uiso   1.00
O510   O     0.43176   0.73950   0.14921   0.00000  Uiso   1.00
Zn511  Zn    0.43565   0.83933   0.25521   0.00000  Uiso   1.00
Zn512  Zn    0.56435   0.82734   0.24479   0.00000  Uiso   1.00
Br513  Br    0.94650   0.96841   0.04698   0.00000  Uiso   1.00
Br514  Br    0.72016   0.69826   0.45302   0.00000  Uiso   1.00
Br515  Br    0.92688   0.67718   0.27943   0.00000  Uiso   1.00
Br516  Br    0.73979   0.98948   0.22058   0.00000  Uiso   1.00
C517   C     0.84826   0.93136   0.24877   0.00000  Uiso   1.00
C518   C     0.85757   0.87713   0.40805   0.00000  Uiso   1.00
C519   C     0.83226   0.83274   0.11611   0.00000  Uiso   1.00
C520   C     0.83441   0.83393   0.38389   0.00000  Uiso   1.00
C521   C     0.85977   0.87514   0.09504   0.00000  Uiso   1.00
C522   C     0.80690   0.79152   0.40496   0.00000  Uiso   1.00
C523   C     0.86382   0.87475   0.04783   0.00000  Uiso   1.00
C524   C     0.80284   0.79192   0.45218   0.00000  Uiso   1.00
C525   C     0.83392   0.83351   0.02349   0.00000  Uiso   1.00
C526   C     0.83275   0.83315   0.47651   0.00000  Uiso   1.00
C527   C     0.80536   0.79220   0.04595   0.00000  Uiso   1.00
C528   C     0.81841   0.73531   0.25123   0.00000  Uiso   1.00
C529   C     0.86131   0.87446   0.45405   0.00000  Uiso   1.00
C530   C     0.89588   0.91332   0.02356   0.00000  Uiso   1.00
C531   C     0.77078   0.75335   0.47644   0.00000  Uiso   1.00
C532   C     0.79385   0.73993   0.11384   0.00000  Uiso   1.00
C533   C     0.87281   0.92673   0.38616   0.00000  Uiso   1.00
C534   C     0.88220   0.91897   0.12413   0.00000  Uiso   1.00
C535   C     0.78447   0.74770   0.37587   0.00000  Uiso   1.00
C536   C     0.99990   0.81747   0.19149   0.00000  Uiso   1.00
C537   C     0.66677   0.84920   0.30851   0.00000  Uiso   1.00
C538   C     0.89436   0.91219   0.47761   0.00000  Uiso   1.00
C539   C     0.77231   0.75447   0.02239   0.00000  Uiso   1.00
C540   C     0.85552   0.98564   0.25369   0.00000  Uiso   1.00
C541   C     0.81115   0.68102   0.24631   0.00000  Uiso   1.00
C542   C     0.83405   0.83458   0.33618   0.00000  Uiso   1.00
C543   C     0.83261   0.83209   0.16382   0.00000  Uiso   1.00
C544   C     0.80910   0.78954   0.09195   0.00000  Uiso   1.00
H545   H     0.92045   0.94135   0.46005   0.00000  Uiso   1.00
H546   H     0.74622   0.72532   0.03995   0.00000  Uiso   1.00
H547   H     0.84017   0.69770   0.06728   0.00000  Uiso   1.00
H548   H     0.82649   0.96897   0.43272   0.00000  Uiso   1.00
H549   H     0.94792   0.95090   0.15821   0.00000  Uiso   1.00
H550   H     0.71875   0.71577   0.34179   0.00000  Uiso   1.00
H551   H     0.99782   0.77585   0.13255   0.00000  Uiso   1.00
H552   H     0.66885   0.89081   0.36745   0.00000  Uiso   1.00
N553   N     0.98344   0.81932   0.23783   0.00000  Uiso   1.00
N554   N     0.68322   0.84735   0.26217   0.00000  Uiso   1.00
O555   O     0.79642   0.91286   0.25299   0.00000  Uiso   1.00
O556   O     0.81229   0.69327   0.09428   0.00000  Uiso   1.00
O557   O     0.90157   0.92716   0.35079   0.00000  Uiso   1.00
O558   O     0.85438   0.97340   0.40572   0.00000  Uiso   1.00
O559   O     0.85021   0.95162   0.13960   0.00000  Uiso   1.00
O560   O     0.93828   0.92015   0.13697   0.00000  Uiso   1.00
O561   O     0.81645   0.71504   0.36040   0.00000  Uiso   1.00
O562   O     0.72839   0.74651   0.36303   0.00000  Uiso   1.00
O563   O     0.68265   0.85708   0.17322   0.00000  Uiso   1.00
O564   O     0.98916   0.77168   0.16579   0.00000  Uiso   1.00
O565   O     0.98402   0.80959   0.32678   0.00000  Uiso   1.00
O566   O     0.87025   0.75381   0.24702   0.00000  Uiso   1.00
O567   O     0.67751   0.89499   0.33421   0.00000  Uiso   1.00
O568   O     0.89280   0.90387   0.24519   0.00000  Uiso   1.00
O569   O     0.77387   0.76279   0.25482   0.00000  Uiso   1.00
O570   O     0.78514   0.83784   0.31998   0.00000  Uiso   1.00
O571   O     0.88153   0.82883   0.18003   0.00000  Uiso   1.00
O572   O     0.88152   0.82885   0.31218   0.00000  Uiso   1.00
O573   O     0.78515   0.83781   0.18783   0.00000  Uiso   1.00
O574   O     0.76509   0.73950   0.14921   0.00000  Uiso   1.00
Zn575  Zn    0.76898   0.83933   0.25521   0.00000  Uiso   1.00
Zn576  Zn    0.89769   0.82734   0.24479   0.00000  Uiso   1.00
Br577  Br    0.27984   0.30174   0.54698   0.00000  Uiso   1.00
Br578  Br    0.05350   0.03159   0.95302   0.00000  Uiso   1.00
Br579  Br    0.26021   0.01052   0.77943   0.00000  Uiso   1.00
Br580  Br    0.07312   0.32282   0.72058   0.00000  Uiso   1.00
C581   C     0.18159   0.26469   0.74877   0.00000  Uiso   1.00
C582   C     0.19090   0.21046   0.90805   0.00000  Uiso   1.00
C583   C     0.16560   0.16607   0.61611   0.00000  Uiso   1.00
C584   C     0.16774   0.16726   0.88389   0.00000  Uiso   1.00
C585   C     0.19310   0.20848   0.59504   0.00000  Uiso   1.00
C586   C     0.14023   0.12486   0.90496   0.00000  Uiso   1.00
C587   C     0.19716   0.20808   0.54783   0.00000  Uiso   1.00
C588   C     0.13618   0.12525   0.95218   0.00000  Uiso   1.00
C589   C     0.16725   0.16685   0.52349   0.00000  Uiso   1.00
C590   C     0.16609   0.16649   0.97651   0.00000  Uiso   1.00
C591   C     0.13869   0.12554   0.54595   0.00000  Uiso   1.00
C592   C     0.15174   0.06864   0.75123   0.00000  Uiso   1.00
C593   C     0.19464   0.20779   0.95405   0.00000  Uiso   1.00
C594   C     0.22922   0.24665   0.52356   0.00000  Uiso   1.00
C595   C     0.10412   0.08668   0.97644   0.00000  Uiso   1.00
C596   C     0.12719   0.07327   0.61384   0.00000  Uiso   1.00
C597   C     0.20615   0.26007   0.88616   0.00000  Uiso   1.00
C598   C     0.21553   0.25230   0.62413   0.00000  Uiso   1.00
C599   C     0.11780   0.08103   0.87587   0.00000  Uiso   1.00
C600   C     0.33323   0.15080   0.69149   0.00000  Uiso   1.00
C601   C     0.00010   0.18253   0.80851   0.00000  Uiso   1.00
C602   C     0.22769   0.24552   0.97761   0.00000  Uiso   1.00
C603   C     0.10564   0.08781   0.52239   0.00000  Uiso   1.00
C604   C     0.18885   0.31898   0.75369   0.00000  Uiso   1.00
C605   C     0.14448   0.01436   0.74631   0.00000  Uiso   1.00
C606   C     0.16739   0.16791   0.83618   0.00000  Uiso   1.00
C607   C     0.16595   0.16542   0.66382   0.00000  Uiso   1.00
C608   C     0.14243   0.12287   0.59195   0.00000  Uiso   1.00
H609   H     0.25378   0.27468   0.96005   0.00000  Uiso   1.00
H610   H     0.07955   0.05865   0.53995   0.00000  Uiso   1.00
H611   H     0.17351   0.03103   0.56728   0.00000  Uiso   1.00
H612   H     0.15983   0.30230   0.93272   0.00000  Uiso   1.00
H613   H     0.28125   0.28423   0.65821   0.00000  Uiso   1.00
H614   H     0.05208   0.04910   0.84179   0.00000  Uiso   1.00
H615   H     0.33115   0.10919   0.63255   0.00000  Uiso   1.00
H616   H     0.00218   0.22415   0.86745   0.00000  Uiso   1.00
N617   N     0.31678   0.15265   0.73783   0.00000  Uiso   1.00
N618   N     0.01656   0.18068   0.76217   0.00000  Uiso   1.00
O619   O     0.12975   0.24619   0.75299   0.00000  Uiso   1.00
O620   O     0.14562   0.02660   0.59428   0.00000  Uiso   1.00
O621   O     0.23491   0.26050   0.85079   0.00000  Uiso   1.00
O622   O     0.18771   0.30673   0.90572   0.00000  Uiso   1.00
O623   O     0.18355   0.28496   0.63960   0.00000  Uiso   1.00
O624   O     0.27161   0.25349   0.63697   0.00000  Uiso   1.00
O625   O     0.14979   0.04837   0.86040   0.00000  Uiso   1.00
O626   O     0.06172   0.07985   0.86303   0.00000  Uiso   1.00
O627   O     0.01598   0.19041   0.67322   0.00000  Uiso   1.00
O628   O     0.32249   0.10501   0.66579   0.00000  Uiso   1.00
O629   O     0.31735   0.14292   0.82678   0.00000  Uiso   1.00
O630   O     0.20358   0.08714   0.74702   0.00000  Uiso   1.00
O631   O     0.01084   0.22832   0.83421   0.00000  Uiso   1.00
O632   O     0.22613   0.23721   0.74519   0.00000  Uiso   1.00
O633   O     0.10720   0.09613   0.75482   0.00000  Uiso   1.00
O634   O     0.11847   0.17117   0.81998   0.00000  Uiso   1.00
O635   O     0.21486   0.16216   0.68003   0.00000  Uiso   1.00
O636   O     0.21485   0.16219   0.81218   0.00000  Uiso   1.00
O637   O     0.11848   0.17115   0.68783   0.00000  Uiso   1.00
O638   O     0.09843   0.07284   0.64921   0.00000  Uiso   1.00
Zn639  Zn    0.10231   0.17266   0.75521   0.00000  Uiso   1.00
Zn640  Zn    0.23102   0.16067   0.74479   0.00000  Uiso   1.00
Br641  Br    0.61317   0.30174   0.54698   0.00000  Uiso   1.00
Br642  Br    0.38683   0.03159   0.95302   0.00000  Uiso   1.00
Br643  Br    0.59354   0.01052   0.77943   0.00000  Uiso   1.00
Br644  Br    0.40646   0.32282   0.72058   0.00000  Uiso   1.00
C645   C     0.51492   0.26469   0.74877   0.00000  Uiso   1.00
C646   C     0.52423   0.21046   0.90805   0.00000  Uiso   1.00
C647   C     0.49893   0.16607   0.61611   0.00000  Uiso   1.00
C648   C     0.50107   0.16726   0.88389   0.00000  Uiso   1.00
C649   C     0.52644   0.20848   0.59504   0.00000  Uiso   1.00
C650   C     0.47356   0.12486   0.90496   0.00000  Uiso   1.00
C651   C     0.53049   0.20808   0.54783   0.00000  Uiso   1.00
C652   C     0.46951   0.12525   0.95218   0.00000  Uiso   1.00
C653   C     0.50058   0.16685   0.52349   0.00000  Uiso   1.00
C654   C     0.49942   0.16649   0.97651   0.00000  Uiso   1.00
C655   C     0.47202   0.12554   0.54595   0.00000  Uiso   1.00
C656   C     0.48508   0.06864   0.75123   0.00000  Uiso   1.00
C657   C     0.52798   0.20779   0.95405   0.00000  Uiso   1.00
C658   C     0.56255   0.24665   0.52356   0.00000  Uiso   1.00
C659   C     0.43745   0.08668   0.97644   0.00000  Uiso   1.00
C660   C     0.46052   0.07327   0.61384   0.00000  Uiso   1.00
C661   C     0.53948   0.26007   0.88616   0.00000  Uiso   1.00
C662   C     0.54886   0.25230   0.62413   0.00000  Uiso   1.00
C663   C     0.45114   0.08103   0.87587   0.00000  Uiso   1.00
C664   C     0.66657   0.15080   0.69149   0.00000  Uiso   1.00
C665   C     0.33343   0.18253   0.80851   0.00000  Uiso   1.00
C666   C     0.56102   0.24552   0.97761   0.00000  Uiso   1.00
C667   C     0.43898   0.08781   0.52239   0.00000  Uiso   1.00
C668   C     0.52218   0.31898   0.75369   0.00000  Uiso   1.00
C669   C     0.47782   0.01436   0.74631   0.00000  Uiso   1.00
C670   C     0.50072   0.16791   0.83618   0.00000  Uiso   1.00
C671   C     0.49928   0.16542   0.66382   0.00000  Uiso   1.00
C672   C     0.47577   0.12287   0.59195   0.00000  Uiso   1.00
H673   H     0.58712   0.27468   0.96005   0.00000  Uiso   1.00
H674   H     0.41289   0.05865   0.53995   0.00000  Uiso   1.00
H675   H     0.50684   0.03103   0.56728   0.00000  Uiso   1.00
H676   H     0.49316   0.30230   0.93272   0.00000  Uiso   1.00
H677   H     0.61459   0.28423   0.65821   0.00000  Uiso   1.00
H678   H     0.38541   0.04910   0.84179   0.00000  Uiso   1.00
H679   H     0.66449   0.10919   0.63255   0.00000  Uiso   1.00
H680   H     0.33551   0.22415   0.86745   0.00000  Uiso   1.00
N681   N     0.65011   0.15265   0.73783   0.00000  Uiso   1.00
N682   N     0.34989   0.18068   0.76217   0.00000  Uiso   1.00
O683   O     0.46308   0.24619   0.75299   0.00000  Uiso   1.00
O684   O     0.47896   0.02660   0.59428   0.00000  Uiso   1.00
O685   O     0.56824   0.26050   0.85079   0.00000  Uiso   1.00
O686   O     0.52104   0.30673   0.90572   0.00000  Uiso   1.00
O687   O     0.51688   0.28496   0.63960   0.00000  Uiso   1.00
O688   O     0.60495   0.25349   0.63697   0.00000  Uiso   1.00
O689   O     0.48312   0.04837   0.86040   0.00000  Uiso   1.00
O690   O     0.39505   0.07985   0.86303   0.00000  Uiso   1.00
O691   O     0.34932   0.19041   0.67322   0.00000  Uiso   1.00
O692   O     0.65583   0.10501   0.66579   0.00000  Uiso   1.00
O693   O     0.65068   0.14292   0.82678   0.00000  Uiso   1.00
O694   O     0.53692   0.08714   0.74702   0.00000  Uiso   1.00
O695   O     0.34417   0.22832   0.83421   0.00000  Uiso   1.00
O696   O     0.55946   0.23721   0.74519   0.00000  Uiso   1.00
O697   O     0.44054   0.09613   0.75482   0.00000  Uiso   1.00
O698   O     0.45181   0.17117   0.81998   0.00000  Uiso   1.00
O699   O     0.54819   0.16216   0.68003   0.00000  Uiso   1.00
O700   O     0.54819   0.16219   0.81218   0.00000  Uiso   1.00
O701   O     0.45181   0.17115   0.68783   0.00000  Uiso   1.00
O702   O     0.43176   0.07284   0.64921   0.00000  Uiso   1.00
Zn703  Zn    0.43565   0.17266   0.75521   0.00000  Uiso   1.00
Zn704  Zn    0.56435   0.16067   0.74479   0.00000  Uiso   1.00
Br705  Br    0.94650   0.30174   0.54698   0.00000  Uiso   1.00
Br706  Br    0.72016   0.03159   0.95302   0.00000  Uiso   1.00
Br707  Br    0.92688   0.01052   0.77943   0.00000  Uiso   1.00
Br708  Br    0.73979   0.32282   0.72058   0.00000  Uiso   1.00
C709   C     0.84826   0.26469   0.74877   0.00000  Uiso   1.00
C710   C     0.85757   0.21046   0.90805   0.00000  Uiso   1.00
C711   C     0.83226   0.16607   0.61611   0.00000  Uiso   1.00
C712   C     0.83441   0.16726   0.88389   0.00000  Uiso   1.00
C713   C     0.85977   0.20848   0.59504   0.00000  Uiso   1.00
C714   C     0.80690   0.12486   0.90496   0.00000  Uiso   1.00
C715   C     0.86382   0.20808   0.54783   0.00000  Uiso   1.00
C716   C     0.80284   0.12525   0.95218   0.00000  Uiso   1.00
C717   C     0.83392   0.16685   0.52349   0.00000  Uiso   1.00
C718   C     0.83275   0.16649   0.97651   0.00000  Uiso   1.00
C719   C     0.80536   0.12554   0.54595   0.00000  Uiso   1.00
C720   C     0.81841   0.06864   0.75123   0.00000  Uiso   1.00
C721   C     0.86131   0.20779   0.95405   0.00000  Uiso   1.00
C722   C     0.89588   0.24665   0.52356   0.00000  Uiso   1.00
C723   C     0.77078   0.08668   0.97644   0.00000  Uiso   1.00
C724   C     0.79385   0.07327   0.61384   0.00000  Uiso   1.00
C725   C     0.87281   0.26007   0.88616   0.00000  Uiso   1.00
C726   C     0.88220   0.25230   0.62413   0.00000  Uiso   1.00
C727   C     0.78447   0.08103   0.87587   0.00000  Uiso   1.00
C728   C     0.99990   0.15080   0.69149   0.00000  Uiso   1.00
C729   C     0.66677   0.18253   0.80851   0.00000  Uiso   1.00
C730   C     0.89436   0.24552   0.97761   0.00000  Uiso   1.00
C731   C     0.77231   0.08781   0.52239   0.00000  Uiso   1.00
C732   C     0.85552   0.31898   0.75369   0.00000  Uiso   1.00
C733   C     0.81115   0.01436   0.74631   0.00000  Uiso   1.00
C734   C     0.83405   0.16791   0.83618   0.00000  Uiso   1.00
C735   C     0.83261   0.16542   0.66382   0.00000  Uiso   1.00
C736   C     0.80910   0.12287   0.59195   0.00000  Uiso   1.00
H737   H     0.92045   0.27468   0.96005   0.00000  Uiso   1.00
H738   H     0.74622   0.05865   0.53995   0.00000  Uiso   1.00
H739   H     0.84017   0.03103   0.56728   0.00000  Uiso   1.00
H740   H     0.82649   0.30230   0.93272   0.00000  Uiso   1.00
H741   H     0.94792   0.28423   0.65821   0.00000  Uiso   1.00
H742   H     0.71875   0.04910   0.84179   0.00000  Uiso   1.00
H743   H     0.99782   0.10919   0.63255   0.00000  Uiso   1.00
H744   H     0.66885   0.22415   0.86745   0.00000  Uiso   1.00
N745   N     0.98344   0.15265   0.73783   0.00000  Uiso   1.00
N746   N     0.68322   0.18068   0.76217   0.00000  Uiso   1.00
O747   O     0.79642   0.24619   0.75299   0.00000  Uiso   1.00
O748   O     0.81229   0.02660   0.59428   0.00000  Uiso   1.00
O749   O     0.90157   0.26050   0.85079   0.00000  Uiso   1.00
O750   O     0.85438   0.30673   0.90572   0.00000  Uiso   1.00
O751   O     0.85021   0.28496   0.63960   0.00000  Uiso   1.00
O752   O     0.93828   0.25349   0.63697   0.00000  Uiso   1.00
O753   O     0.81645   0.04837   0.86040   0.00000  Uiso   1.00
O754   O     0.72839   0.07985   0.86303   0.00000  Uiso   1.00
O755   O     0.68265   0.19041   0.67322   0.00000  Uiso   1.00
O756   O     0.98916   0.10501   0.66579   0.00000  Uiso   1.00
O757   O     0.98402   0.14292   0.82678   0.00000  Uiso   1.00
O758   O     0.87025   0.08714   0.74702   0.00000  Uiso   1.00
O759   O     0.67751   0.22832   0.83421   0.00000  Uiso   1.00
O760   O     0.89280   0.23721   0.74519   0.00000  Uiso   1.00
O761   O     0.77387   0.09613   0.75482   0.00000  Uiso   1.00
O762   O     0.78514   0.17117   0.81998   0.00000  Uiso   1.00
O763   O     0.88153   0.16216   0.68003   0.00000  Uiso   1.00
O764   O     0.88152   0.16219   0.81218   0.00000  Uiso   1.00
O765   O     0.78515   0.17115   0.68783   0.00000  Uiso   1.00
O766   O     0.76509   0.07284   0.64921   0.00000  Uiso   1.00
Zn767  Zn    0.76898   0.17266   0.75521   0.00000  Uiso   1.00
Zn768  Zn    0.89769   0.16067   0.74479   0.00000  Uiso   1.00
Br769  Br    0.27984   0.63507   0.54698   0.00000  Uiso   1.00
Br770  Br    0.05350   0.36493   0.95302   0.00000  Uiso   1.00
Br771  Br    0.26021   0.34385   0.77943   0.00000  Uiso   1.00
Br772  Br    0.07312   0.65615   0.72058   0.00000  Uiso   1.00
C773   C     0.18159   0.59803   0.74877   0.00000  Uiso   1.00
C774   C     0.19090   0.54379   0.90805   0.00000  Uiso   1.00
C775   C     0.16560   0.49940   0.61611   0.00000  Uiso   1.00
C776   C     0.16774   0.50060   0.88389   0.00000  Uiso   1.00
C777   C     0.19310   0.54181   0.59504   0.00000  Uiso   1.00
C778   C     0.14023   0.45819   0.90496   0.00000  Uiso   1.00
C779   C     0.19716   0.54142   0.54783   0.00000  Uiso   1.00
C780   C     0.13618   0.45858   0.95218   0.00000  Uiso   1.00
C781   C     0.16725   0.50018   0.52349   0.00000  Uiso   1.00
C782   C     0.16609   0.49982   0.97651   0.00000  Uiso   1.00
C783   C     0.13869   0.45887   0.54595   0.00000  Uiso   1.00
C784   C     0.15174   0.40197   0.75123   0.00000  Uiso   1.00
C785   C     0.19464   0.54113   0.95405   0.00000  Uiso   1.00
C786   C     0.22922   0.57998   0.52356   0.00000  Uiso   1.00
C787   C     0.10412   0.42002   0.97644   0.00000  Uiso   1.00
C788   C     0.12719   0.40660   0.61384   0.00000  Uiso   1.00
C789   C     0.20615   0.59340   0.88616   0.00000  Uiso   1.00
C790   C     0.21553   0.58563   0.62413   0.00000  Uiso   1.00
C791   C     0.11780   0.41437   0.87587   0.00000  Uiso   1.00
C792   C     0.33323   0.48414   0.69149   0.00000  Uiso   1.00
C793   C     0.00010   0.51586   0.80851   0.00000  Uiso   1.00
C794   C     0.22769   0.57886   0.97761   0.00000  Uiso   1.00
C795   C     0.10564   0.42114   0.52239   0.00000  Uiso   1.00
C796   C     0.18885   0.65231   0.75369   0.00000  Uiso   1.00
C797   C     0.14448   0.34769   0.74631   0.00000  Uiso   1.00
C798   C     0.16739   0.50125   0.83618   0.00000  Uiso   1.00
C799   C     0.16595   0.49875   0.66382   0.00000  Uiso   1.00
C800   C     0.14243   0.45621   0.59195   0.00000  Uiso   1.00
H801   H     0.25378   0.60802   0.96005   0.00000  Uiso   1.00
H802   H     0.07955   0.39198   0.53995   0.00000  Uiso   1.00
H803   H     0.17351   0.36436   0.56728   0.00000  Uiso   1.00
H804   H     0.15983   0.63564   0.93272   0.00000  Uiso   1.00
H805   H     0.28125   0.61756   0.65821   0.00000  Uiso   1.00
H806   H     0.05208   0.38244   0.84179   0.00000  Uiso   1.00
H807   H     0.33115   0.44252   0.63255   0.00000  Uiso   1.00
H808   H     0.00218   0.55748   0.86745   0.00000  Uiso   1.00
N809   N     0.31678   0.48598   0.73783   0.00000  Uiso   1.00
N810   N     0.01656   0.51402   0.76217   0.00000  Uiso   1.00
O811   O     0.12975   0.57952   0.75299   0.00000  Uiso   1.00
O812   O     0.14562   0.35993   0.59428   0.00000  Uiso   1.00
O813   O     0.23491   0.59383   0.85079   0.00000  Uiso   1.00
O814   O     0.18771   0.64007   0.90572   0.00000  Uiso   1.00
O815   O     0.18355   0.61829   0.63960   0.00000  Uiso   1.00
O816   O     0.27161   0.58682   0.63697   0.00000  Uiso   1.00
O817   O     0.14979   0.38171   0.86040   0.00000  Uiso   1.00
O818   O     0.06172   0.41318   0.86303   0.00000  Uiso   1.00
O819   O     0.01598   0.52375   0.67322   0.00000  Uiso   1.00
O820   O     0.32249   0.43835   0.66579   0.00000  Uiso   1.00
O821   O     0.31735   0.47625   0.82678   0.00000  Uiso   1.00
O822   O     0.20358   0.42048   0.74702   0.00000  Uiso   1.00
O823   O     0.01084   0.56165   0.83421   0.00000  Uiso   1.00
O824   O     0.22613   0.57054   0.74519   0.00000  Uiso   1.00
O825   O     0.10720   0.42946   0.75482   0.00000  Uiso   1.00
O826   O     0.11847   0.50450   0.81998   0.00000  Uiso   1.00
O827   O     0.21486   0.49550   0.68003   0.00000  Uiso   1.00
O828   O     0.21485   0.49552   0.81218   0.00000  Uiso   1.00
O829   O     0.11848   0.50448   0.68783   0.00000  Uiso   1.00
O830   O     0.09843   0.40617   0.64921   0.00000  Uiso   1.00
Zn831  Zn    0.10231   0.50600   0.75521   0.00000  Uiso   1.00
Zn832  Zn    0.23102   0.49400   0.74479   0.00000  Uiso   1.00
Br833  Br    0.61317   0.63507   0.54698   0.00000  Uiso   1.00
Br834  Br    0.38683   0.36493   0.95302   0.00000  Uiso   1.00
Br835  Br    0.59354   0.34385   0.77943   0.00000  Uiso   1.00
Br836  Br    0.40646   0.65615   0.72058   0.00000  Uiso   1.00
C837   C     0.51492   0.59803   0.74877   0.00000  Uiso   1.00
C838   C     0.52423   0.54379   0.90805   0.00000  Uiso   1.00
C839   C     0.49893   0.49940   0.61611   0.00000  Uiso   1.00
C840   C     0.50107   0.50060   0.88389   0.00000  Uiso   1.00
C841   C     0.52644   0.54181   0.59504   0.00000  Uiso   1.00
C842   C     0.47356   0.45819   0.90496   0.00000  Uiso   1.00
C843   C     0.53049   0.54142   0.54783   0.00000  Uiso   1.00
C844   C     0.46951   0.45858   0.95218   0.00000  Uiso   1.00
C845   C     0.50058   0.50018   0.52349   0.00000  Uiso   1.00
C846   C     0.49942   0.49982   0.97651   0.00000  Uiso   1.00
C847   C     0.47202   0.45887   0.54595   0.00000  Uiso   1.00
C848   C     0.48508   0.40197   0.75123   0.00000  Uiso   1.00
C849   C     0.52798   0.54113   0.95405   0.00000  Uiso   1.00
C850   C     0.56255   0.57998   0.52356   0.00000  Uiso   1.00
C851   C     0.43745   0.42002   0.97644   0.00000  Uiso   1.00
C852   C     0.46052   0.40660   0.61384   0.00000  Uiso   1.00
C853   C     0.53948   0.59340   0.88616   0.00000  Uiso   1.00
C854   C     0.54886   0.58563   0.62413   0.00000  Uiso   1.00
C855   C     0.45114   0.41437   0.87587   0.00000  Uiso   1.00
C856   C     0.66657   0.48414   0.69149   0.00000  Uiso   1.00
C857   C     0.33343   0.51586   0.80851   0.00000  Uiso   1.00
C858   C     0.56102   0.57886   0.97761   0.00000  Uiso   1.00
C859   C     0.43898   0.42114   0.52239   0.00000  Uiso   1.00
C860   C     0.52218   0.65231   0.75369   0.00000  Uiso   1.00
C861   C     0.47782   0.34769   0.74631   0.00000  Uiso   1.00
C862   C     0.50072   0.50125   0.83618   0.00000  Uiso   1.00
C863   C     0.49928   0.49875   0.66382   0.00000  Uiso   1.00
C864   C     0.47577   0.45621   0.59195   0.00000  Uiso   1.00
H865   H     0.58712   0.60802   0.96005   0.00000  Uiso   1.00
H866   H     0.41289   0.39198   0.53995   0.00000  Uiso   1.00
H867   H     0.50684   0.36436   0.56728   0.00000  Uiso   1.00
H868   H     0.49316   0.63564   0.93272   0.00000  Uiso   1.00
H869   H     0.61459   0.61756   0.65821   0.00000  Uiso   1.00
H870   H     0.38541   0.38244   0.84179   0.00000  Uiso   1.00
H871   H     0.66449   0.44252   0.63255   0.00000  Uiso   1.00
H872   H     0.33551   0.55748   0.86745   0.00000  Uiso   1.00
N873   N     0.65011   0.48598   0.73783   0.00000  Uiso   1.00
N874   N     0.34989   0.51402   0.76217   0.00000  Uiso   1.00
O875   O     0.46308   0.57952   0.75299   0.00000  Uiso   1.00
O876   O     0.47896   0.35993   0.59428   0.00000  Uiso   1.00
O877   O     0.56824   0.59383   0.85079   0.00000  Uiso   1.00
O878   O     0.52104   0.64007   0.90572   0.00000  Uiso   1.00
O879   O     0.51688   0.61829   0.63960   0.00000  Uiso   1.00
O880   O     0.60495   0.58682   0.63697   0.00000  Uiso   1.00
O881   O     0.48312   0.38171   0.86040   0.00000  Uiso   1.00
O882   O     0.39505   0.41318   0.86303   0.00000  Uiso   1.00
O883   O     0.34932   0.52375   0.67322   0.00000  Uiso   1.00
O884   O     0.65583   0.43835   0.66579   0.00000  Uiso   1.00
O885   O     0.65068   0.47625   0.82678   0.00000  Uiso   1.00
O886   O     0.53692   0.42048   0.74702   0.00000  Uiso   1.00
O887   O     0.34417   0.56165   0.83421   0.00000  Uiso   1.00
O888   O     0.55946   0.57054   0.74519   0.00000  Uiso   1.00
O889   O     0.44054   0.42946   0.75482   0.00000  Uiso   1.00
O890   O     0.45181   0.50450   0.81998   0.00000  Uiso   1.00
O891   O     0.54819   0.49550   0.68003   0.00000  Uiso   1.00
O892   O     0.54819   0.49552   0.81218   0.00000  Uiso   1.00
O893   O     0.45181   0.50448   0.68783   0.00000  Uiso   1.00
O894   O     0.43176   0.40617   0.64921   0.00000  Uiso   1.00
Zn895  Zn    0.43565   0.50600   0.75521   0.00000  Uiso   1.00
Zn896  Zn    0.56435   0.49400   0.74479   0.00000  Uiso   1.00
Br897  Br    0.94650   0.63507   0.54698   0.00000  Uiso   1.00
Br898  Br    0.72016   0.36493   0.95302   0.00000  Uiso   1.00
Br899  Br    0.92688   0.34385   0.77943   0.00000  Uiso   1.00
Br900  Br    0.73979   0.65615   0.72058   0.00000  Uiso   1.00
C901   C     0.84826   0.59803   0.74877   0.00000  Uiso   1.00
C902   C     0.85757   0.54379   0.90805   0.00000  Uiso   1.00
C903   C     0.83226   0.49940   0.61611   0.00000  Uiso   1.00
C904   C     0.83441   0.50060   0.88389   0.00000  Uiso   1.00
C905   C     0.85977   0.54181   0.59504   0.00000  Uiso   1.00
C906   C     0.80690   0.45819   0.90496   0.00000  Uiso   1.00
C907   C     0.86382   0.54142   0.54783   0.00000  Uiso   1.00
C908   C     0.80284   0.45858   0.95218   0.00000  Uiso   1.00
C909   C     0.83392   0.50018   0.52349   0.00000  Uiso   1.00
C910   C     0.83275   0.49982   0.97651   0.00000  Uiso   1.00
C911   C     0.80536   0.45887   0.54595   0.00000  Uiso   1.00
C912   C     0.81841   0.40197   0.75123   0.00000  Uiso   1.00
C913   C     0.86131   0.54113   0.95405   0.00000  Uiso   1.00
C914   C     0.89588   0.57998   0.52356   0.00000  Uiso   1.00
C915   C     0.77078   0.42002   0.97644   0.00000  Uiso   1.00
C916   C     0.79385   0.40660   0.61384   0.00000  Uiso   1.00
C917   C     0.87281   0.59340   0.88616   0.00000  Uiso   1.00
C918   C     0.88220   0.58563   0.62413   0.00000  Uiso   1.00
C919   C     0.78447   0.41437   0.87587   0.00000  Uiso   1.00
C920   C     0.99990   0.48414   0.69149   0.00000  Uiso   1.00
C921   C     0.66677   0.51586   0.80851   0.00000  Uiso   1.00
C922   C     0.89436   0.57886   0.97761   0.00000  Uiso   1.00
C923   C     0.77231   0.42114   0.52239   0.00000  Uiso   1.00
C924   C     0.85552   0.65231   0.75369   0.00000  Uiso   1.00
C925   C     0.81115   0.34769   0.74631   0.00000  Uiso   1.00
C926   C     0.83405   0.50125   0.83618   0.00000  Uiso   1.00
C927   C     0.83261   0.49875   0.66382   0.00000  Uiso   1.00
C928   C     0.80910   0.45621   0.59195   0.00000  Uiso   1.00
H929   H     0.92045   0.60802   0.96005   0.00000  Uiso   1.00
H930   H     0.74622   0.39198   0.53995   0.00000  Uiso   1.00
H931   H     0.84017   0.36436   0.56728   0.00000  Uiso   1.00
H932   H     0.82649   0.63564   0.93272   0.00000  Uiso   1.00
H933   H     0.94792   0.61756   0.65821   0.00000  Uiso   1.00
H934   H     0.71875   0.38244   0.84179   0.00000  Uiso   1.00
H935   H     0.99782   0.44252   0.63255   0.00000  Uiso   1.00
H936   H     0.66885   0.55748   0.86745   0.00000  Uiso   1.00
N937   N     0.98344   0.48598   0.73783   0.00000  Uiso   1.00
N938   N     0.68322   0.51402   0.76217   0.00000  Uiso   1.00
O939   O     0.79642   0.57952   0.75299   0.00000  Uiso   1.00
O940   O     0.81229   0.35993   0.59428   0.00000  Uiso   1.00
O941   O     0.90157   0.59383   0.85079   0.00000  Uiso   1.00
O942   O     0.85438   0.64007   0.90572   0.00000  Uiso   1.00
O943   O     0.85021   0.61829   0.63960   0.00000  Uiso   1.00
O944   O     0.93828   0.58682   0.63697   0.00000  Uiso   1.00
O945   O     0.81645   0.38171   0.86040   0.00000  Uiso   1.00
O946   O     0.72839   0.41318   0.86303   0.00000  Uiso   1.00
O947   O     0.68265   0.52375   0.67322   0.00000  Uiso   1.00
O948   O     0.98916   0.43835   0.66579   0.00000  Uiso   1.00
O949   O     0.98402   0.47625   0.82678   0.00000  Uiso   1.00
O950   O     0.87025   0.42048   0.74702   0.00000  Uiso   1.00
O951   O     0.67751   0.56165   0.83421   0.00000  Uiso   1.00
O952   O     0.89280   0.57054   0.74519   0.00000  Uiso   1.00
O953   O     0.77387   0.42946   0.75482   0.00000  Uiso   1.00
O954   O     0.78514   0.50450   0.81998   0.00000  Uiso   1.00
O955   O     0.88153   0.49550   0.68003   0.00000  Uiso   1.00
O956   O     0.88152   0.49552   0.81218   0.00000  Uiso   1.00
O957   O     0.78515   0.50448   0.68783   0.00000  Uiso   1.00
O958   O     0.76509   0.40617   0.64921   0.00000  Uiso   1.00
Zn959  Zn    0.76898   0.50600   0.75521   0.00000  Uiso   1.00
Zn960  Zn    0.89769   0.49400   0.74479   0.00000  Uiso   1.00
Br961  Br    0.27984   0.96841   0.54698   0.00000  Uiso   1.00
Br962  Br    0.05350   0.69826   0.95302   0.00000  Uiso   1.00
Br963  Br    0.26021   0.67718   0.77943   0.00000  Uiso   1.00
Br964  Br    0.07312   0.98948   0.72058   0.00000  Uiso   1.00
C965   C     0.18159   0.93136   0.74877   0.00000  Uiso   1.00
C966   C     0.19090   0.87713   0.90805   0.00000  Uiso   1.00
C967   C     0.16560   0.83274   0.61611   0.00000  Uiso   1.00
C968   C     0.16774   0.83393   0.88389   0.00000  Uiso   1.00
C969   C     0.19310   0.87514   0.59504   0.00000  Uiso   1.00
C970   C     0.14023   0.79152   0.90496   0.00000  Uiso   1.00
C971   C     0.19716   0.87475   0.54783   0.00000  Uiso   1.00
C972   C     0.13618   0.79192   0.95218   0.00000  Uiso   1.00
C973   C     0.16725   0.83351   0.52349   0.00000  Uiso   1.00
C974   C     0.16609   0.83315   0.97651   0.00000  Uiso   1.00
C975   C     0.13869   0.79220   0.54595   0.00000  Uiso   1.00
C976   C     0.15174   0.73531   0.75123   0.00000  Uiso   1.00
C977   C     0.19464   0.87446   0.95405   0.00000  Uiso   1.00
C978   C     0.22922   0.91332   0.52356   0.00000  Uiso   1.00
C979   C     0.10412   0.75335   0.97644   0.00000  Uiso   1.00
C980   C     0.12719   0.73993   0.61384   0.00000  Uiso   1.00
C981   C     0.20615   0.92673   0.88616   0.00000  Uiso   1.00
C982   C     0.21553   0.91897   0.62413   0.00000  Uiso   1.00
C983   C     0.11780   0.74770   0.87587   0.00000  Uiso   1.00
C984   C     0.33323   0.81747   0.69149   0.00000  Uiso   1.00
C985   C     0.00010   0.84920   0.80851   0.00000  Uiso   1.00
C986   C     0.22769   0.91219   0.97761   0.00000  Uiso   1.00
C987   C     0.10564   0.75447   0.52239   0.00000  Uiso   1.00
C988   C     0.18885   0.98564   0.75369   0.00000  Uiso   1.00
C989   C     0.14448   0.68102   0.74631   0.00000  Uiso   1.00
C990   C     0.16739   0.83458   0.83618   0.00000  Uiso   1.00
C991   C     0.16595   0.83209   0.66382   0.00000  Uiso   1.00
C992   C     0.14243   0.78954   0.59195   0.00000  Uiso   1.00
H993   H     0.25378   0.94135   0.96005   0.00000  Uiso   1.00
H994   H     0.07955   0.72532   0.53995   0.00000  Uiso   1.00
H995   H     0.17351   0.69770   0.56728   0.00000  Uiso   1.00
H996   H     0.15983   0.96897   0.93272   0.00000  Uiso   1.00
H997   H     0.28125   0.95090   0.65821   0.00000  Uiso   1.00
H998   H     0.05208   0.71577   0.84179   0.00000  Uiso   1.00
H999   H     0.33115   0.77585   0.63255   0.00000  Uiso   1.00
H1000  H     0.00218   0.89081   0.86745   0.00000  Uiso   1.00
N1001  N     0.31678   0.81932   0.73783   0.00000  Uiso   1.00
N1002  N     0.01656   0.84735   0.76217   0.00000  Uiso   1.00
O1003  O     0.12975   0.91286   0.75299   0.00000  Uiso   1.00
O1004  O     0.14562   0.69327   0.59428   0.00000  Uiso   1.00
O1005  O     0.23491   0.92716   0.85079   0.00000  Uiso   1.00
O1006  O     0.18771   0.97340   0.90572   0.00000  Uiso   1.00
O1007  O     0.18355   0.95162   0.63960   0.00000  Uiso   1.00
O1008  O     0.27161   0.92015   0.63697   0.00000  Uiso   1.00
O1009  O     0.14979   0.71504   0.86040   0.00000  Uiso   1.00
O1010  O     0.06172   0.74651   0.86303   0.00000  Uiso   1.00
O1011  O     0.01598   0.85708   0.67322   0.00000  Uiso   1.00
O1012  O     0.32249   0.77168   0.66579   0.00000  Uiso   1.00
O1013  O     0.31735   0.80959   0.82678   0.00000  Uiso   1.00
O1014  O     0.20358   0.75381   0.74702   0.00000  Uiso   1.00
O1015  O     0.01084   0.89499   0.83421   0.00000  Uiso   1.00
O1016  O     0.22613   0.90387   0.74519   0.00000  Uiso   1.00
O1017  O     0.10720   0.76279   0.75482   0.00000  Uiso   1.00
O1018  O     0.11847   0.83784   0.81998   0.00000  Uiso   1.00
O1019  O     0.21486   0.82883   0.68003   0.00000  Uiso   1.00
O1020  O     0.21485   0.82885   0.81218   0.00000  Uiso   1.00
O1021  O     0.11848   0.83781   0.68783   0.00000  Uiso   1.00
O1022  O     0.09843   0.73950   0.64921   0.00000  Uiso   1.00
Zn1023 Zn    0.10231   0.83933   0.75521   0.00000  Uiso   1.00
Zn1024 Zn    0.23102   0.82734   0.74479   0.00000  Uiso   1.00
Br1025 Br    0.61317   0.96841   0.54698   0.00000  Uiso   1.00
Br1026 Br    0.38683   0.69826   0.95302   0.00000  Uiso   1.00
Br1027 Br    0.59354   0.67718   0.77943   0.00000  Uiso   1.00
Br1028 Br    0.40646   0.98948   0.72058   0.00000  Uiso   1.00
C1029  C     0.51492   0.93136   0.74877   0.00000  Uiso   1.00
C1030  C     0.52423   0.87713   0.90805   0.00000  Uiso   1.00
C1031  C     0.49893   0.83274   0.61611   0.00000  Uiso   1.00
C1032  C     0.50107   0.83393   0.88389   0.00000  Uiso   1.00
C1033  C     0.52644   0.87514   0.59504   0.00000  Uiso   1.00
C1034  C     0.47356   0.79152   0.90496   0.00000  Uiso   1.00
C1035  C     0.53049   0.87475   0.54783   0.00000  Uiso   1.00
C1036  C     0.46951   0.79192   0.95218   0.00000  Uiso   1.00
C1037  C     0.50058   0.83351   0.52349   0.00000  Uiso   1.00
C1038  C     0.49942   0.83315   0.97651   0.00000  Uiso   1.00
C1039  C     0.47202   0.79220   0.54595   0.00000  Uiso   1.00
C1040  C     0.48508   0.73531   0.75123   0.00000  Uiso   1.00
C1041  C     0.52798   0.87446   0.95405   0.00000  Uiso   1.00
C1042  C     0.56255   0.91332   0.52356   0.00000  Uiso   1.00
C1043  C     0.43745   0.75335   0.97644   0.00000  Uiso   1.00
C1044  C     0.46052   0.73993   0.61384   0.00000  Uiso   1.00
C1045  C     0.53948   0.92673   0.88616   0.00000  Uiso   1.00
C1046  C     0.54886   0.91897   0.62413   0.00000  Uiso   1.00
C1047  C     0.45114   0.74770   0.87587   0.00000  Uiso   1.00
C1048  C     0.66657   0.81747   0.69149   0.00000  Uiso   1.00
C1049  C     0.33343   0.84920   0.80851   0.00000  Uiso   1.00
C1050  C     0.56102   0.91219   0.97761   0.00000  Uiso   1.00
C1051  C     0.43898   0.75447   0.52239   0.00000  Uiso   1.00
C1052  C     0.52218   0.98564   0.75369   0.00000  Uiso   1.00
C1053  C     0.47782   0.68102   0.74631   0.00000  Uiso   1.00
C1054  C     0.50072   0.83458   0.83618   0.00000  Uiso   1.00
C1055  C     0.49928   0.83209   0.66382   0.00000  Uiso   1.00
C1056  C     0.47577   0.78954   0.59195   0.00000  Uiso   1.00
H1057  H     0.58712   0.94135   0.96005   0.00000  Uiso   1.00
H1058  H     0.41289   0.72532   0.53995   0.00000  Uiso   1.00
H1059  H     0.50684   0.69770   0.56728   0.00000  Uiso   1.00
H1060  H     0.49316   0.96897   0.93272   0.00000  Uiso   1.00
H1061  H     0.61459   0.95090   0.65821   0.00000  Uiso   1.00
H1062  H     0.38541   0.71577   0.84179   0.00000  Uiso   1.00
H1063  H     0.66449   0.77585   0.63255   0.00000  Uiso   1.00
H1064  H     0.33551   0.89081   0.86745   0.00000  Uiso   1.00
N1065  N     0.65011   0.81932   0.73783   0.00000  Uiso   1.00
N1066  N     0.34989   0.84735   0.76217   0.00000  Uiso   1.00
O1067  O     0.46308   0.91286   0.75299   0.00000  Uiso   1.00
O1068  O     0.47896   0.69327   0.59428   0.00000  Uiso   1.00
O1069  O     0.56824   0.92716   0.85079   0.00000  Uiso   1.00
O1070  O     0.52104   0.97340   0.90572   0.00000  Uiso   1.00
O1071  O     0.51688   0.95162   0.63960   0.00000  Uiso   1.00
O1072  O     0.60495   0.92015   0.63697   0.00000  Uiso   1.00
O1073  O     0.48312   0.71504   0.86040   0.00000  Uiso   1.00
O1074  O     0.39505   0.74651   0.86303   0.00000  Uiso   1.00
O1075  O     0.34932   0.85708   0.67322   0.00000  Uiso   1.00
O1076  O     0.65583   0.77168   0.66579   0.00000  Uiso   1.00
O1077  O     0.65068   0.80959   0.82678   0.00000  Uiso   1.00
O1078  O     0.53692   0.75381   0.74702   0.00000  Uiso   1.00
O1079  O     0.34417   0.89499   0.83421   0.00000  Uiso   1.00
O1080  O     0.55946   0.90387   0.74519   0.00000  Uiso   1.00
O1081  O     0.44054   0.76279   0.75482   0.00000  Uiso   1.00
O1082  O     0.45181   0.83784   0.81998   0.00000  Uiso   1.00
O1083  O     0.54819   0.82883   0.68003   0.00000  Uiso   1.00
O1084  O     0.54819   0.82885   0.81218   0.00000  Uiso   1.00
O1085  O     0.45181   0.83781   0.68783   0.00000  Uiso   1.00
O1086  O     0.43176   0.73950   0.64921   0.00000  Uiso   1.00
Zn1087 Zn    0.43565   0.83933   0.75521   0.00000  Uiso   1.00
Zn1088 Zn    0.56435   0.82734   0.74479   0.00000  Uiso   1.00
Br1089 Br    0.94650   0.96841   0.54698   0.00000  Uiso   1.00
Br1090 Br    0.72016   0.69826   0.95302   0.00000  Uiso   1.00
Br1091 Br    0.92688   0.67718   0.77943   0.00000  Uiso   1.00
Br1092 Br    0.73979   0.98948   0.72058   0.00000  Uiso   1.00
C1093  C     0.84826   0.93136   0.74877   0.00000  Uiso   1.00
C1094  C     0.85757   0.87713   0.90805   0.00000  Uiso   1.00
C1095  C     0.83226   0.83274   0.61611   0.00000  Uiso   1.00
C1096  C     0.83441   0.83393   0.88389   0.00000  Uiso   1.00
C1097  C     0.85977   0.87514   0.59504   0.00000  Uiso   1.00
C1098  C     0.80690   0.79152   0.90496   0.00000  Uiso   1.00
C1099  C     0.86382   0.87475   0.54783   0.00000  Uiso   1.00
C1100  C     0.80284   0.79192   0.95218   0.00000  Uiso   1.00
C1101  C     0.83392   0.83351   0.52349   0.00000  Uiso   1.00
C1102  C     0.83275   0.83315   0.97651   0.00000  Uiso   1.00
C1103  C     0.80536   0.79220   0.54595   0.00000  Uiso   1.00
C1104  C     0.81841   0.73531   0.75123   0.00000  Uiso   1.00
C1105  C     0.86131   0.87446   0.95405   0.00000  Uiso   1.00
C1106  C     0.89588   0.91332   0.52356   0.00000  Uiso   1.00
C1107  C     0.77078   0.75335   0.97644   0.00000  Uiso   1.00
C1108  C     0.79385   0.73993   0.61384   0.00000  Uiso   1.00
C1109  C     0.87281   0.92673   0.88616   0.00000  Uiso   1.00
C1110  C     0.88220   0.91897   0.62413   0.00000  Uiso   1.00
C1111  C     0.78447   0.74770   0.87587   0.00000  Uiso   1.00
C1112  C     0.99990   0.81747   0.69149   0.00000  Uiso   1.00
C1113  C     0.66677   0.84920   0.80851   0.00000  Uiso   1.00
C1114  C     0.89436   0.91219   0.97761   0.00000  Uiso   1.00
C1115  C     0.77231   0.75447   0.52239   0.00000  Uiso   1.00
C1116  C     0.85552   0.98564   0.75369   0.00000  Uiso   1.00
C1117  C     0.81115   0.68102   0.74631   0.00000  Uiso   1.00
C1118  C     0.83405   0.83458   0.83618   0.00000  Uiso   1.00
C1119  C     0.83261   0.83209   0.66382   0.00000  Uiso   1.00
C1120  C     0.80910   0.78954   0.59195   0.00000  Uiso   1.00
H1121  H     0.92045   0.94135   0.96005   0.00000  Uiso   1.00
H1122  H     0.74622   0.72532   0.53995   0.00000  Uiso   1.00
H1123  H     0.84017   0.69770   0.56728   0.00000  Uiso   1.00
H1124  H     0.82649   0.96897   0.93272   0.00000  Uiso   1.00
H1125  H     0.94792   0.95090   0.65821   0.00000  Uiso   1.00
H1126  H     0.71875   0.71577   0.84179   0.00000  Uiso   1.00
H1127  H     0.99782   0.77585   0.63255   0.00000  Uiso   1.00
H1128  H     0.66885   0.89081   0.86745   0.00000  Uiso   1.00
N1129  N     0.98344   0.81932   0.73783   0.00000  Uiso   1.00
N1130  N     0.68322   0.84735   0.76217   0.00000  Uiso   1.00
O1131  O     0.79642   0.91286   0.75299   0.00000  Uiso   1.00
O1132  O     0.81229   0.69327   0.59428   0.00000  Uiso   1.00
O1133  O     0.90157   0.92716   0.85079   0.00000  Uiso   1.00
O1134  O     0.85438   0.97340   0.90572   0.00000  Uiso   1.00
O1135  O     0.85021   0.95162   0.63960   0.00000  Uiso   1.00
O1136  O     0.93828   0.92015   0.63697   0.00000  Uiso   1.00
O1137  O     0.81645   0.71504   0.86040   0.00000  Uiso   1.00
O1138  O     0.72839   0.74651   0.86303   0.00000  Uiso   1.00
O1139  O     0.68265   0.85708   0.67322   0.00000  Uiso   1.00
O1140  O     0.98916   0.77168   0.66579   0.00000  Uiso   1.00
O1141  O     0.98402   0.80959   0.82678   0.00000  Uiso   1.00
O1142  O     0.87025   0.75381   0.74702   0.00000  Uiso   1.00
O1143  O     0.67751   0.89499   0.83421   0.00000  Uiso   1.00
O1144  O     0.89280   0.90387   0.74519   0.00000  Uiso   1.00
O1145  O     0.77387   0.76279   0.75482   0.00000  Uiso   1.00
O1146  O     0.78514   0.83784   0.81998   0.00000  Uiso   1.00
O1147  O     0.88153   0.82883   0.68003   0.00000  Uiso   1.00
O1148  O     0.88152   0.82885   0.81218   0.00000  Uiso   1.00
O1149  O     0.78515   0.83781   0.68783   0.00000  Uiso   1.00
O1150  O     0.76509   0.73950   0.64921   0.00000  Uiso   1.00
Zn1151 Zn    0.76898   0.83933   0.75521   0.00000  Uiso   1.00
Zn1152 Zn    0.89769   0.82734   0.74479   0.00000  Uiso   1.00
loop_
_geom_bond_atom_site_label_1
_geom_bond_atom_site_label_2
_geom_bond_distance
_geom_bond_site_symmetry_2
_ccdc_geom_bond_type
Br1    C18     1.931   .     S
Br2    C19     1.931   .     S
Br3    C412    1.950   1_545 S
Br4    C221    1.950   .     S
C5     C28     1.412   .     S
C5     O43     1.281   .     A
C5     O56     1.302   .     A
C6     C17     1.394   .     A
C6     C8      1.399   .     A
C6     C21     1.497   .     S
C7     C31     1.432   .     S
C7     C9      1.404   .     A
C7     C32     1.399   .     A
C8     C30     1.432   .     S
C8     C10     1.404   .     A
C9     C11     1.411   .     A
C9     C22     1.483   .     S
C10    C23     1.483   .     S
C10    C12     1.411   .     A
C11    C18     1.421   .     A
C11    C13     1.432   .     A
C12    C19     1.421   .     A
C12    C14     1.432   .     A
C13    C15     1.412   .     A
C13    C590    1.410   1_554 S
C14    C17     1.412   .     A
C14    C589    1.410   .     S
C15    C27     1.398   .     A
C15    C32     1.394   .     A
C16    C29     1.412   .     S
C16    O57     1.302   .     A
C16    O54     1.281   .     A
C17    C26     1.398   .     A
C18    C602    1.379   1_554 S
C19    C603    1.379   .     S
C20    O44     1.397   .     S
C20    O62     1.217   .     D
C20    C32     1.497   .     S
C21    O45     1.217   .     D
C21    O46     1.397   .     S
C22    O48     1.397   .     S
C22    O47     1.220   .     D
C23    O49     1.220   .     D
C23    O50     1.397   .     S
C24    O52     1.396   .     S
C24    N41     1.414   .     S
C24    O115    1.223   .     S
C25    N42     1.414   .     S
C25    O55     1.396   .     S
C25    O181    1.223   1_455 S
C26    H33     1.083   .     S
C26    C594    1.379   .     S
C27    H34     1.083   .     S
C27    C595    1.379   1_554 S
C28    Br195   1.950   .     S
C28    C221    1.361   .     S
C29    C412    1.361   1_545 S
C29    Br388   1.950   1_545 S
C30    O58     1.289   .     A
C30    O60     1.297   .     A
C31    O61     1.297   .     A
C31    O59     1.289   .     A
H35    O44     1.013   .     S
H36    O46     1.013   .     S
H37    O48     1.014   .     S
H38    O50     1.014   .     S
H39    O52     1.014   .     S
H40    O55     1.014   .     S
N41    Zn64    2.036   .     S
N41    N106    1.268   .     S
N42    Zn63    2.036   .     S
N42    N169    1.268   1_455 S
O43    Zn63    1.982   .     S
O51    C152    1.223   1_455 S
O53    C89     1.223   .     S
O54    Zn64    1.982   .     S
O56    Zn64    2.003   .     S
O57    Zn63    2.003   .     S
O58    Zn63    2.008   .     S
O59    Zn64    2.008   .     S
O60    Zn64    2.028   .     S
O61    Zn63    2.028   .     S
Br65   C82     1.931   .     S
Br66   C83     1.931   .     S
Br67   C476    1.950   1_545 S
Br68   C285    1.950   .     S
C69    C92     1.412   .     S
C69    O107    1.281   .     A
C69    O120    1.302   .     A
C70    C81     1.394   .     A
C70    C72     1.399   .     A
C70    C85     1.497   .     S
C71    C95     1.432   .     S
C71    C73     1.404   .     A
C71    C96     1.399   .     A
C72    C94     1.432   .     S
C72    C74     1.404   .     A
C73    C75     1.411   .     A
C73    C86     1.483   .     S
C74    C87     1.483   .     S
C74    C76     1.411   .     A
C75    C82     1.421   .     A
C75    C77     1.432   .     A
C76    C83     1.421   .     A
C76    C78     1.432   .     A
C77    C79     1.412   .     A
C77    C654    1.410   1_554 S
C78    C81     1.412   .     A
C78    C653    1.410   .     S
C79    C91     1.398   .     A
C79    C96     1.394   .     A
C80    C93     1.412   .     S
C80    O121    1.302   .     A
C80    O118    1.281   .     A
C81    C90     1.398   .     A
C82    C666    1.379   1_554 S
C83    C667    1.379   .     S
C84    O108    1.397   .     S
C84    O126    1.217   .     D
C84    C96     1.497   .     S
C85    O109    1.217   .     D
C85    O110    1.397   .     S
C86    O112    1.397   .     S
C86    O111    1.220   .     D
C87    O113    1.220   .     D
C87    O114    1.397   .     S
C88    O116    1.396   .     S
C88    N105    1.414   .     S
C88    O179    1.223   .     S
C89    N106    1.414   .     S
C89    O119    1.396   .     S
C90    H97     1.083   .     S
C90    C658    1.379   .     S
C91    H98     1.083   .     S
C91    C659    1.379   1_554 S
C92    Br259   1.950   .     S
C92    C285    1.361   .     S
C93    C476    1.361   1_545 S
C93    Br452   1.950   1_545 S
C94    O122    1.289   .     A
C94    O124    1.297   .     A
C95    O125    1.297   .     A
C95    O123    1.289   .     A
H99    O108    1.013   .     S
H100   O110    1.013   .     S
H101   O112    1.014   .     S
H102   O114    1.014   .     S
H103   O116    1.014   .     S
H104   O119    1.014   .     S
N105   Zn128   2.036   .     S
N105   N170    1.268   .     S
N106   Zn127   2.036   .     S
O107   Zn127   1.982   .     S
O117   C153    1.223   .     S
O118   Zn128   1.982   .     S
O120   Zn128   2.003   .     S
O121   Zn127   2.003   .     S
O122   Zn127   2.008   .     S
O123   Zn128   2.008   .     S
O124   Zn128   2.028   .     S
O125   Zn127   2.028   .     S
Br129  C146    1.931   .     S
Br130  C147    1.931   .     S
Br131  C540    1.950   1_545 S
Br132  C349    1.950   .     S
C133   C156    1.412   .     S
C133   O171    1.281   .     A
C133   O184    1.302   .     A
C134   C145    1.394   .     A
C134   C136    1.399   .     A
C134   C149    1.497   .     S
C135   C159    1.432   .     S
C135   C137    1.404   .     A
C135   C160    1.399   .     A
C136   C158    1.432   .     S
C136   C138    1.404   .     A
C137   C139    1.411   .     A
C137   C150    1.483   .     S
C138   C151    1.483   .     S
C138   C140    1.411   .     A
C139   C146    1.421   .     A
C139   C141    1.432   .     A
C140   C147    1.421   .     A
C140   C142    1.432   .     A
C141   C143    1.412   .     A
C141   C718    1.410   1_554 S
C142   C145    1.412   .     A
C142   C717    1.410   .     S
C143   C155    1.398   .     A
C143   C160    1.394   .     A
C144   C157    1.412   .     S
C144   O185    1.302   .     A
C144   O182    1.281   .     A
C145   C154    1.398   .     A
C146   C730    1.379   1_554 S
C147   C731    1.379   .     S
C148   O172    1.397   .     S
C148   O190    1.217   .     D
C148   C160    1.497   .     S
C149   O173    1.217   .     D
C149   O174    1.397   .     S
C150   O176    1.397   .     S
C150   O175    1.220   .     D
C151   O177    1.220   .     D
C151   O178    1.397   .     S
C152   O180    1.396   .     S
C152   N169    1.414   .     S
C152   O51     1.223   1_655 S
C153   N170    1.414   .     S
C153   O183    1.396   .     S
C154   H161    1.083   .     S
C154   C722    1.379   .     S
C155   H162    1.083   .     S
C155   C723    1.379   1_554 S
C156   Br323   1.950   .     S
C156   C349    1.361   .     S
C157   C540    1.361   1_545 S
C157   Br516   1.950   1_545 S
C158   O186    1.289   .     A
C158   O188    1.297   .     A
C159   O189    1.297   .     A
C159   O187    1.289   .     A
H163   O172    1.013   .     S
H164   O174    1.013   .     S
H165   O176    1.014   .     S
H166   O178    1.014   .     S
H167   O180    1.014   .     S
H168   O183    1.014   .     S
N169   Zn192   2.036   .     S
N169   N42     1.268   1_655 S
N170   Zn191   2.036   .     S
O171   Zn191   1.982   .     S
O181   C25     1.223   1_655 S
O182   Zn192   1.982   .     S
O184   Zn192   2.003   .     S
O185   Zn191   2.003   .     S
O186   Zn191   2.008   .     S
O187   Zn192   2.008   .     S
O188   Zn192   2.028   .     S
O189   Zn191   2.028   .     S
Br193  C210    1.931   .     S
Br194  C211    1.931   .     S
Br196  C413    1.950   .     S
C197   C220    1.412   .     S
C197   O235    1.281   .     A
C197   O248    1.302   .     A
C198   C209    1.394   .     A
C198   C200    1.399   .     A
C198   C213    1.497   .     S
C199   C223    1.432   .     S
C199   C201    1.404   .     A
C199   C224    1.399   .     A
C200   C222    1.432   .     S
C200   C202    1.404   .     A
C201   C203    1.411   .     A
C201   C214    1.483   .     S
C202   C215    1.483   .     S
C202   C204    1.411   .     A
C203   C210    1.421   .     A
C203   C205    1.432   .     A
C204   C211    1.421   .     A
C204   C206    1.432   .     A
C205   C207    1.412   .     A
C205   C782    1.410   1_554 S
C206   C209    1.412   .     A
C206   C781    1.410   .     S
C207   C219    1.398   .     A
C207   C224    1.394   .     A
C208   C221    1.412   .     S
C208   O249    1.302   .     A
C208   O246    1.281   .     A
C209   C218    1.398   .     A
C210   C794    1.379   1_554 S
C211   C795    1.379   .     S
C212   O236    1.397   .     S
C212   O254    1.217   .     D
C212   C224    1.497   .     S
C213   O237    1.217   .     D
C213   O238    1.397   .     S
C214   O240    1.397   .     S
C214   O239    1.220   .     D
C215   O241    1.220   .     D
C215   O242    1.397   .     S
C216   O244    1.396   .     S
C216   N233    1.414   .     S
C216   O307    1.223   .     S
C217   N234    1.414   .     S
C217   O247    1.396   .     S
C217   O373    1.223   1_455 S
C218   H225    1.083   .     S
C218   C786    1.379   .     S
C219   H226    1.083   .     S
C219   C787    1.379   1_554 S
C220   Br387   1.950   .     S
C220   C413    1.361   .     S
C222   O250    1.289   .     A
C222   O252    1.297   .     A
C223   O253    1.297   .     A
C223   O251    1.289   .     A
H227   O236    1.013   .     S
H228   O238    1.013   .     S
H229   O240    1.014   .     S
H230   O242    1.014   .     S
H231   O244    1.014   .     S
H232   O247    1.014   .     S
N233   Zn256   2.036   .     S
N233   N298    1.268   .     S
N234   Zn255   2.036   .     S
N234   N361    1.268   1_455 S
O235   Zn255   1.982   .     S
O243   C344    1.223   1_455 S
O245   C281    1.223   .     S
O246   Zn256   1.982   .     S
O248   Zn256   2.003   .     S
O249   Zn255   2.003   .     S
O250   Zn255   2.008   .     S
O251   Zn256   2.008   .     S
O252   Zn256   2.028   .     S
O253   Zn255   2.028   .     S
Br257  C274    1.931   .     S
Br258  C275    1.931   .     S
Br260  C477    1.950   .     S
C261   C284    1.412   .     S
C261   O299    1.281   .     A
C261   O312    1.302   .     A
C262   C273    1.394   .     A
C262   C264    1.399   .     A
C262   C277    1.497   .     S
C263   C287    1.432   .     S
C263   C265    1.404   .     A
C263   C288    1.399   .     A
C264   C286    1.432   .     S
C264   C266    1.404   .     A
C265   C267    1.411   .     A
C265   C278    1.483   .     S
C266   C279    1.483   .     S
C266   C268    1.411   .     A
C267   C274    1.421   .     A
C267   C269    1.432   .     A
C268   C275    1.421   .     A
C268   C270    1.432   .     A
C269   C271    1.412   .     A
C269   C846    1.410   1_554 S
C270   C273    1.412   .     A
C270   C845    1.410   .     S
C271   C283    1.398   .     A
C271   C288    1.394   .     A
C272   C285    1.412   .     S
C272   O313    1.302   .     A
C272   O310    1.281   .     A
C273   C282    1.398   .     A
C274   C858    1.379   1_554 S
C275   C859    1.379   .     S
C276   O300    1.397   .     S
C276   O318    1.217   .     D
C276   C288    1.497   .     S
C277   O301    1.217   .     D
C277   O302    1.397   .     S
C278   O304    1.397   .     S
C278   O303    1.220   .     D
C279   O305    1.220   .     D
C279   O306    1.397   .     S
C280   O308    1.396   .     S
C280   N297    1.414   .     S
C280   O371    1.223   .     S
C281   N298    1.414   .     S
C281   O311    1.396   .     S
C282   H289    1.083   .     S
C282   C850    1.379   .     S
C283   H290    1.083   .     S
C283   C851    1.379   1_554 S
C284   Br451   1.950   .     S
C284   C477    1.361   .     S
C286   O314    1.289   .     A
C286   O316    1.297   .     A
C287   O317    1.297   .     A
C287   O315    1.289   .     A
H291   O300    1.013   .     S
H292   O302    1.013   .     S
H293   O304    1.014   .     S
H294   O306    1.014   .     S
H295   O308    1.014   .     S
H296   O311    1.014   .     S
N297   Zn320   2.036   .     S
N297   N362    1.268   .     S
N298   Zn319   2.036   .     S
O299   Zn319   1.982   .     S
O309   C345    1.223   .     S
O310   Zn320   1.982   .     S
O312   Zn320   2.003   .     S
O313   Zn319   2.003   .     S
O314   Zn319   2.008   .     S
O315   Zn320   2.008   .     S
O316   Zn320   2.028   .     S
O317   Zn319   2.028   .     S
Br321  C338    1.931   .     S
Br322  C339    1.931   .     S
Br324  C541    1.950   .     S
C325   C348    1.412   .     S
C325   O363    1.281   .     A
C325   O376    1.302   .     A
C326   C337    1.394   .     A
C326   C328    1.399   .     A
C326   C341    1.497   .     S
C327   C351    1.432   .     S
C327   C329    1.404   .     A
C327   C352    1.399   .     A
C328   C350    1.432   .     S
C328   C330    1.404   .     A
C329   C331    1.411   .     A
C329   C342    1.483   .     S
C330   C343    1.483   .     S
C330   C332    1.411   .     A
C331   C338    1.421   .     A
C331   C333    1.432   .     A
C332   C339    1.421   .     A
C332   C334    1.432   .     A
C333   C335    1.412   .     A
C333   C910    1.410   1_554 S
C334   C337    1.412   .     A
C334   C909    1.410   .     S
C335   C347    1.398   .     A
C335   C352    1.394   .     A
C336   C349    1.412   .     S
C336   O377    1.302   .     A
C336   O374    1.281   .     A
C337   C346    1.398   .     A
C338   C922    1.379   1_554 S
C339   C923    1.379   .     S
C340   O364    1.397   .     S
C340   O382    1.217   .     D
C340   C352    1.497   .     S
C341   O365    1.217   .     D
C341   O366    1.397   .     S
C342   O368    1.397   .     S
C342   O367    1.220   .     D
C343   O369    1.220   .     D
C343   O370    1.397   .     S
C344   O372    1.396   .     S
C344   N361    1.414   .     S
C344   O243    1.223   1_655 S
C345   N362    1.414   .     S
C345   O375    1.396   .     S
C346   H353    1.083   .     S
C346   C914    1.379   .     S
C347   H354    1.083   .     S
C347   C915    1.379   1_554 S
C348   Br515   1.950   .     S
C348   C541    1.361   .     S
C350   O378    1.289   .     A
C350   O380    1.297   .     A
C351   O381    1.297   .     A
C351   O379    1.289   .     A
H355   O364    1.013   .     S
H356   O366    1.013   .     S
H357   O368    1.014   .     S
H358   O370    1.014   .     S
H359   O372    1.014   .     S
H360   O375    1.014   .     S
N361   Zn384   2.036   .     S
N361   N234    1.268   1_655 S
N362   Zn383   2.036   .     S
O363   Zn383   1.982   .     S
O373   C217    1.223   1_655 S
O374   Zn384   1.982   .     S
O376   Zn384   2.003   .     S
O377   Zn383   2.003   .     S
O378   Zn383   2.008   .     S
O379   Zn384   2.008   .     S
O380   Zn384   2.028   .     S
O381   Zn383   2.028   .     S
Br385  C402    1.931   .     S
Br386  C403    1.931   .     S
Br388  C29     1.950   1_565 S
C389   C412    1.412   .     S
C389   O427    1.281   .     A
C389   O440    1.302   .     A
C390   C401    1.394   .     A
C390   C392    1.399   .     A
C390   C405    1.497   .     S
C391   C415    1.432   .     S
C391   C393    1.404   .     A
C391   C416    1.399   .     A
C392   C414    1.432   .     S
C392   C394    1.404   .     A
C393   C395    1.411   .     A
C393   C406    1.483   .     S
C394   C407    1.483   .     S
C394   C396    1.411   .     A
C395   C402    1.421   .     A
C395   C397    1.432   .     A
C396   C403    1.421   .     A
C396   C398    1.432   .     A
C397   C399    1.412   .     A
C397   C974    1.410   1_554 S
C398   C401    1.412   .     A
C398   C973    1.410   .     S
C399   C411    1.398   .     A
C399   C416    1.394   .     A
C400   C413    1.412   .     S
C400   O441    1.302   .     A
C400   O438    1.281   .     A
C401   C410    1.398   .     A
C402   C986    1.379   1_554 S
C403   C987    1.379   .     S
C404   O428    1.397   .     S
C404   O446    1.217   .     D
C404   C416    1.497   .     S
C405   O429    1.217   .     D
C405   O430    1.397   .     S
C406   O432    1.397   .     S
C406   O431    1.220   .     D
C407   O433    1.220   .     D
C407   O434    1.397   .     S
C408   O436    1.396   .     S
C408   N425    1.414   .     S
C408   O499    1.223   .     S
C409   N426    1.414   .     S
C409   O439    1.396   .     S
C409   O565    1.223   1_455 S
C410   H417    1.083   .     S
C410   C978    1.379   .     S
C411   H418    1.083   .     S
C411   C979    1.379   1_554 S
C412   Br3     1.950   1_565 S
C412   C29     1.361   1_565 S
C414   O442    1.289   .     A
C414   O444    1.297   .     A
C415   O445    1.297   .     A
C415   O443    1.289   .     A
H419   O428    1.013   .     S
H420   O430    1.013   .     S
H421   O432    1.014   .     S
H422   O434    1.014   .     S
H423   O436    1.014   .     S
H424   O439    1.014   .     S
N425   Zn448   2.036   .     S
N425   N490    1.268   .     S
N426   Zn447   2.036   .     S
N426   N553    1.268   1_455 S
O427   Zn447   1.982   .     S
O435   C536    1.223   1_455 S
O437   C473    1.223   .     S
O438   Zn448   1.982   .     S
O440   Zn448   2.003   .     S
O441   Zn447   2.003   .     S
O442   Zn447   2.008   .     S
O443   Zn448   2.008   .     S
O444   Zn448   2.028   .     S
O445   Zn447   2.028   .     S
Br449  C466    1.931   .     S
Br450  C467    1.931   .     S
Br452  C93     1.950   1_565 S
C453   C476    1.412   .     S
C453   O491    1.281   .     A
C453   O504    1.302   .     A
C454   C465    1.394   .     A
C454   C456    1.399   .     A
C454   C469    1.497   .     S
C455   C479    1.432   .     S
C455   C457    1.404   .     A
C455   C480    1.399   .     A
C456   C478    1.432   .     S
C456   C458    1.404   .     A
C457   C459    1.411   .     A
C457   C470    1.483   .     S
C458   C471    1.483   .     S
C458   C460    1.411   .     A
C459   C466    1.421   .     A
C459   C461    1.432   .     A
C460   C467    1.421   .     A
C460   C462    1.432   .     A
C461   C463    1.412   .     A
C461   C1038   1.410   1_554 S
C462   C465    1.412   .     A
C462   C1037   1.410   .     S
C463   C475    1.398   .     A
C463   C480    1.394   .     A
C464   C477    1.412   .     S
C464   O505    1.302   .     A
C464   O502    1.281   .     A
C465   C474    1.398   .     A
C466   C1050   1.379   1_554 S
C467   C1051   1.379   .     S
C468   O492    1.397   .     S
C468   O510    1.217   .     D
C468   C480    1.497   .     S
C469   O493    1.217   .     D
C469   O494    1.397   .     S
C470   O496    1.397   .     S
C470   O495    1.220   .     D
C471   O497    1.220   .     D
C471   O498    1.397   .     S
C472   O500    1.396   .     S
C472   N489    1.414   .     S
C472   O563    1.223   .     S
C473   N490    1.414   .     S
C473   O503    1.396   .     S
C474   H481    1.083   .     S
C474   C1042   1.379   .     S
C475   H482    1.083   .     S
C475   C1043   1.379   1_554 S
C476   Br67    1.950   1_565 S
C476   C93     1.361   1_565 S
C478   O506    1.289   .     A
C478   O508    1.297   .     A
C479   O509    1.297   .     A
C479   O507    1.289   .     A
H483   O492    1.013   .     S
H484   O494    1.013   .     S
H485   O496    1.014   .     S
H486   O498    1.014   .     S
H487   O500    1.014   .     S
H488   O503    1.014   .     S
N489   Zn512   2.036   .     S
N489   N554    1.268   .     S
N490   Zn511   2.036   .     S
O491   Zn511   1.982   .     S
O501   C537    1.223   .     S
O502   Zn512   1.982   .     S
O504   Zn512   2.003   .     S
O505   Zn511   2.003   .     S
O506   Zn511   2.008   .     S
O507   Zn512   2.008   .     S
O508   Zn512   2.028   .     S
O509   Zn511   2.028   .     S
Br513  C530    1.931   .     S
Br514  C531    1.931   .     S
Br516  C157    1.950   1_565 S
C517   C540    1.412   .     S
C517   O555    1.281   .     A
C517   O568    1.302   .     A
C518   C529    1.394   .     A
C518   C520    1.399   .     A
C518   C533    1.497   .     S
C519   C543    1.432   .     S
C519   C521    1.404   .     A
C519   C544    1.399   .     A
C520   C542    1.432   .     S
C520   C522    1.404   .     A
C521   C523    1.411   .     A
C521   C534    1.483   .     S
C522   C535    1.483   .     S
C522   C524    1.411   .     A
C523   C530    1.421   .     A
C523   C525    1.432   .     A
C524   C531    1.421   .     A
C524   C526    1.432   .     A
C525   C527    1.412   .     A
C525   C1102   1.410   1_554 S
C526   C529    1.412   .     A
C526   C1101   1.410   .     S
C527   C539    1.398   .     A
C527   C544    1.394   .     A
C528   C541    1.412   .     S
C528   O569    1.302   .     A
C528   O566    1.281   .     A
C529   C538    1.398   .     A
C530   C1114   1.379   1_554 S
C531   C1115   1.379   .     S
C532   O556    1.397   .     S
C532   O574    1.217   .     D
C532   C544    1.497   .     S
C533   O557    1.217   .     D
C533   O558    1.397   .     S
C534   O560    1.397   .     S
C534   O559    1.220   .     D
C535   O561    1.220   .     D
C535   O562    1.397   .     S
C536   O564    1.396   .     S
C536   N553    1.414   .     S
C536   O435    1.223   1_655 S
C537   N554    1.414   .     S
C537   O567    1.396   .     S
C538   H545    1.083   .     S
C538   C1106   1.379   .     S
C539   H546    1.083   .     S
C539   C1107   1.379   1_554 S
C540   Br131   1.950   1_565 S
C540   C157    1.361   1_565 S
C542   O570    1.289   .     A
C542   O572    1.297   .     A
C543   O573    1.297   .     A
C543   O571    1.289   .     A
H547   O556    1.013   .     S
H548   O558    1.013   .     S
H549   O560    1.014   .     S
H550   O562    1.014   .     S
H551   O564    1.014   .     S
H552   O567    1.014   .     S
N553   Zn576   2.036   .     S
N553   N426    1.268   1_655 S
N554   Zn575   2.036   .     S
O555   Zn575   1.982   .     S
O565   C409    1.223   1_655 S
O566   Zn576   1.982   .     S
O568   Zn576   2.003   .     S
O569   Zn575   2.003   .     S
O570   Zn575   2.008   .     S
O571   Zn576   2.008   .     S
O572   Zn576   2.028   .     S
O573   Zn575   2.028   .     S
Br577  C594    1.931   .     S
Br578  C595    1.931   .     S
Br579  C988    1.950   1_545 S
Br580  C797    1.950   .     S
C581   C604    1.412   .     S
C581   O619    1.281   .     A
C581   O632    1.302   .     A
C582   C593    1.394   .     A
C582   C584    1.399   .     A
C582   C597    1.497   .     S
C583   C607    1.432   .     S
C583   C585    1.404   .     A
C583   C608    1.399   .     A
C584   C606    1.432   .     S
C584   C586    1.404   .     A
C585   C587    1.411   .     A
C585   C598    1.483   .     S
C586   C599    1.483   .     S
C586   C588    1.411   .     A
C587   C594    1.421   .     A
C587   C589    1.432   .     A
C588   C595    1.421   .     A
C588   C590    1.432   .     A
C589   C591    1.412   .     A
C590   C593    1.412   .     A
C590   C13     1.410   1_556 S
C591   C603    1.398   .     A
C591   C608    1.394   .     A
C592   C605    1.412   .     S
C592   O633    1.302   .     A
C592   O630    1.281   .     A
C593   C602    1.398   .     A
C595   C27     1.379   1_556 S
C596   O620    1.397   .     S
C596   O638    1.217   .     D
C596   C608    1.497   .     S
C597   O621    1.217   .     D
C597   O622    1.397   .     S
C598   O624    1.397   .     S
C598   O623    1.220   .     D
C599   O625    1.220   .     D
C599   O626    1.397   .     S
C600   O628    1.396   .     S
C600   N617    1.414   .     S
C600   O691    1.223   .     S
C601   N618    1.414   .     S
C601   O631    1.396   .     S
C601   O757    1.223   1_455 S
C602   H609    1.083   .     S
C602   C18     1.379   1_556 S
C603   H610    1.083   .     S
C604   Br771   1.950   .     S
C604   C797    1.361   .     S
C605   C988    1.361   1_545 S
C605   Br964   1.950   1_545 S
C606   O634    1.289   .     A
C606   O636    1.297   .     A
C607   O637    1.297   .     A
C607   O635    1.289   .     A
H611   O620    1.013   .     S
H612   O622    1.013   .     S
H613   O624    1.014   .     S
H614   O626    1.014   .     S
H615   O628    1.014   .     S
H616   O631    1.014   .     S
N617   Zn640   2.036   .     S
N617   N682    1.268   .     S
N618   Zn639   2.036   .     S
N618   N745    1.268   1_455 S
O619   Zn639   1.982   .     S
O627   C728    1.223   1_455 S
O629   C665    1.223   .     S
O630   Zn640   1.982   .     S
O632   Zn640   2.003   .     S
O633   Zn639   2.003   .     S
O634   Zn639   2.008   .     S
O635   Zn640   2.008   .     S
O636   Zn640   2.028   .     S
O637   Zn639   2.028   .     S
Br641  C658    1.931   .     S
Br642  C659    1.931   .     S
Br643  C1052   1.950   1_545 S
Br644  C861    1.950   .     S
C645   C668    1.412   .     S
C645   O683    1.281   .     A
C645   O696    1.302   .     A
C646   C657    1.394   .     A
C646   C648    1.399   .     A
C646   C661    1.497   .     S
C647   C671    1.432   .     S
C647   C649    1.404   .     A
C647   C672    1.399   .     A
C648   C670    1.432   .     S
C648   C650    1.404   .     A
C649   C651    1.411   .     A
C649   C662    1.483   .     S
C650   C663    1.483   .     S
C650   C652    1.411   .     A
C651   C658    1.421   .     A
C651   C653    1.432   .     A
C652   C659    1.421   .     A
C652   C654    1.432   .     A
C653   C655    1.412   .     A
C654   C657    1.412   .     A
C654   C77     1.410   1_556 S
C655   C667    1.398   .     A
C655   C672    1.394   .     A
C656   C669    1.412   .     S
C656   O697    1.302   .     A
C656   O694    1.281   .     A
C657   C666    1.398   .     A
C659   C91     1.379   1_556 S
C660   O684    1.397   .     S
C660   O702    1.217   .     D
C660   C672    1.497   .     S
C661   O685    1.217   .     D
C661   O686    1.397   .     S
C662   O688    1.397   .     S
C662   O687    1.220   .     D
C663   O689    1.220   .     D
C663   O690    1.397   .     S
C664   O692    1.396   .     S
C664   N681    1.414   .     S
C664   O755    1.223   .     S
C665   N682    1.414   .     S
C665   O695    1.396   .     S
C666   H673    1.083   .     S
C666   C82     1.379   1_556 S
C667   H674    1.083   .     S
C668   Br835   1.950   .     S
C668   C861    1.361   .     S
C669   C1052   1.361   1_545 S
C669   Br1028  1.950   1_545 S
C670   O698    1.289   .     A
C670   O700    1.297   .     A
C671   O701    1.297   .     A
C671   O699    1.289   .     A
H675   O684    1.013   .     S
H676   O686    1.013   .     S
H677   O688    1.014   .     S
H678   O690    1.014   .     S
H679   O692    1.014   .     S
H680   O695    1.014   .     S
N681   Zn704   2.036   .     S
N681   N746    1.268   .     S
N682   Zn703   2.036   .     S
O683   Zn703   1.982   .     S
O693   C729    1.223   .     S
O694   Zn704   1.982   .     S
O696   Zn704   2.003   .     S
O697   Zn703   2.003   .     S
O698   Zn703   2.008   .     S
O699   Zn704   2.008   .     S
O700   Zn704   2.028   .     S
O701   Zn703   2.028   .     S
Br705  C722    1.931   .     S
Br706  C723    1.931   .     S
Br707  C1116   1.950   1_545 S
Br708  C925    1.950   .     S
C709   C732    1.412   .     S
C709   O747    1.281   .     A
C709   O760    1.302   .     A
C710   C721    1.394   .     A
C710   C712    1.399   .     A
C710   C725    1.497   .     S
C711   C735    1.432   .     S
C711   C713    1.404   .     A
C711   C736    1.399   .     A
C712   C734    1.432   .     S
C712   C714    1.404   .     A
C713   C715    1.411   .     A
C713   C726    1.483   .     S
C714   C727    1.483   .     S
C714   C716    1.411   .     A
C715   C722    1.421   .     A
C715   C717    1.432   .     A
C716   C723    1.421   .     A
C716   C718    1.432   .     A
C717   C719    1.412   .     A
C718   C721    1.412   .     A
C718   C141    1.410   1_556 S
C719   C731    1.398   .     A
C719   C736    1.394   .     A
C720   C733    1.412   .     S
C720   O761    1.302   .     A
C720   O758    1.281   .     A
C721   C730    1.398   .     A
C723   C155    1.379   1_556 S
C724   O748    1.397   .     S
C724   O766    1.217   .     D
C724   C736    1.497   .     S
C725   O749    1.217   .     D
C725   O750    1.397   .     S
C726   O752    1.397   .     S
C726   O751    1.220   .     D
C727   O753    1.220   .     D
C727   O754    1.397   .     S
C728   O756    1.396   .     S
C728   N745    1.414   .     S
C728   O627    1.223   1_655 S
C729   N746    1.414   .     S
C729   O759    1.396   .     S
C730   H737    1.083   .     S
C730   C146    1.379   1_556 S
C731   H738    1.083   .     S
C732   Br899   1.950   .     S
C732   C925    1.361   .     S
C733   C1116   1.361   1_545 S
C733   Br1092  1.950   1_545 S
C734   O762    1.289   .     A
C734   O764    1.297   .     A
C735   O765    1.297   .     A
C735   O763    1.289   .     A
H739   O748    1.013   .     S
H740   O750    1.013   .     S
H741   O752    1.014   .     S
H742   O754    1.014   .     S
H743   O756    1.014   .     S
H744   O759    1.014   .     S
N745   Zn768   2.036   .     S
N745   N618    1.268   1_655 S
N746   Zn767   2.036   .     S
O747   Zn767   1.982   .     S
O757   C601    1.223   1_655 S
O758   Zn768   1.982   .     S
O760   Zn768   2.003   .     S
O761   Zn767   2.003   .     S
O762   Zn767   2.008   .     S
O763   Zn768   2.008   .     S
O764   Zn768   2.028   .     S
O765   Zn767   2.028   .     S
Br769  C786    1.931   .     S
Br770  C787    1.931   .     S
Br772  C989    1.950   .     S
C773   C796    1.412   .     S
C773   O811    1.281   .     A
C773   O824    1.302   .     A
C774   C785    1.394   .     A
C774   C776    1.399   .     A
C774   C789    1.497   .     S
C775   C799    1.432   .     S
C775   C777    1.404   .     A
C775   C800    1.399   .     A
C776   C798    1.432   .     S
C776   C778    1.404   .     A
C777   C779    1.411   .     A
C777   C790    1.483   .     S
C778   C791    1.483   .     S
C778   C780    1.411   .     A
C779   C786    1.421   .     A
C779   C781    1.432   .     A
C780   C787    1.421   .     A
C780   C782    1.432   .     A
C781   C783    1.412   .     A
C782   C785    1.412   .     A
C782   C205    1.410   1_556 S
C783   C795    1.398   .     A
C783   C800    1.394   .     A
C784   C797    1.412   .     S
C784   O825    1.302   .     A
C784   O822    1.281   .     A
C785   C794    1.398   .     A
C787   C219    1.379   1_556 S
C788   O812    1.397   .     S
C788   O830    1.217   .     D
C788   C800    1.497   .     S
C789   O813    1.217   .     D
C789   O814    1.397   .     S
C790   O816    1.397   .     S
C790   O815    1.220   .     D
C791   O817    1.220   .     D
C791   O818    1.397   .     S
C792   O820    1.396   .     S
C792   N809    1.414   .     S
C792   O883    1.223   .     S
C793   N810    1.414   .     S
C793   O823    1.396   .     S
C793   O949    1.223   1_455 S
C794   H801    1.083   .     S
C794   C210    1.379   1_556 S
C795   H802    1.083   .     S
C796   Br963   1.950   .     S
C796   C989    1.361   .     S
C798   O826    1.289   .     A
C798   O828    1.297   .     A
C799   O829    1.297   .     A
C799   O827    1.289   .     A
H803   O812    1.013   .     S
H804   O814    1.013   .     S
H805   O816    1.014   .     S
H806   O818    1.014   .     S
H807   O820    1.014   .     S
H808   O823    1.014   .     S
N809   Zn832   2.036   .     S
N809   N874    1.268   .     S
N810   Zn831   2.036   .     S
N810   N937    1.268   1_455 S
O811   Zn831   1.982   .     S
O819   C920    1.223   1_455 S
O821   C857    1.223   .     S
O822   Zn832   1.982   .     S
O824   Zn832   2.003   .     S
O825   Zn831   2.003   .     S
O826   Zn831   2.008   .     S
O827   Zn832   2.008   .     S
O828   Zn832   2.028   .     S
O829   Zn831   2.028   .     S
Br833  C850    1.931   .     S
Br834  C851    1.931   .     S
Br836  C1053   1.950   .     S
C837   C860    1.412   .     S
C837   O875    1.281   .     A
C837   O888    1.302   .     A
C838   C849    1.394   .     A
C838   C840    1.399   .     A
C838   C853    1.497   .     S
C839   C863    1.432   .     S
C839   C841    1.404   .     A
C839   C864    1.399   .     A
C840   C862    1.432   .     S
C840   C842    1.404   .     A
C841   C843    1.411   .     A
C841   C854    1.483   .     S
C842   C855    1.483   .     S
C842   C844    1.411   .     A
C843   C850    1.421   .     A
C843   C845    1.432   .     A
C844   C851    1.421   .     A
C844   C846    1.432   .     A
C845   C847    1.412   .     A
C846   C849    1.412   .     A
C846   C269    1.410   1_556 S
C847   C859    1.398   .     A
C847   C864    1.394   .     A
C848   C861    1.412   .     S
C848   O889    1.302   .     A
C848   O886    1.281   .     A
C849   C858    1.398   .     A
C851   C283    1.379   1_556 S
C852   O876    1.397   .     S
C852   O894    1.217   .     D
C852   C864    1.497   .     S
C853   O877    1.217   .     D
C853   O878    1.397   .     S
C854   O880    1.397   .     S
C854   O879    1.220   .     D
C855   O881    1.220   .     D
C855   O882    1.397   .     S
C856   O884    1.396   .     S
C856   N873    1.414   .     S
C856   O947    1.223   .     S
C857   N874    1.414   .     S
C857   O887    1.396   .     S
C858   H865    1.083   .     S
C858   C274    1.379   1_556 S
C859   H866    1.083   .     S
C860   Br1027  1.950   .     S
C860   C1053   1.361   .     S
C862   O890    1.289   .     A
C862   O892    1.297   .     A
C863   O893    1.297   .     A
C863   O891    1.289   .     A
H867   O876    1.013   .     S
H868   O878    1.013   .     S
H869   O880    1.014   .     S
H870   O882    1.014   .     S
H871   O884    1.014   .     S
H872   O887    1.014   .     S
N873   Zn896   2.036   .     S
N873   N938    1.268   .     S
N874   Zn895   2.036   .     S
O875   Zn895   1.982   .     S
O885   C921    1.223   .     S
O886   Zn896   1.982   .     S
O888   Zn896   2.003   .     S
O889   Zn895   2.003   .     S
O890   Zn895   2.008   .     S
O891   Zn896   2.008   .     S
O892   Zn896   2.028   .     S
O893   Zn895   2.028   .     S
Br897  C914    1.931   .     S
Br898  C915    1.931   .     S
Br900  C1117   1.950   .     S
C901   C924    1.412   .     S
C901   O939    1.281   .     A
C901   O952    1.302   .     A
C902   C913    1.394   .     A
C902   C904    1.399   .     A
C902   C917    1.497   .     S
C903   C927    1.432   .     S
C903   C905    1.404   .     A
C903   C928    1.399   .     A
C904   C926    1.432   .     S
C904   C906    1.404   .     A
C905   C907    1.411   .     A
C905   C918    1.483   .     S
C906   C919    1.483   .     S
C906   C908    1.411   .     A
C907   C914    1.421   .     A
C907   C909    1.432   .     A
C908   C915    1.421   .     A
C908   C910    1.432   .     A
C909   C911    1.412   .     A
C910   C913    1.412   .     A
C910   C333    1.410   1_556 S
C911   C923    1.398   .     A
C911   C928    1.394   .     A
C912   C925    1.412   .     S
C912   O953    1.302   .     A
C912   O950    1.281   .     A
C913   C922    1.398   .     A
C915   C347    1.379   1_556 S
C916   O940    1.397   .     S
C916   O958    1.217   .     D
C916   C928    1.497   .     S
C917   O941    1.217   .     D
C917   O942    1.397   .     S
C918   O944    1.397   .     S
C918   O943    1.220   .     D
C919   O945    1.220   .     D
C919   O946    1.397   .     S
C920   O948    1.396   .     S
C920   N937    1.414   .     S
C920   O819    1.223   1_655 S
C921   N938    1.414   .     S
C921   O951    1.396   .     S
C922   H929    1.083   .     S
C922   C338    1.379   1_556 S
C923   H930    1.083   .     S
C924   Br1091  1.950   .     S
C924   C1117   1.361   .     S
C926   O954    1.289   .     A
C926   O956    1.297   .     A
C927   O957    1.297   .     A
C927   O955    1.289   .     A
H931   O940    1.013   .     S
H932   O942    1.013   .     S
H933   O944    1.014   .     S
H934   O946    1.014   .     S
H935   O948    1.014   .     S
H936   O951    1.014   .     S
N937   Zn960   2.036   .     S
N937   N810    1.268   1_655 S
N938   Zn959   2.036   .     S
O939   Zn959   1.982   .     S
O949   C793    1.223   1_655 S
O950   Zn960   1.982   .     S
O952   Zn960   2.003   .     S
O953   Zn959   2.003   .     S
O954   Zn959   2.008   .     S
O955   Zn960   2.008   .     S
O956   Zn960   2.028   .     S
O957   Zn959   2.028   .     S
Br961  C978    1.931   .     S
Br962  C979    1.931   .     S
Br964  C605    1.950   1_565 S
C965   C988    1.412   .     S
C965   O1003   1.281   .     A
C965   O1016   1.302   .     A
C966   C977    1.394   .     A
C966   C968    1.399   .     A
C966   C981    1.497   .     S
C967   C991    1.432   .     S
C967   C969    1.404   .     A
C967   C992    1.399   .     A
C968   C990    1.432   .     S
C968   C970    1.404   .     A
C969   C971    1.411   .     A
C969   C982    1.483   .     S
C970   C983    1.483   .     S
C970   C972    1.411   .     A
C971   C978    1.421   .     A
C971   C973    1.432   .     A
C972   C979    1.421   .     A
C972   C974    1.432   .     A
C973   C975    1.412   .     A
C974   C977    1.412   .     A
C974   C397    1.410   1_556 S
C975   C987    1.398   .     A
C975   C992    1.394   .     A
C976   C989    1.412   .     S
C976   O1017   1.302   .     A
C976   O1014   1.281   .     A
C977   C986    1.398   .     A
C979   C411    1.379   1_556 S
C980   O1004   1.397   .     S
C980   O1022   1.217   .     D
C980   C992    1.497   .     S
C981   O1005   1.217   .     D
C981   O1006   1.397   .     S
C982   O1008   1.397   .     S
C982   O1007   1.220   .     D
C983   O1009   1.220   .     D
C983   O1010   1.397   .     S
C984   O1012   1.396   .     S
C984   N1001   1.414   .     S
C984   O1075   1.223   .     S
C985   N1002   1.414   .     S
C985   O1015   1.396   .     S
C985   O1141   1.223   1_455 S
C986   H993    1.083   .     S
C986   C402    1.379   1_556 S
C987   H994    1.083   .     S
C988   Br579   1.950   1_565 S
C988   C605    1.361   1_565 S
C990   O1018   1.289   .     A
C990   O1020   1.297   .     A
C991   O1021   1.297   .     A
C991   O1019   1.289   .     A
H995   O1004   1.013   .     S
H996   O1006   1.013   .     S
H997   O1008   1.014   .     S
H998   O1010   1.014   .     S
H999   O1012   1.014   .     S
H1000  O1015   1.014   .     S
N1001  Zn1024  2.036   .     S
N1001  N1066   1.268   .     S
N1002  Zn1023  2.036   .     S
N1002  N1129   1.268   1_455 S
O1003  Zn1023  1.982   .     S
O1011  C1112   1.223   1_455 S
O1013  C1049   1.223   .     S
O1014  Zn1024  1.982   .     S
O1016  Zn1024  2.003   .     S
O1017  Zn1023  2.003   .     S
O1018  Zn1023  2.008   .     S
O1019  Zn1024  2.008   .     S
O1020  Zn1024  2.028   .     S
O1021  Zn1023  2.028   .     S
Br1025 C1042   1.931   .     S
Br1026 C1043   1.931   .     S
Br1028 C669    1.950   1_565 S
C1029  C1052   1.412   .     S
C1029  O1067   1.281   .     A
C1029  O1080   1.302   .     A
C1030  C1041   1.394   .     A
C1030  C1032   1.399   .     A
C1030  C1045   1.497   .     S
C1031  C1055   1.432   .     S
C1031  C1033   1.404   .     A
C1031  C1056   1.399   .     A
C1032  C1054   1.432   .     S
C1032  C1034   1.404   .     A
C1033  C1035   1.411   .     A
C1033  C1046   1.483   .     S
C1034  C1047   1.483   .     S
C1034  C1036   1.411   .     A
C1035  C1042   1.421   .     A
C1035  C1037   1.432   .     A
C1036  C1043   1.421   .     A
C1036  C1038   1.432   .     A
C1037  C1039   1.412   .     A
C1038  C1041   1.412   .     A
C1038  C461    1.410   1_556 S
C1039  C1051   1.398   .     A
C1039  C1056   1.394   .     A
C1040  C1053   1.412   .     S
C1040  O1081   1.302   .     A
C1040  O1078   1.281   .     A
C1041  C1050   1.398   .     A
C1043  C475    1.379   1_556 S
C1044  O1068   1.397   .     S
C1044  O1086   1.217   .     D
C1044  C1056   1.497   .     S
C1045  O1069   1.217   .     D
C1045  O1070   1.397   .     S
C1046  O1072   1.397   .     S
C1046  O1071   1.220   .     D
C1047  O1073   1.220   .     D
C1047  O1074   1.397   .     S
C1048  O1076   1.396   .     S
C1048  N1065   1.414   .     S
C1048  O1139   1.223   .     S
C1049  N1066   1.414   .     S
C1049  O1079   1.396   .     S
C1050  H1057   1.083   .     S
C1050  C466    1.379   1_556 S
C1051  H1058   1.083   .     S
C1052  Br643   1.950   1_565 S
C1052  C669    1.361   1_565 S
C1054  O1082   1.289   .     A
C1054  O1084   1.297   .     A
C1055  O1085   1.297   .     A
C1055  O1083   1.289   .     A
H1059  O1068   1.013   .     S
H1060  O1070   1.013   .     S
H1061  O1072   1.014   .     S
H1062  O1074   1.014   .     S
H1063  O1076   1.014   .     S
H1064  O1079   1.014   .     S
N1065  Zn1088  2.036   .     S
N1065  N1130   1.268   .     S
N1066  Zn1087  2.036   .     S
O1067  Zn1087  1.982   .     S
O1077  C1113   1.223   .     S
O1078  Zn1088  1.982   .     S
O1080  Zn1088  2.003   .     S
O1081  Zn1087  2.003   .     S
O1082  Zn1087  2.008   .     S
O1083  Zn1088  2.008   .     S
O1084  Zn1088  2.028   .     S
O1085  Zn1087  2.028   .     S
Br1089 C1106   1.931   .     S
Br1090 C1107   1.931   .     S
Br1092 C733    1.950   1_565 S
C1093  C1116   1.412   .     S
C1093  O1131   1.281   .     A
C1093  O1144   1.302   .     A
C1094  C1105   1.394   .     A
C1094  C1096   1.399   .     A
C1094  C1109   1.497   .     S
C1095  C1119   1.432   .     S
C1095  C1097   1.404   .     A
C1095  C1120   1.399   .     A
C1096  C1118   1.432   .     S
C1096  C1098   1.404   .     A
C1097  C1099   1.411   .     A
C1097  C1110   1.483   .     S
C1098  C1111   1.483   .     S
C1098  C1100   1.411   .     A
C1099  C1106   1.421   .     A
C1099  C1101   1.432   .     A
C1100  C1107   1.421   .     A
C1100  C1102   1.432   .     A
C1101  C1103   1.412   .     A
C1102  C1105   1.412   .     A
C1102  C525    1.410   1_556 S
C1103  C1115   1.398   .     A
C1103  C1120   1.394   .     A
C1104  C1117   1.412   .     S
C1104  O1145   1.302   .     A
C1104  O1142   1.281   .     A
C1105  C1114   1.398   .     A
C1107  C539    1.379   1_556 S
C1108  O1132   1.397   .     S
C1108  O1150   1.217   .     D
C1108  C1120   1.497   .     S
C1109  O1133   1.217   .     D
C1109  O1134   1.397   .     S
C1110  O1136   1.397   .     S
C1110  O1135   1.220   .     D
C1111  O1137   1.220   .     D
C1111  O1138   1.397   .     S
C1112  O1140   1.396   .     S
C1112  N1129   1.414   .     S
C1112  O1011   1.223   1_655 S
C1113  N1130   1.414   .     S
C1113  O1143   1.396   .     S
C1114  H1121   1.083   .     S
C1114  C530    1.379   1_556 S
C1115  H1122   1.083   .     S
C1116  Br707   1.950   1_565 S
C1116  C733    1.361   1_565 S
C1118  O1146   1.289   .     A
C1118  O1148   1.297   .     A
C1119  O1149   1.297   .     A
C1119  O1147   1.289   .     A
H1123  O1132   1.013   .     S
H1124  O1134   1.013   .     S
H1125  O1136   1.014   .     S
H1126  O1138   1.014   .     S
H1127  O1140   1.014   .     S
H1128  O1143   1.014   .     S
N1129  Zn1152  2.036   .     S
N1129  N1002   1.268   1_655 S
N1130  Zn1151  2.036   .     S
O1131  Zn1151  1.982   .     S
O1141  C985    1.223   1_655 S
O1142  Zn1152  1.982   .     S
O1144  Zn1152  2.003   .     S
O1145  Zn1151  2.003   .     S
O1146  Zn1151  2.008   .     S
O1147  Zn1152  2.008   .     S
O1148  Zn1152  2.028   .     S
O1149  Zn1151  2.028   .     S
