data_str_m3_o1_o10_pcu_sym.29
_audit_creation_date              2020-01-03
_audit_creation_method            'Materials Studio'
_symmetry_space_group_name_H-M    'P1'
_symmetry_Int_Tables_number       1
_symmetry_cell_setting            triclinic
loop_
_symmetry_equiv_pos_as_xyz
  x,y,z
_cell_length_a                    25.7671
_cell_length_b                    31.9649
_cell_length_c                    29.5714
_cell_angle_alpha                 90.3082
_cell_angle_beta                  98.6648
_cell_angle_gamma                 89.9114
loop_
_atom_site_label
_atom_site_type_symbol
_atom_site_fract_x
_atom_site_fract_y
_atom_site_fract_z
_atom_site_U_iso_or_equiv
_atom_site_adp_type
_atom_site_occupancy
C1     C     0.16852   0.08677   0.16676   0.00000  Uiso   1.00
C2     C     0.20489   0.02037   0.19894   0.00000  Uiso   1.00
C3     C     0.16337   0.29075   0.16688   0.00000  Uiso   1.00
C4     C     0.16996   0.04258   0.16645   0.00000  Uiso   1.00
C5     C     0.19921   0.19269   0.02837   0.00000  Uiso   1.00
C6     C     0.13413   0.14064   0.30496   0.00000  Uiso   1.00
C7     C     0.19919   0.19268   0.31377   0.00000  Uiso   1.00
C8     C     0.13414   0.14065   0.01956   0.00000  Uiso   1.00
C9     C     0.08576   0.29304   0.10187   0.00000  Uiso   1.00
C10    C     0.24757   0.04029   0.23146   0.00000  Uiso   1.00
C11    C     0.16482   0.24657   0.16657   0.00000  Uiso   1.00
C12    C     0.06704   0.16654   0.15469   0.00000  Uiso   1.00
C13    C     0.26629   0.16679   0.17864   0.00000  Uiso   1.00
C14    C     0.01199   0.16665   0.14826   0.00000  Uiso   1.00
C15    C     0.32134   0.16668   0.18508   0.00000  Uiso   1.00
C16    C     0.13287   0.02259   0.13432   0.00000  Uiso   1.00
C17    C     0.20046   0.31074   0.19901   0.00000  Uiso   1.00
C18    C     0.12844   0.31297   0.13440   0.00000  Uiso   1.00
H19    H     0.32468   0.16680   0.11334   0.00000  Uiso   1.00
H20    H     0.29523   0.03705   0.29213   0.00000  Uiso   1.00
H21    H     0.00865   0.16654   0.22000   0.00000  Uiso   1.00
H22    H     0.10583   0.04088   0.11050   0.00000  Uiso   1.00
H23    H     0.22750   0.29245   0.22283   0.00000  Uiso   1.00
H24    H     0.22525   0.21350   0.05002   0.00000  Uiso   1.00
H25    H     0.10808   0.11983   0.28331   0.00000  Uiso   1.00
H26    H     0.22520   0.21350   0.29917   0.00000  Uiso   1.00
H27    H     0.10813   0.11983   0.03416   0.00000  Uiso   1.00
H28    H     0.03810   0.29628   0.04120   0.00000  Uiso   1.00
N29    N     0.16665   0.16666   0.28573   0.00000  Uiso   1.00
N30    N     0.16668   0.16668   0.04760   0.00000  Uiso   1.00
O31    O     0.16666   0.10558   0.20487   0.00000  Uiso   1.00
O32    O     0.06753   0.31246   0.06021   0.00000  Uiso   1.00
O33    O     0.26795   0.07280   0.22147   0.00000  Uiso   1.00
O34    O     0.26580   0.02087   0.27312   0.00000  Uiso   1.00
O35    O     0.16667   0.22775   0.12846   0.00000  Uiso   1.00
O36    O     0.16666   0.10559   0.12843   0.00000  Uiso   1.00
O37    O     0.16667   0.22774   0.20490   0.00000  Uiso   1.00
O38    O     0.09058   0.16666   0.19595   0.00000  Uiso   1.00
O39    O     0.24275   0.16667   0.13739   0.00000  Uiso   1.00
O40    O     0.09058   0.16667   0.11950   0.00000  Uiso   1.00
O41    O     0.24275   0.16666   0.21383   0.00000  Uiso   1.00
O42    O     0.06538   0.26053   0.11186   0.00000  Uiso   1.00
Zn43   Zn    0.16667   0.16666   0.21771   0.00000  Uiso   1.00
Zn44   Zn    0.16667   0.16667   0.11563   0.00000  Uiso   1.00
C45    C     0.50185   0.08677   0.16676   0.00000  Uiso   1.00
C46    C     0.53823   0.02037   0.19894   0.00000  Uiso   1.00
C47    C     0.49671   0.29075   0.16688   0.00000  Uiso   1.00
C48    C     0.50329   0.04258   0.16645   0.00000  Uiso   1.00
C49    C     0.53254   0.19269   0.02837   0.00000  Uiso   1.00
C50    C     0.46746   0.14064   0.30496   0.00000  Uiso   1.00
C51    C     0.53252   0.19268   0.31377   0.00000  Uiso   1.00
C52    C     0.46748   0.14065   0.01956   0.00000  Uiso   1.00
C53    C     0.41909   0.29304   0.10187   0.00000  Uiso   1.00
C54    C     0.58091   0.04029   0.23146   0.00000  Uiso   1.00
C55    C     0.49815   0.24657   0.16657   0.00000  Uiso   1.00
C56    C     0.40037   0.16654   0.15469   0.00000  Uiso   1.00
C57    C     0.59963   0.16679   0.17864   0.00000  Uiso   1.00
C58    C     0.34532   0.16665   0.14826   0.00000  Uiso   1.00
C59    C     0.65468   0.16668   0.18508   0.00000  Uiso   1.00
C60    C     0.46621   0.02259   0.13432   0.00000  Uiso   1.00
C61    C     0.53379   0.31074   0.19901   0.00000  Uiso   1.00
C62    C     0.46177   0.31297   0.13440   0.00000  Uiso   1.00
H63    H     0.65801   0.16680   0.11334   0.00000  Uiso   1.00
H64    H     0.62857   0.03705   0.29213   0.00000  Uiso   1.00
H65    H     0.34199   0.16654   0.22000   0.00000  Uiso   1.00
H66    H     0.43917   0.04088   0.11050   0.00000  Uiso   1.00
H67    H     0.56083   0.29245   0.22283   0.00000  Uiso   1.00
H68    H     0.55859   0.21350   0.05002   0.00000  Uiso   1.00
H69    H     0.44141   0.11983   0.28331   0.00000  Uiso   1.00
H70    H     0.55854   0.21350   0.29917   0.00000  Uiso   1.00
H71    H     0.44146   0.11983   0.03416   0.00000  Uiso   1.00
H72    H     0.37143   0.29628   0.04120   0.00000  Uiso   1.00
N73    N     0.49999   0.16666   0.28573   0.00000  Uiso   1.00
N74    N     0.50001   0.16668   0.04760   0.00000  Uiso   1.00
O75    O     0.50000   0.10558   0.20487   0.00000  Uiso   1.00
O76    O     0.40086   0.31246   0.06021   0.00000  Uiso   1.00
O77    O     0.60128   0.07280   0.22147   0.00000  Uiso   1.00
O78    O     0.59914   0.02087   0.27312   0.00000  Uiso   1.00
O79    O     0.50000   0.22775   0.12846   0.00000  Uiso   1.00
O80    O     0.50000   0.10559   0.12843   0.00000  Uiso   1.00
O81    O     0.50000   0.22774   0.20490   0.00000  Uiso   1.00
O82    O     0.42392   0.16666   0.19595   0.00000  Uiso   1.00
O83    O     0.57608   0.16667   0.13739   0.00000  Uiso   1.00
O84    O     0.42392   0.16667   0.11950   0.00000  Uiso   1.00
O85    O     0.57608   0.16666   0.21383   0.00000  Uiso   1.00
O86    O     0.39872   0.26053   0.11186   0.00000  Uiso   1.00
Zn87   Zn    0.50000   0.16666   0.21771   0.00000  Uiso   1.00
Zn88   Zn    0.50000   0.16667   0.11563   0.00000  Uiso   1.00
C89    C     0.83519   0.08677   0.16676   0.00000  Uiso   1.00
C90    C     0.87156   0.02037   0.19894   0.00000  Uiso   1.00
C91    C     0.83004   0.29075   0.16688   0.00000  Uiso   1.00
C92    C     0.83663   0.04258   0.16645   0.00000  Uiso   1.00
C93    C     0.86587   0.19269   0.02837   0.00000  Uiso   1.00
C94    C     0.80079   0.14064   0.30496   0.00000  Uiso   1.00
C95    C     0.86586   0.19268   0.31377   0.00000  Uiso   1.00
C96    C     0.80081   0.14065   0.01956   0.00000  Uiso   1.00
C97    C     0.75243   0.29304   0.10187   0.00000  Uiso   1.00
C98    C     0.91424   0.04029   0.23146   0.00000  Uiso   1.00
C99    C     0.83148   0.24657   0.16657   0.00000  Uiso   1.00
C100   C     0.73371   0.16654   0.15469   0.00000  Uiso   1.00
C101   C     0.93296   0.16679   0.17864   0.00000  Uiso   1.00
C102   C     0.67866   0.16665   0.14826   0.00000  Uiso   1.00
C103   C     0.98801   0.16668   0.18508   0.00000  Uiso   1.00
C104   C     0.79954   0.02259   0.13432   0.00000  Uiso   1.00
C105   C     0.86713   0.31074   0.19901   0.00000  Uiso   1.00
C106   C     0.79511   0.31297   0.13440   0.00000  Uiso   1.00
H107   H     0.99135   0.16680   0.11334   0.00000  Uiso   1.00
H108   H     0.96190   0.03705   0.29213   0.00000  Uiso   1.00
H109   H     0.67532   0.16654   0.22000   0.00000  Uiso   1.00
H110   H     0.77250   0.04088   0.11050   0.00000  Uiso   1.00
H111   H     0.89417   0.29245   0.22283   0.00000  Uiso   1.00
H112   H     0.89192   0.21350   0.05002   0.00000  Uiso   1.00
H113   H     0.77475   0.11983   0.28331   0.00000  Uiso   1.00
H114   H     0.89187   0.21350   0.29917   0.00000  Uiso   1.00
H115   H     0.77480   0.11983   0.03416   0.00000  Uiso   1.00
H116   H     0.70477   0.29628   0.04120   0.00000  Uiso   1.00
N117   N     0.83332   0.16666   0.28573   0.00000  Uiso   1.00
N118   N     0.83335   0.16668   0.04760   0.00000  Uiso   1.00
O119   O     0.83333   0.10558   0.20487   0.00000  Uiso   1.00
O120   O     0.73420   0.31246   0.06021   0.00000  Uiso   1.00
O121   O     0.93462   0.07280   0.22147   0.00000  Uiso   1.00
O122   O     0.93247   0.02087   0.27312   0.00000  Uiso   1.00
O123   O     0.83334   0.22775   0.12846   0.00000  Uiso   1.00
O124   O     0.83333   0.10559   0.12843   0.00000  Uiso   1.00
O125   O     0.83334   0.22774   0.20490   0.00000  Uiso   1.00
O126   O     0.75725   0.16666   0.19595   0.00000  Uiso   1.00
O127   O     0.90942   0.16667   0.13739   0.00000  Uiso   1.00
O128   O     0.75725   0.16667   0.11950   0.00000  Uiso   1.00
O129   O     0.90942   0.16666   0.21383   0.00000  Uiso   1.00
O130   O     0.73205   0.26053   0.11186   0.00000  Uiso   1.00
Zn131  Zn    0.83333   0.16666   0.21771   0.00000  Uiso   1.00
Zn132  Zn    0.83333   0.16667   0.11563   0.00000  Uiso   1.00
C133   C     0.16852   0.42010   0.16676   0.00000  Uiso   1.00
C134   C     0.20489   0.35370   0.19894   0.00000  Uiso   1.00
C135   C     0.16337   0.62408   0.16688   0.00000  Uiso   1.00
C136   C     0.16996   0.37592   0.16645   0.00000  Uiso   1.00
C137   C     0.19921   0.52602   0.02837   0.00000  Uiso   1.00
C138   C     0.13413   0.47398   0.30496   0.00000  Uiso   1.00
C139   C     0.19919   0.52601   0.31377   0.00000  Uiso   1.00
C140   C     0.13414   0.47399   0.01956   0.00000  Uiso   1.00
C141   C     0.08576   0.62638   0.10187   0.00000  Uiso   1.00
C142   C     0.24757   0.37362   0.23146   0.00000  Uiso   1.00
C143   C     0.16482   0.57990   0.16657   0.00000  Uiso   1.00
C144   C     0.06704   0.49987   0.15469   0.00000  Uiso   1.00
C145   C     0.26629   0.50013   0.17864   0.00000  Uiso   1.00
C146   C     0.01199   0.49999   0.14826   0.00000  Uiso   1.00
C147   C     0.32134   0.50001   0.18508   0.00000  Uiso   1.00
C148   C     0.13287   0.35593   0.13432   0.00000  Uiso   1.00
C149   C     0.20046   0.64407   0.19901   0.00000  Uiso   1.00
C150   C     0.12844   0.64630   0.13440   0.00000  Uiso   1.00
H151   H     0.32468   0.50013   0.11334   0.00000  Uiso   1.00
H152   H     0.29523   0.37039   0.29213   0.00000  Uiso   1.00
H153   H     0.00865   0.49987   0.22000   0.00000  Uiso   1.00
H154   H     0.10583   0.37422   0.11050   0.00000  Uiso   1.00
H155   H     0.22750   0.62578   0.22283   0.00000  Uiso   1.00
H156   H     0.22525   0.54684   0.05002   0.00000  Uiso   1.00
H157   H     0.10808   0.45316   0.28331   0.00000  Uiso   1.00
H158   H     0.22520   0.54683   0.29917   0.00000  Uiso   1.00
H159   H     0.10813   0.45317   0.03416   0.00000  Uiso   1.00
H160   H     0.03810   0.62961   0.04120   0.00000  Uiso   1.00
N161   N     0.16665   0.49999   0.28573   0.00000  Uiso   1.00
N162   N     0.16668   0.50001   0.04760   0.00000  Uiso   1.00
O163   O     0.16666   0.43892   0.20487   0.00000  Uiso   1.00
O164   O     0.06753   0.64580   0.06021   0.00000  Uiso   1.00
O165   O     0.26795   0.40613   0.22147   0.00000  Uiso   1.00
O166   O     0.26580   0.35420   0.27312   0.00000  Uiso   1.00
O167   O     0.16667   0.56108   0.12846   0.00000  Uiso   1.00
O168   O     0.16666   0.43893   0.12843   0.00000  Uiso   1.00
O169   O     0.16667   0.56107   0.20490   0.00000  Uiso   1.00
O170   O     0.09058   0.50000   0.19595   0.00000  Uiso   1.00
O171   O     0.24275   0.50000   0.13739   0.00000  Uiso   1.00
O172   O     0.09058   0.50000   0.11950   0.00000  Uiso   1.00
O173   O     0.24275   0.50000   0.21383   0.00000  Uiso   1.00
O174   O     0.06538   0.59387   0.11186   0.00000  Uiso   1.00
Zn175  Zn    0.16667   0.49999   0.21771   0.00000  Uiso   1.00
Zn176  Zn    0.16667   0.50001   0.11563   0.00000  Uiso   1.00
C177   C     0.50185   0.42010   0.16676   0.00000  Uiso   1.00
C178   C     0.53823   0.35370   0.19894   0.00000  Uiso   1.00
C179   C     0.49671   0.62408   0.16688   0.00000  Uiso   1.00
C180   C     0.50329   0.37592   0.16645   0.00000  Uiso   1.00
C181   C     0.53254   0.52602   0.02837   0.00000  Uiso   1.00
C182   C     0.46746   0.47398   0.30496   0.00000  Uiso   1.00
C183   C     0.53252   0.52601   0.31377   0.00000  Uiso   1.00
C184   C     0.46748   0.47399   0.01956   0.00000  Uiso   1.00
C185   C     0.41909   0.62638   0.10187   0.00000  Uiso   1.00
C186   C     0.58091   0.37362   0.23146   0.00000  Uiso   1.00
C187   C     0.49815   0.57990   0.16657   0.00000  Uiso   1.00
C188   C     0.40037   0.49987   0.15469   0.00000  Uiso   1.00
C189   C     0.59963   0.50013   0.17864   0.00000  Uiso   1.00
C190   C     0.34532   0.49999   0.14826   0.00000  Uiso   1.00
C191   C     0.65468   0.50001   0.18508   0.00000  Uiso   1.00
C192   C     0.46621   0.35593   0.13432   0.00000  Uiso   1.00
C193   C     0.53379   0.64407   0.19901   0.00000  Uiso   1.00
C194   C     0.46177   0.64630   0.13440   0.00000  Uiso   1.00
H195   H     0.65801   0.50013   0.11334   0.00000  Uiso   1.00
H196   H     0.62857   0.37039   0.29213   0.00000  Uiso   1.00
H197   H     0.34199   0.49987   0.22000   0.00000  Uiso   1.00
H198   H     0.43917   0.37422   0.11050   0.00000  Uiso   1.00
H199   H     0.56083   0.62578   0.22283   0.00000  Uiso   1.00
H200   H     0.55859   0.54684   0.05002   0.00000  Uiso   1.00
H201   H     0.44141   0.45316   0.28331   0.00000  Uiso   1.00
H202   H     0.55854   0.54683   0.29917   0.00000  Uiso   1.00
H203   H     0.44146   0.45317   0.03416   0.00000  Uiso   1.00
H204   H     0.37143   0.62961   0.04120   0.00000  Uiso   1.00
N205   N     0.49999   0.49999   0.28573   0.00000  Uiso   1.00
N206   N     0.50001   0.50001   0.04760   0.00000  Uiso   1.00
O207   O     0.50000   0.43892   0.20487   0.00000  Uiso   1.00
O208   O     0.40086   0.64580   0.06021   0.00000  Uiso   1.00
O209   O     0.60128   0.40613   0.22147   0.00000  Uiso   1.00
O210   O     0.59914   0.35420   0.27312   0.00000  Uiso   1.00
O211   O     0.50000   0.56108   0.12846   0.00000  Uiso   1.00
O212   O     0.50000   0.43893   0.12843   0.00000  Uiso   1.00
O213   O     0.50000   0.56107   0.20490   0.00000  Uiso   1.00
O214   O     0.42392   0.50000   0.19595   0.00000  Uiso   1.00
O215   O     0.57608   0.50000   0.13739   0.00000  Uiso   1.00
O216   O     0.42392   0.50000   0.11950   0.00000  Uiso   1.00
O217   O     0.57608   0.50000   0.21383   0.00000  Uiso   1.00
O218   O     0.39872   0.59387   0.11186   0.00000  Uiso   1.00
Zn219  Zn    0.50000   0.49999   0.21771   0.00000  Uiso   1.00
Zn220  Zn    0.50000   0.50001   0.11563   0.00000  Uiso   1.00
C221   C     0.83519   0.42010   0.16676   0.00000  Uiso   1.00
C222   C     0.87156   0.35370   0.19894   0.00000  Uiso   1.00
C223   C     0.83004   0.62408   0.16688   0.00000  Uiso   1.00
C224   C     0.83663   0.37592   0.16645   0.00000  Uiso   1.00
C225   C     0.86587   0.52602   0.02837   0.00000  Uiso   1.00
C226   C     0.80079   0.47398   0.30496   0.00000  Uiso   1.00
C227   C     0.86586   0.52601   0.31377   0.00000  Uiso   1.00
C228   C     0.80081   0.47399   0.01956   0.00000  Uiso   1.00
C229   C     0.75243   0.62638   0.10187   0.00000  Uiso   1.00
C230   C     0.91424   0.37362   0.23146   0.00000  Uiso   1.00
C231   C     0.83148   0.57990   0.16657   0.00000  Uiso   1.00
C232   C     0.73371   0.49987   0.15469   0.00000  Uiso   1.00
C233   C     0.93296   0.50013   0.17864   0.00000  Uiso   1.00
C234   C     0.67866   0.49999   0.14826   0.00000  Uiso   1.00
C235   C     0.98801   0.50001   0.18508   0.00000  Uiso   1.00
C236   C     0.79954   0.35593   0.13432   0.00000  Uiso   1.00
C237   C     0.86713   0.64407   0.19901   0.00000  Uiso   1.00
C238   C     0.79511   0.64630   0.13440   0.00000  Uiso   1.00
H239   H     0.99135   0.50013   0.11334   0.00000  Uiso   1.00
H240   H     0.96190   0.37039   0.29213   0.00000  Uiso   1.00
H241   H     0.67532   0.49987   0.22000   0.00000  Uiso   1.00
H242   H     0.77250   0.37422   0.11050   0.00000  Uiso   1.00
H243   H     0.89417   0.62578   0.22283   0.00000  Uiso   1.00
H244   H     0.89192   0.54684   0.05002   0.00000  Uiso   1.00
H245   H     0.77475   0.45316   0.28331   0.00000  Uiso   1.00
H246   H     0.89187   0.54683   0.29917   0.00000  Uiso   1.00
H247   H     0.77480   0.45317   0.03416   0.00000  Uiso   1.00
H248   H     0.70477   0.62961   0.04120   0.00000  Uiso   1.00
N249   N     0.83332   0.49999   0.28573   0.00000  Uiso   1.00
N250   N     0.83335   0.50001   0.04760   0.00000  Uiso   1.00
O251   O     0.83333   0.43892   0.20487   0.00000  Uiso   1.00
O252   O     0.73420   0.64580   0.06021   0.00000  Uiso   1.00
O253   O     0.93462   0.40613   0.22147   0.00000  Uiso   1.00
O254   O     0.93247   0.35420   0.27312   0.00000  Uiso   1.00
O255   O     0.83334   0.56108   0.12846   0.00000  Uiso   1.00
O256   O     0.83333   0.43893   0.12843   0.00000  Uiso   1.00
O257   O     0.83334   0.56107   0.20490   0.00000  Uiso   1.00
O258   O     0.75725   0.50000   0.19595   0.00000  Uiso   1.00
O259   O     0.90942   0.50000   0.13739   0.00000  Uiso   1.00
O260   O     0.75725   0.50000   0.11950   0.00000  Uiso   1.00
O261   O     0.90942   0.50000   0.21383   0.00000  Uiso   1.00
O262   O     0.73205   0.59387   0.11186   0.00000  Uiso   1.00
Zn263  Zn    0.83333   0.49999   0.21771   0.00000  Uiso   1.00
Zn264  Zn    0.83333   0.50001   0.11563   0.00000  Uiso   1.00
C265   C     0.16852   0.75343   0.16676   0.00000  Uiso   1.00
C266   C     0.20489   0.68703   0.19894   0.00000  Uiso   1.00
C267   C     0.16337   0.95742   0.16688   0.00000  Uiso   1.00
C268   C     0.16996   0.70925   0.16645   0.00000  Uiso   1.00
C269   C     0.19921   0.85936   0.02837   0.00000  Uiso   1.00
C270   C     0.13413   0.80731   0.30496   0.00000  Uiso   1.00
C271   C     0.19919   0.85935   0.31377   0.00000  Uiso   1.00
C272   C     0.13414   0.80732   0.01956   0.00000  Uiso   1.00
C273   C     0.08576   0.95971   0.10187   0.00000  Uiso   1.00
C274   C     0.24757   0.70696   0.23146   0.00000  Uiso   1.00
C275   C     0.16482   0.91323   0.16657   0.00000  Uiso   1.00
C276   C     0.06704   0.83321   0.15469   0.00000  Uiso   1.00
C277   C     0.26629   0.83346   0.17864   0.00000  Uiso   1.00
C278   C     0.01199   0.83332   0.14826   0.00000  Uiso   1.00
C279   C     0.32134   0.83335   0.18508   0.00000  Uiso   1.00
C280   C     0.13287   0.68926   0.13432   0.00000  Uiso   1.00
C281   C     0.20046   0.97741   0.19901   0.00000  Uiso   1.00
C282   C     0.12844   0.97963   0.13440   0.00000  Uiso   1.00
H283   H     0.32468   0.83346   0.11334   0.00000  Uiso   1.00
H284   H     0.29523   0.70372   0.29213   0.00000  Uiso   1.00
H285   H     0.00865   0.83320   0.22000   0.00000  Uiso   1.00
H286   H     0.10583   0.70755   0.11050   0.00000  Uiso   1.00
H287   H     0.22750   0.95911   0.22283   0.00000  Uiso   1.00
H288   H     0.22525   0.88017   0.05002   0.00000  Uiso   1.00
H289   H     0.10808   0.78650   0.28331   0.00000  Uiso   1.00
H290   H     0.22520   0.88017   0.29917   0.00000  Uiso   1.00
H291   H     0.10813   0.78650   0.03416   0.00000  Uiso   1.00
H292   H     0.03810   0.96295   0.04120   0.00000  Uiso   1.00
N293   N     0.16665   0.83332   0.28573   0.00000  Uiso   1.00
N294   N     0.16668   0.83334   0.04760   0.00000  Uiso   1.00
O295   O     0.16666   0.77225   0.20487   0.00000  Uiso   1.00
O296   O     0.06753   0.97913   0.06021   0.00000  Uiso   1.00
O297   O     0.26795   0.73947   0.22147   0.00000  Uiso   1.00
O298   O     0.26580   0.68754   0.27312   0.00000  Uiso   1.00
O299   O     0.16667   0.89442   0.12846   0.00000  Uiso   1.00
O300   O     0.16666   0.77226   0.12843   0.00000  Uiso   1.00
O301   O     0.16667   0.89441   0.20490   0.00000  Uiso   1.00
O302   O     0.09058   0.83333   0.19595   0.00000  Uiso   1.00
O303   O     0.24275   0.83334   0.13739   0.00000  Uiso   1.00
O304   O     0.09058   0.83334   0.11950   0.00000  Uiso   1.00
O305   O     0.24275   0.83333   0.21383   0.00000  Uiso   1.00
O306   O     0.06538   0.92720   0.11186   0.00000  Uiso   1.00
Zn307  Zn    0.16667   0.83333   0.21771   0.00000  Uiso   1.00
Zn308  Zn    0.16667   0.83334   0.11563   0.00000  Uiso   1.00
C309   C     0.50185   0.75343   0.16676   0.00000  Uiso   1.00
C310   C     0.53823   0.68703   0.19894   0.00000  Uiso   1.00
C311   C     0.49671   0.95742   0.16688   0.00000  Uiso   1.00
C312   C     0.50329   0.70925   0.16645   0.00000  Uiso   1.00
C313   C     0.53254   0.85936   0.02837   0.00000  Uiso   1.00
C314   C     0.46746   0.80731   0.30496   0.00000  Uiso   1.00
C315   C     0.53252   0.85935   0.31377   0.00000  Uiso   1.00
C316   C     0.46748   0.80732   0.01956   0.00000  Uiso   1.00
C317   C     0.41909   0.95971   0.10187   0.00000  Uiso   1.00
C318   C     0.58091   0.70696   0.23146   0.00000  Uiso   1.00
C319   C     0.49815   0.91323   0.16657   0.00000  Uiso   1.00
C320   C     0.40037   0.83321   0.15469   0.00000  Uiso   1.00
C321   C     0.59963   0.83346   0.17864   0.00000  Uiso   1.00
C322   C     0.34532   0.83332   0.14826   0.00000  Uiso   1.00
C323   C     0.65468   0.83335   0.18508   0.00000  Uiso   1.00
C324   C     0.46621   0.68926   0.13432   0.00000  Uiso   1.00
C325   C     0.53379   0.97741   0.19901   0.00000  Uiso   1.00
C326   C     0.46177   0.97963   0.13440   0.00000  Uiso   1.00
H327   H     0.65801   0.83346   0.11334   0.00000  Uiso   1.00
H328   H     0.62857   0.70372   0.29213   0.00000  Uiso   1.00
H329   H     0.34199   0.83320   0.22000   0.00000  Uiso   1.00
H330   H     0.43917   0.70755   0.11050   0.00000  Uiso   1.00
H331   H     0.56083   0.95911   0.22283   0.00000  Uiso   1.00
H332   H     0.55859   0.88017   0.05002   0.00000  Uiso   1.00
H333   H     0.44141   0.78650   0.28331   0.00000  Uiso   1.00
H334   H     0.55854   0.88017   0.29917   0.00000  Uiso   1.00
H335   H     0.44146   0.78650   0.03416   0.00000  Uiso   1.00
H336   H     0.37143   0.96295   0.04120   0.00000  Uiso   1.00
N337   N     0.49999   0.83332   0.28573   0.00000  Uiso   1.00
N338   N     0.50001   0.83334   0.04760   0.00000  Uiso   1.00
O339   O     0.50000   0.77225   0.20487   0.00000  Uiso   1.00
O340   O     0.40086   0.97913   0.06021   0.00000  Uiso   1.00
O341   O     0.60128   0.73947   0.22147   0.00000  Uiso   1.00
O342   O     0.59914   0.68754   0.27312   0.00000  Uiso   1.00
O343   O     0.50000   0.89442   0.12846   0.00000  Uiso   1.00
O344   O     0.50000   0.77226   0.12843   0.00000  Uiso   1.00
O345   O     0.50000   0.89441   0.20490   0.00000  Uiso   1.00
O346   O     0.42392   0.83333   0.19595   0.00000  Uiso   1.00
O347   O     0.57608   0.83334   0.13739   0.00000  Uiso   1.00
O348   O     0.42392   0.83334   0.11950   0.00000  Uiso   1.00
O349   O     0.57608   0.83333   0.21383   0.00000  Uiso   1.00
O350   O     0.39872   0.92720   0.11186   0.00000  Uiso   1.00
Zn351  Zn    0.50000   0.83333   0.21771   0.00000  Uiso   1.00
Zn352  Zn    0.50000   0.83334   0.11563   0.00000  Uiso   1.00
C353   C     0.83519   0.75343   0.16676   0.00000  Uiso   1.00
C354   C     0.87156   0.68703   0.19894   0.00000  Uiso   1.00
C355   C     0.83004   0.95742   0.16688   0.00000  Uiso   1.00
C356   C     0.83663   0.70925   0.16645   0.00000  Uiso   1.00
C357   C     0.86587   0.85936   0.02837   0.00000  Uiso   1.00
C358   C     0.80079   0.80731   0.30496   0.00000  Uiso   1.00
C359   C     0.86586   0.85935   0.31377   0.00000  Uiso   1.00
C360   C     0.80081   0.80732   0.01956   0.00000  Uiso   1.00
C361   C     0.75243   0.95971   0.10187   0.00000  Uiso   1.00
C362   C     0.91424   0.70696   0.23146   0.00000  Uiso   1.00
C363   C     0.83148   0.91323   0.16657   0.00000  Uiso   1.00
C364   C     0.73371   0.83321   0.15469   0.00000  Uiso   1.00
C365   C     0.93296   0.83346   0.17864   0.00000  Uiso   1.00
C366   C     0.67866   0.83332   0.14826   0.00000  Uiso   1.00
C367   C     0.98801   0.83335   0.18508   0.00000  Uiso   1.00
C368   C     0.79954   0.68926   0.13432   0.00000  Uiso   1.00
C369   C     0.86713   0.97741   0.19901   0.00000  Uiso   1.00
C370   C     0.79511   0.97963   0.13440   0.00000  Uiso   1.00
H371   H     0.99135   0.83346   0.11334   0.00000  Uiso   1.00
H372   H     0.96190   0.70372   0.29213   0.00000  Uiso   1.00
H373   H     0.67532   0.83320   0.22000   0.00000  Uiso   1.00
H374   H     0.77250   0.70755   0.11050   0.00000  Uiso   1.00
H375   H     0.89417   0.95911   0.22283   0.00000  Uiso   1.00
H376   H     0.89192   0.88017   0.05002   0.00000  Uiso   1.00
H377   H     0.77475   0.78650   0.28331   0.00000  Uiso   1.00
H378   H     0.89187   0.88017   0.29917   0.00000  Uiso   1.00
H379   H     0.77480   0.78650   0.03416   0.00000  Uiso   1.00
H380   H     0.70477   0.96295   0.04120   0.00000  Uiso   1.00
N381   N     0.83332   0.83332   0.28573   0.00000  Uiso   1.00
N382   N     0.83335   0.83334   0.04760   0.00000  Uiso   1.00
O383   O     0.83333   0.77225   0.20487   0.00000  Uiso   1.00
O384   O     0.73420   0.97913   0.06021   0.00000  Uiso   1.00
O385   O     0.93462   0.73947   0.22147   0.00000  Uiso   1.00
O386   O     0.93247   0.68754   0.27312   0.00000  Uiso   1.00
O387   O     0.83334   0.89442   0.12846   0.00000  Uiso   1.00
O388   O     0.83333   0.77226   0.12843   0.00000  Uiso   1.00
O389   O     0.83334   0.89441   0.20490   0.00000  Uiso   1.00
O390   O     0.75725   0.83333   0.19595   0.00000  Uiso   1.00
O391   O     0.90942   0.83334   0.13739   0.00000  Uiso   1.00
O392   O     0.75725   0.83334   0.11950   0.00000  Uiso   1.00
O393   O     0.90942   0.83333   0.21383   0.00000  Uiso   1.00
O394   O     0.73205   0.92720   0.11186   0.00000  Uiso   1.00
Zn395  Zn    0.83333   0.83333   0.21771   0.00000  Uiso   1.00
Zn396  Zn    0.83333   0.83334   0.11563   0.00000  Uiso   1.00
C397   C     0.16852   0.08677   0.50009   0.00000  Uiso   1.00
C398   C     0.20489   0.02037   0.53227   0.00000  Uiso   1.00
C399   C     0.16337   0.29075   0.50022   0.00000  Uiso   1.00
C400   C     0.16996   0.04258   0.49978   0.00000  Uiso   1.00
C401   C     0.19921   0.19269   0.36170   0.00000  Uiso   1.00
C402   C     0.13413   0.14064   0.63830   0.00000  Uiso   1.00
C403   C     0.19919   0.19268   0.64711   0.00000  Uiso   1.00
C404   C     0.13414   0.14065   0.35289   0.00000  Uiso   1.00
C405   C     0.08576   0.29304   0.43521   0.00000  Uiso   1.00
C406   C     0.24757   0.04029   0.56479   0.00000  Uiso   1.00
C407   C     0.16482   0.24657   0.49991   0.00000  Uiso   1.00
C408   C     0.06704   0.16654   0.48803   0.00000  Uiso   1.00
C409   C     0.26629   0.16679   0.51197   0.00000  Uiso   1.00
C410   C     0.01199   0.16665   0.48159   0.00000  Uiso   1.00
C411   C     0.32134   0.16668   0.51841   0.00000  Uiso   1.00
C412   C     0.13287   0.02259   0.46765   0.00000  Uiso   1.00
C413   C     0.20046   0.31074   0.53235   0.00000  Uiso   1.00
C414   C     0.12844   0.31297   0.46773   0.00000  Uiso   1.00
H415   H     0.32468   0.16680   0.44667   0.00000  Uiso   1.00
H416   H     0.29523   0.03705   0.62546   0.00000  Uiso   1.00
H417   H     0.00865   0.16654   0.55333   0.00000  Uiso   1.00
H418   H     0.10583   0.04088   0.44383   0.00000  Uiso   1.00
H419   H     0.22750   0.29245   0.55617   0.00000  Uiso   1.00
H420   H     0.22525   0.21350   0.38336   0.00000  Uiso   1.00
H421   H     0.10808   0.11983   0.61664   0.00000  Uiso   1.00
H422   H     0.22520   0.21350   0.63250   0.00000  Uiso   1.00
H423   H     0.10813   0.11983   0.36750   0.00000  Uiso   1.00
H424   H     0.03810   0.29628   0.37454   0.00000  Uiso   1.00
N425   N     0.16665   0.16666   0.61907   0.00000  Uiso   1.00
N426   N     0.16668   0.16668   0.38093   0.00000  Uiso   1.00
O427   O     0.16666   0.10558   0.53821   0.00000  Uiso   1.00
O428   O     0.06753   0.31246   0.39354   0.00000  Uiso   1.00
O429   O     0.26795   0.07280   0.55481   0.00000  Uiso   1.00
O430   O     0.26580   0.02087   0.60646   0.00000  Uiso   1.00
O431   O     0.16667   0.22775   0.46179   0.00000  Uiso   1.00
O432   O     0.16666   0.10559   0.46176   0.00000  Uiso   1.00
O433   O     0.16667   0.22774   0.53824   0.00000  Uiso   1.00
O434   O     0.09058   0.16666   0.52928   0.00000  Uiso   1.00
O435   O     0.24275   0.16667   0.47072   0.00000  Uiso   1.00
O436   O     0.09058   0.16667   0.45284   0.00000  Uiso   1.00
O437   O     0.24275   0.16666   0.54716   0.00000  Uiso   1.00
O438   O     0.06538   0.26053   0.44519   0.00000  Uiso   1.00
Zn439  Zn    0.16667   0.16666   0.55104   0.00000  Uiso   1.00
Zn440  Zn    0.16667   0.16667   0.44896   0.00000  Uiso   1.00
C441   C     0.50185   0.08677   0.50009   0.00000  Uiso   1.00
C442   C     0.53823   0.02037   0.53227   0.00000  Uiso   1.00
C443   C     0.49671   0.29075   0.50022   0.00000  Uiso   1.00
C444   C     0.50329   0.04258   0.49978   0.00000  Uiso   1.00
C445   C     0.53254   0.19269   0.36170   0.00000  Uiso   1.00
C446   C     0.46746   0.14064   0.63830   0.00000  Uiso   1.00
C447   C     0.53252   0.19268   0.64711   0.00000  Uiso   1.00
C448   C     0.46748   0.14065   0.35289   0.00000  Uiso   1.00
C449   C     0.41909   0.29304   0.43521   0.00000  Uiso   1.00
C450   C     0.58091   0.04029   0.56479   0.00000  Uiso   1.00
C451   C     0.49815   0.24657   0.49991   0.00000  Uiso   1.00
C452   C     0.40037   0.16654   0.48803   0.00000  Uiso   1.00
C453   C     0.59963   0.16679   0.51197   0.00000  Uiso   1.00
C454   C     0.34532   0.16665   0.48159   0.00000  Uiso   1.00
C455   C     0.65468   0.16668   0.51841   0.00000  Uiso   1.00
C456   C     0.46621   0.02259   0.46765   0.00000  Uiso   1.00
C457   C     0.53379   0.31074   0.53235   0.00000  Uiso   1.00
C458   C     0.46177   0.31297   0.46773   0.00000  Uiso   1.00
H459   H     0.65801   0.16680   0.44667   0.00000  Uiso   1.00
H460   H     0.62857   0.03705   0.62546   0.00000  Uiso   1.00
H461   H     0.34199   0.16654   0.55333   0.00000  Uiso   1.00
H462   H     0.43917   0.04088   0.44383   0.00000  Uiso   1.00
H463   H     0.56083   0.29245   0.55617   0.00000  Uiso   1.00
H464   H     0.55859   0.21350   0.38336   0.00000  Uiso   1.00
H465   H     0.44141   0.11983   0.61664   0.00000  Uiso   1.00
H466   H     0.55854   0.21350   0.63250   0.00000  Uiso   1.00
H467   H     0.44146   0.11983   0.36750   0.00000  Uiso   1.00
H468   H     0.37143   0.29628   0.37454   0.00000  Uiso   1.00
N469   N     0.49999   0.16666   0.61907   0.00000  Uiso   1.00
N470   N     0.50001   0.16668   0.38093   0.00000  Uiso   1.00
O471   O     0.50000   0.10558   0.53821   0.00000  Uiso   1.00
O472   O     0.40086   0.31246   0.39354   0.00000  Uiso   1.00
O473   O     0.60128   0.07280   0.55481   0.00000  Uiso   1.00
O474   O     0.59914   0.02087   0.60646   0.00000  Uiso   1.00
O475   O     0.50000   0.22775   0.46179   0.00000  Uiso   1.00
O476   O     0.50000   0.10559   0.46176   0.00000  Uiso   1.00
O477   O     0.50000   0.22774   0.53824   0.00000  Uiso   1.00
O478   O     0.42392   0.16666   0.52928   0.00000  Uiso   1.00
O479   O     0.57608   0.16667   0.47072   0.00000  Uiso   1.00
O480   O     0.42392   0.16667   0.45284   0.00000  Uiso   1.00
O481   O     0.57608   0.16666   0.54716   0.00000  Uiso   1.00
O482   O     0.39872   0.26053   0.44519   0.00000  Uiso   1.00
Zn483  Zn    0.50000   0.16666   0.55104   0.00000  Uiso   1.00
Zn484  Zn    0.50000   0.16667   0.44896   0.00000  Uiso   1.00
C485   C     0.83519   0.08677   0.50009   0.00000  Uiso   1.00
C486   C     0.87156   0.02037   0.53227   0.00000  Uiso   1.00
C487   C     0.83004   0.29075   0.50022   0.00000  Uiso   1.00
C488   C     0.83663   0.04258   0.49978   0.00000  Uiso   1.00
C489   C     0.86587   0.19269   0.36170   0.00000  Uiso   1.00
C490   C     0.80079   0.14064   0.63830   0.00000  Uiso   1.00
C491   C     0.86586   0.19268   0.64711   0.00000  Uiso   1.00
C492   C     0.80081   0.14065   0.35289   0.00000  Uiso   1.00
C493   C     0.75243   0.29304   0.43521   0.00000  Uiso   1.00
C494   C     0.91424   0.04029   0.56479   0.00000  Uiso   1.00
C495   C     0.83148   0.24657   0.49991   0.00000  Uiso   1.00
C496   C     0.73371   0.16654   0.48803   0.00000  Uiso   1.00
C497   C     0.93296   0.16679   0.51197   0.00000  Uiso   1.00
C498   C     0.67866   0.16665   0.48159   0.00000  Uiso   1.00
C499   C     0.98801   0.16668   0.51841   0.00000  Uiso   1.00
C500   C     0.79954   0.02259   0.46765   0.00000  Uiso   1.00
C501   C     0.86713   0.31074   0.53235   0.00000  Uiso   1.00
C502   C     0.79511   0.31297   0.46773   0.00000  Uiso   1.00
H503   H     0.99135   0.16680   0.44667   0.00000  Uiso   1.00
H504   H     0.96190   0.03705   0.62546   0.00000  Uiso   1.00
H505   H     0.67532   0.16654   0.55333   0.00000  Uiso   1.00
H506   H     0.77250   0.04088   0.44383   0.00000  Uiso   1.00
H507   H     0.89417   0.29245   0.55617   0.00000  Uiso   1.00
H508   H     0.89192   0.21350   0.38336   0.00000  Uiso   1.00
H509   H     0.77475   0.11983   0.61664   0.00000  Uiso   1.00
H510   H     0.89187   0.21350   0.63250   0.00000  Uiso   1.00
H511   H     0.77480   0.11983   0.36750   0.00000  Uiso   1.00
H512   H     0.70477   0.29628   0.37454   0.00000  Uiso   1.00
N513   N     0.83332   0.16666   0.61907   0.00000  Uiso   1.00
N514   N     0.83335   0.16668   0.38093   0.00000  Uiso   1.00
O515   O     0.83333   0.10558   0.53821   0.00000  Uiso   1.00
O516   O     0.73420   0.31246   0.39354   0.00000  Uiso   1.00
O517   O     0.93462   0.07280   0.55481   0.00000  Uiso   1.00
O518   O     0.93247   0.02087   0.60646   0.00000  Uiso   1.00
O519   O     0.83334   0.22775   0.46179   0.00000  Uiso   1.00
O520   O     0.83333   0.10559   0.46176   0.00000  Uiso   1.00
O521   O     0.83334   0.22774   0.53824   0.00000  Uiso   1.00
O522   O     0.75725   0.16666   0.52928   0.00000  Uiso   1.00
O523   O     0.90942   0.16667   0.47072   0.00000  Uiso   1.00
O524   O     0.75725   0.16667   0.45284   0.00000  Uiso   1.00
O525   O     0.90942   0.16666   0.54716   0.00000  Uiso   1.00
O526   O     0.73205   0.26053   0.44519   0.00000  Uiso   1.00
Zn527  Zn    0.83333   0.16666   0.55104   0.00000  Uiso   1.00
Zn528  Zn    0.83333   0.16667   0.44896   0.00000  Uiso   1.00
C529   C     0.16852   0.42010   0.50009   0.00000  Uiso   1.00
C530   C     0.20489   0.35370   0.53227   0.00000  Uiso   1.00
C531   C     0.16337   0.62408   0.50022   0.00000  Uiso   1.00
C532   C     0.16996   0.37592   0.49978   0.00000  Uiso   1.00
C533   C     0.19921   0.52602   0.36170   0.00000  Uiso   1.00
C534   C     0.13413   0.47398   0.63830   0.00000  Uiso   1.00
C535   C     0.19919   0.52601   0.64711   0.00000  Uiso   1.00
C536   C     0.13414   0.47399   0.35289   0.00000  Uiso   1.00
C537   C     0.08576   0.62638   0.43521   0.00000  Uiso   1.00
C538   C     0.24757   0.37362   0.56479   0.00000  Uiso   1.00
C539   C     0.16482   0.57990   0.49991   0.00000  Uiso   1.00
C540   C     0.06704   0.49987   0.48803   0.00000  Uiso   1.00
C541   C     0.26629   0.50013   0.51197   0.00000  Uiso   1.00
C542   C     0.01199   0.49999   0.48159   0.00000  Uiso   1.00
C543   C     0.32134   0.50001   0.51841   0.00000  Uiso   1.00
C544   C     0.13287   0.35593   0.46765   0.00000  Uiso   1.00
C545   C     0.20046   0.64407   0.53235   0.00000  Uiso   1.00
C546   C     0.12844   0.64630   0.46773   0.00000  Uiso   1.00
H547   H     0.32468   0.50013   0.44667   0.00000  Uiso   1.00
H548   H     0.29523   0.37039   0.62546   0.00000  Uiso   1.00
H549   H     0.00865   0.49987   0.55333   0.00000  Uiso   1.00
H550   H     0.10583   0.37422   0.44383   0.00000  Uiso   1.00
H551   H     0.22750   0.62578   0.55617   0.00000  Uiso   1.00
H552   H     0.22525   0.54684   0.38336   0.00000  Uiso   1.00
H553   H     0.10808   0.45316   0.61664   0.00000  Uiso   1.00
H554   H     0.22520   0.54683   0.63250   0.00000  Uiso   1.00
H555   H     0.10813   0.45317   0.36750   0.00000  Uiso   1.00
H556   H     0.03810   0.62961   0.37454   0.00000  Uiso   1.00
N557   N     0.16665   0.49999   0.61907   0.00000  Uiso   1.00
N558   N     0.16668   0.50001   0.38093   0.00000  Uiso   1.00
O559   O     0.16666   0.43892   0.53821   0.00000  Uiso   1.00
O560   O     0.06753   0.64580   0.39354   0.00000  Uiso   1.00
O561   O     0.26795   0.40613   0.55481   0.00000  Uiso   1.00
O562   O     0.26580   0.35420   0.60646   0.00000  Uiso   1.00
O563   O     0.16667   0.56108   0.46179   0.00000  Uiso   1.00
O564   O     0.16666   0.43893   0.46176   0.00000  Uiso   1.00
O565   O     0.16667   0.56107   0.53824   0.00000  Uiso   1.00
O566   O     0.09058   0.50000   0.52928   0.00000  Uiso   1.00
O567   O     0.24275   0.50000   0.47072   0.00000  Uiso   1.00
O568   O     0.09058   0.50000   0.45284   0.00000  Uiso   1.00
O569   O     0.24275   0.50000   0.54716   0.00000  Uiso   1.00
O570   O     0.06538   0.59387   0.44519   0.00000  Uiso   1.00
Zn571  Zn    0.16667   0.49999   0.55104   0.00000  Uiso   1.00
Zn572  Zn    0.16667   0.50001   0.44896   0.00000  Uiso   1.00
C573   C     0.50185   0.42010   0.50009   0.00000  Uiso   1.00
C574   C     0.53823   0.35370   0.53227   0.00000  Uiso   1.00
C575   C     0.49671   0.62408   0.50022   0.00000  Uiso   1.00
C576   C     0.50329   0.37592   0.49978   0.00000  Uiso   1.00
C577   C     0.53254   0.52602   0.36170   0.00000  Uiso   1.00
C578   C     0.46746   0.47398   0.63830   0.00000  Uiso   1.00
C579   C     0.53252   0.52601   0.64711   0.00000  Uiso   1.00
C580   C     0.46748   0.47399   0.35289   0.00000  Uiso   1.00
C581   C     0.41909   0.62638   0.43521   0.00000  Uiso   1.00
C582   C     0.58091   0.37362   0.56479   0.00000  Uiso   1.00
C583   C     0.49815   0.57990   0.49991   0.00000  Uiso   1.00
C584   C     0.40037   0.49987   0.48803   0.00000  Uiso   1.00
C585   C     0.59963   0.50013   0.51197   0.00000  Uiso   1.00
C586   C     0.34532   0.49999   0.48159   0.00000  Uiso   1.00
C587   C     0.65468   0.50001   0.51841   0.00000  Uiso   1.00
C588   C     0.46621   0.35593   0.46765   0.00000  Uiso   1.00
C589   C     0.53379   0.64407   0.53235   0.00000  Uiso   1.00
C590   C     0.46177   0.64630   0.46773   0.00000  Uiso   1.00
H591   H     0.65801   0.50013   0.44667   0.00000  Uiso   1.00
H592   H     0.62857   0.37039   0.62546   0.00000  Uiso   1.00
H593   H     0.34199   0.49987   0.55333   0.00000  Uiso   1.00
H594   H     0.43917   0.37422   0.44383   0.00000  Uiso   1.00
H595   H     0.56083   0.62578   0.55617   0.00000  Uiso   1.00
H596   H     0.55859   0.54684   0.38336   0.00000  Uiso   1.00
H597   H     0.44141   0.45316   0.61664   0.00000  Uiso   1.00
H598   H     0.55854   0.54683   0.63250   0.00000  Uiso   1.00
H599   H     0.44146   0.45317   0.36750   0.00000  Uiso   1.00
H600   H     0.37143   0.62961   0.37454   0.00000  Uiso   1.00
N601   N     0.49999   0.49999   0.61907   0.00000  Uiso   1.00
N602   N     0.50001   0.50001   0.38093   0.00000  Uiso   1.00
O603   O     0.50000   0.43892   0.53821   0.00000  Uiso   1.00
O604   O     0.40086   0.64580   0.39354   0.00000  Uiso   1.00
O605   O     0.60128   0.40613   0.55481   0.00000  Uiso   1.00
O606   O     0.59914   0.35420   0.60646   0.00000  Uiso   1.00
O607   O     0.50000   0.56108   0.46179   0.00000  Uiso   1.00
O608   O     0.50000   0.43893   0.46176   0.00000  Uiso   1.00
O609   O     0.50000   0.56107   0.53824   0.00000  Uiso   1.00
O610   O     0.42392   0.50000   0.52928   0.00000  Uiso   1.00
O611   O     0.57608   0.50000   0.47072   0.00000  Uiso   1.00
O612   O     0.42392   0.50000   0.45284   0.00000  Uiso   1.00
O613   O     0.57608   0.50000   0.54716   0.00000  Uiso   1.00
O614   O     0.39872   0.59387   0.44519   0.00000  Uiso   1.00
Zn615  Zn    0.50000   0.49999   0.55104   0.00000  Uiso   1.00
Zn616  Zn    0.50000   0.50001   0.44896   0.00000  Uiso   1.00
C617   C     0.83519   0.42010   0.50009   0.00000  Uiso   1.00
C618   C     0.87156   0.35370   0.53227   0.00000  Uiso   1.00
C619   C     0.83004   0.62408   0.50022   0.00000  Uiso   1.00
C620   C     0.83663   0.37592   0.49978   0.00000  Uiso   1.00
C621   C     0.86587   0.52602   0.36170   0.00000  Uiso   1.00
C622   C     0.80079   0.47398   0.63830   0.00000  Uiso   1.00
C623   C     0.86586   0.52601   0.64711   0.00000  Uiso   1.00
C624   C     0.80081   0.47399   0.35289   0.00000  Uiso   1.00
C625   C     0.75243   0.62638   0.43521   0.00000  Uiso   1.00
C626   C     0.91424   0.37362   0.56479   0.00000  Uiso   1.00
C627   C     0.83148   0.57990   0.49991   0.00000  Uiso   1.00
C628   C     0.73371   0.49987   0.48803   0.00000  Uiso   1.00
C629   C     0.93296   0.50013   0.51197   0.00000  Uiso   1.00
C630   C     0.67866   0.49999   0.48159   0.00000  Uiso   1.00
C631   C     0.98801   0.50001   0.51841   0.00000  Uiso   1.00
C632   C     0.79954   0.35593   0.46765   0.00000  Uiso   1.00
C633   C     0.86713   0.64407   0.53235   0.00000  Uiso   1.00
C634   C     0.79511   0.64630   0.46773   0.00000  Uiso   1.00
H635   H     0.99135   0.50013   0.44667   0.00000  Uiso   1.00
H636   H     0.96190   0.37039   0.62546   0.00000  Uiso   1.00
H637   H     0.67532   0.49987   0.55333   0.00000  Uiso   1.00
H638   H     0.77250   0.37422   0.44383   0.00000  Uiso   1.00
H639   H     0.89417   0.62578   0.55617   0.00000  Uiso   1.00
H640   H     0.89192   0.54684   0.38336   0.00000  Uiso   1.00
H641   H     0.77475   0.45316   0.61664   0.00000  Uiso   1.00
H642   H     0.89187   0.54683   0.63250   0.00000  Uiso   1.00
H643   H     0.77480   0.45317   0.36750   0.00000  Uiso   1.00
H644   H     0.70477   0.62961   0.37454   0.00000  Uiso   1.00
N645   N     0.83332   0.49999   0.61907   0.00000  Uiso   1.00
N646   N     0.83335   0.50001   0.38093   0.00000  Uiso   1.00
O647   O     0.83333   0.43892   0.53821   0.00000  Uiso   1.00
O648   O     0.73420   0.64580   0.39354   0.00000  Uiso   1.00
O649   O     0.93462   0.40613   0.55481   0.00000  Uiso   1.00
O650   O     0.93247   0.35420   0.60646   0.00000  Uiso   1.00
O651   O     0.83334   0.56108   0.46179   0.00000  Uiso   1.00
O652   O     0.83333   0.43893   0.46176   0.00000  Uiso   1.00
O653   O     0.83334   0.56107   0.53824   0.00000  Uiso   1.00
O654   O     0.75725   0.50000   0.52928   0.00000  Uiso   1.00
O655   O     0.90942   0.50000   0.47072   0.00000  Uiso   1.00
O656   O     0.75725   0.50000   0.45284   0.00000  Uiso   1.00
O657   O     0.90942   0.50000   0.54716   0.00000  Uiso   1.00
O658   O     0.73205   0.59387   0.44519   0.00000  Uiso   1.00
Zn659  Zn    0.83333   0.49999   0.55104   0.00000  Uiso   1.00
Zn660  Zn    0.83333   0.50001   0.44896   0.00000  Uiso   1.00
C661   C     0.16852   0.75343   0.50009   0.00000  Uiso   1.00
C662   C     0.20489   0.68703   0.53227   0.00000  Uiso   1.00
C663   C     0.16337   0.95742   0.50022   0.00000  Uiso   1.00
C664   C     0.16996   0.70925   0.49978   0.00000  Uiso   1.00
C665   C     0.19921   0.85936   0.36170   0.00000  Uiso   1.00
C666   C     0.13413   0.80731   0.63830   0.00000  Uiso   1.00
C667   C     0.19919   0.85935   0.64711   0.00000  Uiso   1.00
C668   C     0.13414   0.80732   0.35289   0.00000  Uiso   1.00
C669   C     0.08576   0.95971   0.43521   0.00000  Uiso   1.00
C670   C     0.24757   0.70696   0.56479   0.00000  Uiso   1.00
C671   C     0.16482   0.91323   0.49991   0.00000  Uiso   1.00
C672   C     0.06704   0.83321   0.48803   0.00000  Uiso   1.00
C673   C     0.26629   0.83346   0.51197   0.00000  Uiso   1.00
C674   C     0.01199   0.83332   0.48159   0.00000  Uiso   1.00
C675   C     0.32134   0.83335   0.51841   0.00000  Uiso   1.00
C676   C     0.13287   0.68926   0.46765   0.00000  Uiso   1.00
C677   C     0.20046   0.97741   0.53235   0.00000  Uiso   1.00
C678   C     0.12844   0.97963   0.46773   0.00000  Uiso   1.00
H679   H     0.32468   0.83346   0.44667   0.00000  Uiso   1.00
H680   H     0.29523   0.70372   0.62546   0.00000  Uiso   1.00
H681   H     0.00865   0.83320   0.55333   0.00000  Uiso   1.00
H682   H     0.10583   0.70755   0.44383   0.00000  Uiso   1.00
H683   H     0.22750   0.95911   0.55617   0.00000  Uiso   1.00
H684   H     0.22525   0.88017   0.38336   0.00000  Uiso   1.00
H685   H     0.10808   0.78650   0.61664   0.00000  Uiso   1.00
H686   H     0.22520   0.88017   0.63250   0.00000  Uiso   1.00
H687   H     0.10813   0.78650   0.36750   0.00000  Uiso   1.00
H688   H     0.03810   0.96295   0.37454   0.00000  Uiso   1.00
N689   N     0.16665   0.83332   0.61907   0.00000  Uiso   1.00
N690   N     0.16668   0.83334   0.38093   0.00000  Uiso   1.00
O691   O     0.16666   0.77225   0.53821   0.00000  Uiso   1.00
O692   O     0.06753   0.97913   0.39354   0.00000  Uiso   1.00
O693   O     0.26795   0.73947   0.55481   0.00000  Uiso   1.00
O694   O     0.26580   0.68754   0.60646   0.00000  Uiso   1.00
O695   O     0.16667   0.89442   0.46179   0.00000  Uiso   1.00
O696   O     0.16666   0.77226   0.46176   0.00000  Uiso   1.00
O697   O     0.16667   0.89441   0.53824   0.00000  Uiso   1.00
O698   O     0.09058   0.83333   0.52928   0.00000  Uiso   1.00
O699   O     0.24275   0.83334   0.47072   0.00000  Uiso   1.00
O700   O     0.09058   0.83334   0.45284   0.00000  Uiso   1.00
O701   O     0.24275   0.83333   0.54716   0.00000  Uiso   1.00
O702   O     0.06538   0.92720   0.44519   0.00000  Uiso   1.00
Zn703  Zn    0.16667   0.83333   0.55104   0.00000  Uiso   1.00
Zn704  Zn    0.16667   0.83334   0.44896   0.00000  Uiso   1.00
C705   C     0.50185   0.75343   0.50009   0.00000  Uiso   1.00
C706   C     0.53823   0.68703   0.53227   0.00000  Uiso   1.00
C707   C     0.49671   0.95742   0.50022   0.00000  Uiso   1.00
C708   C     0.50329   0.70925   0.49978   0.00000  Uiso   1.00
C709   C     0.53254   0.85936   0.36170   0.00000  Uiso   1.00
C710   C     0.46746   0.80731   0.63830   0.00000  Uiso   1.00
C711   C     0.53252   0.85935   0.64711   0.00000  Uiso   1.00
C712   C     0.46748   0.80732   0.35289   0.00000  Uiso   1.00
C713   C     0.41909   0.95971   0.43521   0.00000  Uiso   1.00
C714   C     0.58091   0.70696   0.56479   0.00000  Uiso   1.00
C715   C     0.49815   0.91323   0.49991   0.00000  Uiso   1.00
C716   C     0.40037   0.83321   0.48803   0.00000  Uiso   1.00
C717   C     0.59963   0.83346   0.51197   0.00000  Uiso   1.00
C718   C     0.34532   0.83332   0.48159   0.00000  Uiso   1.00
C719   C     0.65468   0.83335   0.51841   0.00000  Uiso   1.00
C720   C     0.46621   0.68926   0.46765   0.00000  Uiso   1.00
C721   C     0.53379   0.97741   0.53235   0.00000  Uiso   1.00
C722   C     0.46177   0.97963   0.46773   0.00000  Uiso   1.00
H723   H     0.65801   0.83346   0.44667   0.00000  Uiso   1.00
H724   H     0.62857   0.70372   0.62546   0.00000  Uiso   1.00
H725   H     0.34199   0.83320   0.55333   0.00000  Uiso   1.00
H726   H     0.43917   0.70755   0.44383   0.00000  Uiso   1.00
H727   H     0.56083   0.95911   0.55617   0.00000  Uiso   1.00
H728   H     0.55859   0.88017   0.38336   0.00000  Uiso   1.00
H729   H     0.44141   0.78650   0.61664   0.00000  Uiso   1.00
H730   H     0.55854   0.88017   0.63250   0.00000  Uiso   1.00
H731   H     0.44146   0.78650   0.36750   0.00000  Uiso   1.00
H732   H     0.37143   0.96295   0.37454   0.00000  Uiso   1.00
N733   N     0.49999   0.83332   0.61907   0.00000  Uiso   1.00
N734   N     0.50001   0.83334   0.38093   0.00000  Uiso   1.00
O735   O     0.50000   0.77225   0.53821   0.00000  Uiso   1.00
O736   O     0.40086   0.97913   0.39354   0.00000  Uiso   1.00
O737   O     0.60128   0.73947   0.55481   0.00000  Uiso   1.00
O738   O     0.59914   0.68754   0.60646   0.00000  Uiso   1.00
O739   O     0.50000   0.89442   0.46179   0.00000  Uiso   1.00
O740   O     0.50000   0.77226   0.46176   0.00000  Uiso   1.00
O741   O     0.50000   0.89441   0.53824   0.00000  Uiso   1.00
O742   O     0.42392   0.83333   0.52928   0.00000  Uiso   1.00
O743   O     0.57608   0.83334   0.47072   0.00000  Uiso   1.00
O744   O     0.42392   0.83334   0.45284   0.00000  Uiso   1.00
O745   O     0.57608   0.83333   0.54716   0.00000  Uiso   1.00
O746   O     0.39872   0.92720   0.44519   0.00000  Uiso   1.00
Zn747  Zn    0.50000   0.83333   0.55104   0.00000  Uiso   1.00
Zn748  Zn    0.50000   0.83334   0.44896   0.00000  Uiso   1.00
C749   C     0.83519   0.75343   0.50009   0.00000  Uiso   1.00
C750   C     0.87156   0.68703   0.53227   0.00000  Uiso   1.00
C751   C     0.83004   0.95742   0.50022   0.00000  Uiso   1.00
C752   C     0.83663   0.70925   0.49978   0.00000  Uiso   1.00
C753   C     0.86587   0.85936   0.36170   0.00000  Uiso   1.00
C754   C     0.80079   0.80731   0.63830   0.00000  Uiso   1.00
C755   C     0.86586   0.85935   0.64711   0.00000  Uiso   1.00
C756   C     0.80081   0.80732   0.35289   0.00000  Uiso   1.00
C757   C     0.75243   0.95971   0.43521   0.00000  Uiso   1.00
C758   C     0.91424   0.70696   0.56479   0.00000  Uiso   1.00
C759   C     0.83148   0.91323   0.49991   0.00000  Uiso   1.00
C760   C     0.73371   0.83321   0.48803   0.00000  Uiso   1.00
C761   C     0.93296   0.83346   0.51197   0.00000  Uiso   1.00
C762   C     0.67866   0.83332   0.48159   0.00000  Uiso   1.00
C763   C     0.98801   0.83335   0.51841   0.00000  Uiso   1.00
C764   C     0.79954   0.68926   0.46765   0.00000  Uiso   1.00
C765   C     0.86713   0.97741   0.53235   0.00000  Uiso   1.00
C766   C     0.79511   0.97963   0.46773   0.00000  Uiso   1.00
H767   H     0.99135   0.83346   0.44667   0.00000  Uiso   1.00
H768   H     0.96190   0.70372   0.62546   0.00000  Uiso   1.00
H769   H     0.67532   0.83320   0.55333   0.00000  Uiso   1.00
H770   H     0.77250   0.70755   0.44383   0.00000  Uiso   1.00
H771   H     0.89417   0.95911   0.55617   0.00000  Uiso   1.00
H772   H     0.89192   0.88017   0.38336   0.00000  Uiso   1.00
H773   H     0.77475   0.78650   0.61664   0.00000  Uiso   1.00
H774   H     0.89187   0.88017   0.63250   0.00000  Uiso   1.00
H775   H     0.77480   0.78650   0.36750   0.00000  Uiso   1.00
H776   H     0.70477   0.96295   0.37454   0.00000  Uiso   1.00
N777   N     0.83332   0.83332   0.61907   0.00000  Uiso   1.00
N778   N     0.83335   0.83334   0.38093   0.00000  Uiso   1.00
O779   O     0.83333   0.77225   0.53821   0.00000  Uiso   1.00
O780   O     0.73420   0.97913   0.39354   0.00000  Uiso   1.00
O781   O     0.93462   0.73947   0.55481   0.00000  Uiso   1.00
O782   O     0.93247   0.68754   0.60646   0.00000  Uiso   1.00
O783   O     0.83334   0.89442   0.46179   0.00000  Uiso   1.00
O784   O     0.83333   0.77226   0.46176   0.00000  Uiso   1.00
O785   O     0.83334   0.89441   0.53824   0.00000  Uiso   1.00
O786   O     0.75725   0.83333   0.52928   0.00000  Uiso   1.00
O787   O     0.90942   0.83334   0.47072   0.00000  Uiso   1.00
O788   O     0.75725   0.83334   0.45284   0.00000  Uiso   1.00
O789   O     0.90942   0.83333   0.54716   0.00000  Uiso   1.00
O790   O     0.73205   0.92720   0.44519   0.00000  Uiso   1.00
Zn791  Zn    0.83333   0.83333   0.55104   0.00000  Uiso   1.00
Zn792  Zn    0.83333   0.83334   0.44896   0.00000  Uiso   1.00
C793   C     0.16852   0.08677   0.83343   0.00000  Uiso   1.00
C794   C     0.20489   0.02037   0.86560   0.00000  Uiso   1.00
C795   C     0.16337   0.29075   0.83355   0.00000  Uiso   1.00
C796   C     0.16996   0.04258   0.83312   0.00000  Uiso   1.00
C797   C     0.19921   0.19269   0.69504   0.00000  Uiso   1.00
C798   C     0.13413   0.14064   0.97163   0.00000  Uiso   1.00
C799   C     0.19919   0.19268   0.98044   0.00000  Uiso   1.00
C800   C     0.13414   0.14065   0.68622   0.00000  Uiso   1.00
C801   C     0.08576   0.29304   0.76854   0.00000  Uiso   1.00
C802   C     0.24757   0.04029   0.89813   0.00000  Uiso   1.00
C803   C     0.16482   0.24657   0.83324   0.00000  Uiso   1.00
C804   C     0.06704   0.16654   0.82136   0.00000  Uiso   1.00
C805   C     0.26629   0.16679   0.84531   0.00000  Uiso   1.00
C806   C     0.01199   0.16665   0.81492   0.00000  Uiso   1.00
C807   C     0.32134   0.16668   0.85174   0.00000  Uiso   1.00
C808   C     0.13287   0.02259   0.80099   0.00000  Uiso   1.00
C809   C     0.20046   0.31074   0.86568   0.00000  Uiso   1.00
C810   C     0.12844   0.31297   0.80106   0.00000  Uiso   1.00
H811   H     0.32468   0.16680   0.78000   0.00000  Uiso   1.00
H812   H     0.29523   0.03705   0.95880   0.00000  Uiso   1.00
H813   H     0.00865   0.16654   0.88666   0.00000  Uiso   1.00
H814   H     0.10583   0.04088   0.77717   0.00000  Uiso   1.00
H815   H     0.22750   0.29245   0.88950   0.00000  Uiso   1.00
H816   H     0.22525   0.21350   0.71669   0.00000  Uiso   1.00
H817   H     0.10808   0.11983   0.94998   0.00000  Uiso   1.00
H818   H     0.22520   0.21350   0.96584   0.00000  Uiso   1.00
H819   H     0.10813   0.11983   0.70083   0.00000  Uiso   1.00
H820   H     0.03810   0.29628   0.70787   0.00000  Uiso   1.00
N821   N     0.16665   0.16666   0.95240   0.00000  Uiso   1.00
N822   N     0.16668   0.16668   0.71427   0.00000  Uiso   1.00
O823   O     0.16666   0.10558   0.87154   0.00000  Uiso   1.00
O824   O     0.06753   0.31246   0.72688   0.00000  Uiso   1.00
O825   O     0.26795   0.07280   0.88814   0.00000  Uiso   1.00
O826   O     0.26580   0.02087   0.93979   0.00000  Uiso   1.00
O827   O     0.16667   0.22775   0.79513   0.00000  Uiso   1.00
O828   O     0.16666   0.10559   0.79510   0.00000  Uiso   1.00
O829   O     0.16667   0.22774   0.87157   0.00000  Uiso   1.00
O830   O     0.09058   0.16666   0.86261   0.00000  Uiso   1.00
O831   O     0.24275   0.16667   0.80405   0.00000  Uiso   1.00
O832   O     0.09058   0.16667   0.78617   0.00000  Uiso   1.00
O833   O     0.24275   0.16666   0.88050   0.00000  Uiso   1.00
O834   O     0.06538   0.26053   0.77853   0.00000  Uiso   1.00
Zn835  Zn    0.16667   0.16666   0.88437   0.00000  Uiso   1.00
Zn836  Zn    0.16667   0.16667   0.78229   0.00000  Uiso   1.00
C837   C     0.50185   0.08677   0.83343   0.00000  Uiso   1.00
C838   C     0.53823   0.02037   0.86560   0.00000  Uiso   1.00
C839   C     0.49671   0.29075   0.83355   0.00000  Uiso   1.00
C840   C     0.50329   0.04258   0.83312   0.00000  Uiso   1.00
C841   C     0.53254   0.19269   0.69504   0.00000  Uiso   1.00
C842   C     0.46746   0.14064   0.97163   0.00000  Uiso   1.00
C843   C     0.53252   0.19268   0.98044   0.00000  Uiso   1.00
C844   C     0.46748   0.14065   0.68622   0.00000  Uiso   1.00
C845   C     0.41909   0.29304   0.76854   0.00000  Uiso   1.00
C846   C     0.58091   0.04029   0.89813   0.00000  Uiso   1.00
C847   C     0.49815   0.24657   0.83324   0.00000  Uiso   1.00
C848   C     0.40037   0.16654   0.82136   0.00000  Uiso   1.00
C849   C     0.59963   0.16679   0.84531   0.00000  Uiso   1.00
C850   C     0.34532   0.16665   0.81492   0.00000  Uiso   1.00
C851   C     0.65468   0.16668   0.85174   0.00000  Uiso   1.00
C852   C     0.46621   0.02259   0.80099   0.00000  Uiso   1.00
C853   C     0.53379   0.31074   0.86568   0.00000  Uiso   1.00
C854   C     0.46177   0.31297   0.80106   0.00000  Uiso   1.00
H855   H     0.65801   0.16680   0.78000   0.00000  Uiso   1.00
H856   H     0.62857   0.03705   0.95880   0.00000  Uiso   1.00
H857   H     0.34199   0.16654   0.88666   0.00000  Uiso   1.00
H858   H     0.43917   0.04088   0.77717   0.00000  Uiso   1.00
H859   H     0.56083   0.29245   0.88950   0.00000  Uiso   1.00
H860   H     0.55859   0.21350   0.71669   0.00000  Uiso   1.00
H861   H     0.44141   0.11983   0.94998   0.00000  Uiso   1.00
H862   H     0.55854   0.21350   0.96584   0.00000  Uiso   1.00
H863   H     0.44146   0.11983   0.70083   0.00000  Uiso   1.00
H864   H     0.37143   0.29628   0.70787   0.00000  Uiso   1.00
N865   N     0.49999   0.16666   0.95240   0.00000  Uiso   1.00
N866   N     0.50001   0.16668   0.71427   0.00000  Uiso   1.00
O867   O     0.50000   0.10558   0.87154   0.00000  Uiso   1.00
O868   O     0.40086   0.31246   0.72688   0.00000  Uiso   1.00
O869   O     0.60128   0.07280   0.88814   0.00000  Uiso   1.00
O870   O     0.59914   0.02087   0.93979   0.00000  Uiso   1.00
O871   O     0.50000   0.22775   0.79513   0.00000  Uiso   1.00
O872   O     0.50000   0.10559   0.79510   0.00000  Uiso   1.00
O873   O     0.50000   0.22774   0.87157   0.00000  Uiso   1.00
O874   O     0.42392   0.16666   0.86261   0.00000  Uiso   1.00
O875   O     0.57608   0.16667   0.80405   0.00000  Uiso   1.00
O876   O     0.42392   0.16667   0.78617   0.00000  Uiso   1.00
O877   O     0.57608   0.16666   0.88050   0.00000  Uiso   1.00
O878   O     0.39872   0.26053   0.77853   0.00000  Uiso   1.00
Zn879  Zn    0.50000   0.16666   0.88437   0.00000  Uiso   1.00
Zn880  Zn    0.50000   0.16667   0.78229   0.00000  Uiso   1.00
C881   C     0.83519   0.08677   0.83343   0.00000  Uiso   1.00
C882   C     0.87156   0.02037   0.86560   0.00000  Uiso   1.00
C883   C     0.83004   0.29075   0.83355   0.00000  Uiso   1.00
C884   C     0.83663   0.04258   0.83312   0.00000  Uiso   1.00
C885   C     0.86587   0.19269   0.69504   0.00000  Uiso   1.00
C886   C     0.80079   0.14064   0.97163   0.00000  Uiso   1.00
C887   C     0.86586   0.19268   0.98044   0.00000  Uiso   1.00
C888   C     0.80081   0.14065   0.68622   0.00000  Uiso   1.00
C889   C     0.75243   0.29304   0.76854   0.00000  Uiso   1.00
C890   C     0.91424   0.04029   0.89813   0.00000  Uiso   1.00
C891   C     0.83148   0.24657   0.83324   0.00000  Uiso   1.00
C892   C     0.73371   0.16654   0.82136   0.00000  Uiso   1.00
C893   C     0.93296   0.16679   0.84531   0.00000  Uiso   1.00
C894   C     0.67866   0.16665   0.81492   0.00000  Uiso   1.00
C895   C     0.98801   0.16668   0.85174   0.00000  Uiso   1.00
C896   C     0.79954   0.02259   0.80099   0.00000  Uiso   1.00
C897   C     0.86713   0.31074   0.86568   0.00000  Uiso   1.00
C898   C     0.79511   0.31297   0.80106   0.00000  Uiso   1.00
H899   H     0.99135   0.16680   0.78000   0.00000  Uiso   1.00
H900   H     0.96190   0.03705   0.95880   0.00000  Uiso   1.00
H901   H     0.67532   0.16654   0.88666   0.00000  Uiso   1.00
H902   H     0.77250   0.04088   0.77717   0.00000  Uiso   1.00
H903   H     0.89417   0.29245   0.88950   0.00000  Uiso   1.00
H904   H     0.89192   0.21350   0.71669   0.00000  Uiso   1.00
H905   H     0.77475   0.11983   0.94998   0.00000  Uiso   1.00
H906   H     0.89187   0.21350   0.96584   0.00000  Uiso   1.00
H907   H     0.77480   0.11983   0.70083   0.00000  Uiso   1.00
H908   H     0.70477   0.29628   0.70787   0.00000  Uiso   1.00
N909   N     0.83332   0.16666   0.95240   0.00000  Uiso   1.00
N910   N     0.83335   0.16668   0.71427   0.00000  Uiso   1.00
O911   O     0.83333   0.10558   0.87154   0.00000  Uiso   1.00
O912   O     0.73420   0.31246   0.72688   0.00000  Uiso   1.00
O913   O     0.93462   0.07280   0.88814   0.00000  Uiso   1.00
O914   O     0.93247   0.02087   0.93979   0.00000  Uiso   1.00
O915   O     0.83334   0.22775   0.79513   0.00000  Uiso   1.00
O916   O     0.83333   0.10559   0.79510   0.00000  Uiso   1.00
O917   O     0.83334   0.22774   0.87157   0.00000  Uiso   1.00
O918   O     0.75725   0.16666   0.86261   0.00000  Uiso   1.00
O919   O     0.90942   0.16667   0.80405   0.00000  Uiso   1.00
O920   O     0.75725   0.16667   0.78617   0.00000  Uiso   1.00
O921   O     0.90942   0.16666   0.88050   0.00000  Uiso   1.00
O922   O     0.73205   0.26053   0.77853   0.00000  Uiso   1.00
Zn923  Zn    0.83333   0.16666   0.88437   0.00000  Uiso   1.00
Zn924  Zn    0.83333   0.16667   0.78229   0.00000  Uiso   1.00
C925   C     0.16852   0.42010   0.83343   0.00000  Uiso   1.00
C926   C     0.20489   0.35370   0.86560   0.00000  Uiso   1.00
C927   C     0.16337   0.62408   0.83355   0.00000  Uiso   1.00
C928   C     0.16996   0.37592   0.83312   0.00000  Uiso   1.00
C929   C     0.19921   0.52602   0.69504   0.00000  Uiso   1.00
C930   C     0.13413   0.47398   0.97163   0.00000  Uiso   1.00
C931   C     0.19919   0.52601   0.98044   0.00000  Uiso   1.00
C932   C     0.13414   0.47399   0.68622   0.00000  Uiso   1.00
C933   C     0.08576   0.62638   0.76854   0.00000  Uiso   1.00
C934   C     0.24757   0.37362   0.89813   0.00000  Uiso   1.00
C935   C     0.16482   0.57990   0.83324   0.00000  Uiso   1.00
C936   C     0.06704   0.49987   0.82136   0.00000  Uiso   1.00
C937   C     0.26629   0.50013   0.84531   0.00000  Uiso   1.00
C938   C     0.01199   0.49999   0.81492   0.00000  Uiso   1.00
C939   C     0.32134   0.50001   0.85174   0.00000  Uiso   1.00
C940   C     0.13287   0.35593   0.80099   0.00000  Uiso   1.00
C941   C     0.20046   0.64407   0.86568   0.00000  Uiso   1.00
C942   C     0.12844   0.64630   0.80106   0.00000  Uiso   1.00
H943   H     0.32468   0.50013   0.78000   0.00000  Uiso   1.00
H944   H     0.29523   0.37039   0.95880   0.00000  Uiso   1.00
H945   H     0.00865   0.49987   0.88666   0.00000  Uiso   1.00
H946   H     0.10583   0.37422   0.77717   0.00000  Uiso   1.00
H947   H     0.22750   0.62578   0.88950   0.00000  Uiso   1.00
H948   H     0.22525   0.54684   0.71669   0.00000  Uiso   1.00
H949   H     0.10808   0.45316   0.94998   0.00000  Uiso   1.00
H950   H     0.22520   0.54683   0.96584   0.00000  Uiso   1.00
H951   H     0.10813   0.45317   0.70083   0.00000  Uiso   1.00
H952   H     0.03810   0.62961   0.70787   0.00000  Uiso   1.00
N953   N     0.16665   0.49999   0.95240   0.00000  Uiso   1.00
N954   N     0.16668   0.50001   0.71427   0.00000  Uiso   1.00
O955   O     0.16666   0.43892   0.87154   0.00000  Uiso   1.00
O956   O     0.06753   0.64580   0.72688   0.00000  Uiso   1.00
O957   O     0.26795   0.40613   0.88814   0.00000  Uiso   1.00
O958   O     0.26580   0.35420   0.93979   0.00000  Uiso   1.00
O959   O     0.16667   0.56108   0.79513   0.00000  Uiso   1.00
O960   O     0.16666   0.43893   0.79510   0.00000  Uiso   1.00
O961   O     0.16667   0.56107   0.87157   0.00000  Uiso   1.00
O962   O     0.09058   0.50000   0.86261   0.00000  Uiso   1.00
O963   O     0.24275   0.50000   0.80405   0.00000  Uiso   1.00
O964   O     0.09058   0.50000   0.78617   0.00000  Uiso   1.00
O965   O     0.24275   0.50000   0.88050   0.00000  Uiso   1.00
O966   O     0.06538   0.59387   0.77853   0.00000  Uiso   1.00
Zn967  Zn    0.16667   0.49999   0.88437   0.00000  Uiso   1.00
Zn968  Zn    0.16667   0.50001   0.78229   0.00000  Uiso   1.00
C969   C     0.50185   0.42010   0.83343   0.00000  Uiso   1.00
C970   C     0.53823   0.35370   0.86560   0.00000  Uiso   1.00
C971   C     0.49671   0.62408   0.83355   0.00000  Uiso   1.00
C972   C     0.50329   0.37592   0.83312   0.00000  Uiso   1.00
C973   C     0.53254   0.52602   0.69504   0.00000  Uiso   1.00
C974   C     0.46746   0.47398   0.97163   0.00000  Uiso   1.00
C975   C     0.53252   0.52601   0.98044   0.00000  Uiso   1.00
C976   C     0.46748   0.47399   0.68622   0.00000  Uiso   1.00
C977   C     0.41909   0.62638   0.76854   0.00000  Uiso   1.00
C978   C     0.58091   0.37362   0.89813   0.00000  Uiso   1.00
C979   C     0.49815   0.57990   0.83324   0.00000  Uiso   1.00
C980   C     0.40037   0.49987   0.82136   0.00000  Uiso   1.00
C981   C     0.59963   0.50013   0.84531   0.00000  Uiso   1.00
C982   C     0.34532   0.49999   0.81492   0.00000  Uiso   1.00
C983   C     0.65468   0.50001   0.85174   0.00000  Uiso   1.00
C984   C     0.46621   0.35593   0.80099   0.00000  Uiso   1.00
C985   C     0.53379   0.64407   0.86568   0.00000  Uiso   1.00
C986   C     0.46177   0.64630   0.80106   0.00000  Uiso   1.00
H987   H     0.65801   0.50013   0.78000   0.00000  Uiso   1.00
H988   H     0.62857   0.37039   0.95880   0.00000  Uiso   1.00
H989   H     0.34199   0.49987   0.88666   0.00000  Uiso   1.00
H990   H     0.43917   0.37422   0.77717   0.00000  Uiso   1.00
H991   H     0.56083   0.62578   0.88950   0.00000  Uiso   1.00
H992   H     0.55859   0.54684   0.71669   0.00000  Uiso   1.00
H993   H     0.44141   0.45316   0.94998   0.00000  Uiso   1.00
H994   H     0.55854   0.54683   0.96584   0.00000  Uiso   1.00
H995   H     0.44146   0.45317   0.70083   0.00000  Uiso   1.00
H996   H     0.37143   0.62961   0.70787   0.00000  Uiso   1.00
N997   N     0.49999   0.49999   0.95240   0.00000  Uiso   1.00
N998   N     0.50001   0.50001   0.71427   0.00000  Uiso   1.00
O999   O     0.50000   0.43892   0.87154   0.00000  Uiso   1.00
O1000  O     0.40086   0.64580   0.72688   0.00000  Uiso   1.00
O1001  O     0.60128   0.40613   0.88814   0.00000  Uiso   1.00
O1002  O     0.59914   0.35420   0.93979   0.00000  Uiso   1.00
O1003  O     0.50000   0.56108   0.79513   0.00000  Uiso   1.00
O1004  O     0.50000   0.43893   0.79510   0.00000  Uiso   1.00
O1005  O     0.50000   0.56107   0.87157   0.00000  Uiso   1.00
O1006  O     0.42392   0.50000   0.86261   0.00000  Uiso   1.00
O1007  O     0.57608   0.50000   0.80405   0.00000  Uiso   1.00
O1008  O     0.42392   0.50000   0.78617   0.00000  Uiso   1.00
O1009  O     0.57608   0.50000   0.88050   0.00000  Uiso   1.00
O1010  O     0.39872   0.59387   0.77853   0.00000  Uiso   1.00
Zn1011 Zn    0.50000   0.49999   0.88437   0.00000  Uiso   1.00
Zn1012 Zn    0.50000   0.50001   0.78229   0.00000  Uiso   1.00
C1013  C     0.83519   0.42010   0.83343   0.00000  Uiso   1.00
C1014  C     0.87156   0.35370   0.86560   0.00000  Uiso   1.00
C1015  C     0.83004   0.62408   0.83355   0.00000  Uiso   1.00
C1016  C     0.83663   0.37592   0.83312   0.00000  Uiso   1.00
C1017  C     0.86587   0.52602   0.69504   0.00000  Uiso   1.00
C1018  C     0.80079   0.47398   0.97163   0.00000  Uiso   1.00
C1019  C     0.86586   0.52601   0.98044   0.00000  Uiso   1.00
C1020  C     0.80081   0.47399   0.68622   0.00000  Uiso   1.00
C1021  C     0.75243   0.62638   0.76854   0.00000  Uiso   1.00
C1022  C     0.91424   0.37362   0.89813   0.00000  Uiso   1.00
C1023  C     0.83148   0.57990   0.83324   0.00000  Uiso   1.00
C1024  C     0.73371   0.49987   0.82136   0.00000  Uiso   1.00
C1025  C     0.93296   0.50013   0.84531   0.00000  Uiso   1.00
C1026  C     0.67866   0.49999   0.81492   0.00000  Uiso   1.00
C1027  C     0.98801   0.50001   0.85174   0.00000  Uiso   1.00
C1028  C     0.79954   0.35593   0.80099   0.00000  Uiso   1.00
C1029  C     0.86713   0.64407   0.86568   0.00000  Uiso   1.00
C1030  C     0.79511   0.64630   0.80106   0.00000  Uiso   1.00
H1031  H     0.99135   0.50013   0.78000   0.00000  Uiso   1.00
H1032  H     0.96190   0.37039   0.95880   0.00000  Uiso   1.00
H1033  H     0.67532   0.49987   0.88666   0.00000  Uiso   1.00
H1034  H     0.77250   0.37422   0.77717   0.00000  Uiso   1.00
H1035  H     0.89417   0.62578   0.88950   0.00000  Uiso   1.00
H1036  H     0.89192   0.54684   0.71669   0.00000  Uiso   1.00
H1037  H     0.77475   0.45316   0.94998   0.00000  Uiso   1.00
H1038  H     0.89187   0.54683   0.96584   0.00000  Uiso   1.00
H1039  H     0.77480   0.45317   0.70083   0.00000  Uiso   1.00
H1040  H     0.70477   0.62961   0.70787   0.00000  Uiso   1.00
N1041  N     0.83332   0.49999   0.95240   0.00000  Uiso   1.00
N1042  N     0.83335   0.50001   0.71427   0.00000  Uiso   1.00
O1043  O     0.83333   0.43892   0.87154   0.00000  Uiso   1.00
O1044  O     0.73420   0.64580   0.72688   0.00000  Uiso   1.00
O1045  O     0.93462   0.40613   0.88814   0.00000  Uiso   1.00
O1046  O     0.93247   0.35420   0.93979   0.00000  Uiso   1.00
O1047  O     0.83334   0.56108   0.79513   0.00000  Uiso   1.00
O1048  O     0.83333   0.43893   0.79510   0.00000  Uiso   1.00
O1049  O     0.83334   0.56107   0.87157   0.00000  Uiso   1.00
O1050  O     0.75725   0.50000   0.86261   0.00000  Uiso   1.00
O1051  O     0.90942   0.50000   0.80405   0.00000  Uiso   1.00
O1052  O     0.75725   0.50000   0.78617   0.00000  Uiso   1.00
O1053  O     0.90942   0.50000   0.88050   0.00000  Uiso   1.00
O1054  O     0.73205   0.59387   0.77853   0.00000  Uiso   1.00
Zn1055 Zn    0.83333   0.49999   0.88437   0.00000  Uiso   1.00
Zn1056 Zn    0.83333   0.50001   0.78229   0.00000  Uiso   1.00
C1057  C     0.16852   0.75343   0.83343   0.00000  Uiso   1.00
C1058  C     0.20489   0.68703   0.86560   0.00000  Uiso   1.00
C1059  C     0.16337   0.95742   0.83355   0.00000  Uiso   1.00
C1060  C     0.16996   0.70925   0.83312   0.00000  Uiso   1.00
C1061  C     0.19921   0.85936   0.69504   0.00000  Uiso   1.00
C1062  C     0.13413   0.80731   0.97163   0.00000  Uiso   1.00
C1063  C     0.19919   0.85935   0.98044   0.00000  Uiso   1.00
C1064  C     0.13414   0.80732   0.68622   0.00000  Uiso   1.00
C1065  C     0.08576   0.95971   0.76854   0.00000  Uiso   1.00
C1066  C     0.24757   0.70696   0.89813   0.00000  Uiso   1.00
C1067  C     0.16482   0.91323   0.83324   0.00000  Uiso   1.00
C1068  C     0.06704   0.83321   0.82136   0.00000  Uiso   1.00
C1069  C     0.26629   0.83346   0.84531   0.00000  Uiso   1.00
C1070  C     0.01199   0.83332   0.81492   0.00000  Uiso   1.00
C1071  C     0.32134   0.83335   0.85174   0.00000  Uiso   1.00
C1072  C     0.13287   0.68926   0.80099   0.00000  Uiso   1.00
C1073  C     0.20046   0.97741   0.86568   0.00000  Uiso   1.00
C1074  C     0.12844   0.97963   0.80106   0.00000  Uiso   1.00
H1075  H     0.32468   0.83346   0.78000   0.00000  Uiso   1.00
H1076  H     0.29523   0.70372   0.95880   0.00000  Uiso   1.00
H1077  H     0.00865   0.83320   0.88666   0.00000  Uiso   1.00
H1078  H     0.10583   0.70755   0.77717   0.00000  Uiso   1.00
H1079  H     0.22750   0.95911   0.88950   0.00000  Uiso   1.00
H1080  H     0.22525   0.88017   0.71669   0.00000  Uiso   1.00
H1081  H     0.10808   0.78650   0.94998   0.00000  Uiso   1.00
H1082  H     0.22520   0.88017   0.96584   0.00000  Uiso   1.00
H1083  H     0.10813   0.78650   0.70083   0.00000  Uiso   1.00
H1084  H     0.03810   0.96295   0.70787   0.00000  Uiso   1.00
N1085  N     0.16665   0.83332   0.95240   0.00000  Uiso   1.00
N1086  N     0.16668   0.83334   0.71427   0.00000  Uiso   1.00
O1087  O     0.16666   0.77225   0.87154   0.00000  Uiso   1.00
O1088  O     0.06753   0.97913   0.72688   0.00000  Uiso   1.00
O1089  O     0.26795   0.73947   0.88814   0.00000  Uiso   1.00
O1090  O     0.26580   0.68754   0.93979   0.00000  Uiso   1.00
O1091  O     0.16667   0.89442   0.79513   0.00000  Uiso   1.00
O1092  O     0.16666   0.77226   0.79510   0.00000  Uiso   1.00
O1093  O     0.16667   0.89441   0.87157   0.00000  Uiso   1.00
O1094  O     0.09058   0.83333   0.86261   0.00000  Uiso   1.00
O1095  O     0.24275   0.83334   0.80405   0.00000  Uiso   1.00
O1096  O     0.09058   0.83334   0.78617   0.00000  Uiso   1.00
O1097  O     0.24275   0.83333   0.88050   0.00000  Uiso   1.00
O1098  O     0.06538   0.92720   0.77853   0.00000  Uiso   1.00
Zn1099 Zn    0.16667   0.83333   0.88437   0.00000  Uiso   1.00
Zn1100 Zn    0.16667   0.83334   0.78229   0.00000  Uiso   1.00
C1101  C     0.50185   0.75343   0.83343   0.00000  Uiso   1.00
C1102  C     0.53823   0.68703   0.86560   0.00000  Uiso   1.00
C1103  C     0.49671   0.95742   0.83355   0.00000  Uiso   1.00
C1104  C     0.50329   0.70925   0.83312   0.00000  Uiso   1.00
C1105  C     0.53254   0.85936   0.69504   0.00000  Uiso   1.00
C1106  C     0.46746   0.80731   0.97163   0.00000  Uiso   1.00
C1107  C     0.53252   0.85935   0.98044   0.00000  Uiso   1.00
C1108  C     0.46748   0.80732   0.68622   0.00000  Uiso   1.00
C1109  C     0.41909   0.95971   0.76854   0.00000  Uiso   1.00
C1110  C     0.58091   0.70696   0.89813   0.00000  Uiso   1.00
C1111  C     0.49815   0.91323   0.83324   0.00000  Uiso   1.00
C1112  C     0.40037   0.83321   0.82136   0.00000  Uiso   1.00
C1113  C     0.59963   0.83346   0.84531   0.00000  Uiso   1.00
C1114  C     0.34532   0.83332   0.81492   0.00000  Uiso   1.00
C1115  C     0.65468   0.83335   0.85174   0.00000  Uiso   1.00
C1116  C     0.46621   0.68926   0.80099   0.00000  Uiso   1.00
C1117  C     0.53379   0.97741   0.86568   0.00000  Uiso   1.00
C1118  C     0.46177   0.97963   0.80106   0.00000  Uiso   1.00
H1119  H     0.65801   0.83346   0.78000   0.00000  Uiso   1.00
H1120  H     0.62857   0.70372   0.95880   0.00000  Uiso   1.00
H1121  H     0.34199   0.83320   0.88666   0.00000  Uiso   1.00
H1122  H     0.43917   0.70755   0.77717   0.00000  Uiso   1.00
H1123  H     0.56083   0.95911   0.88950   0.00000  Uiso   1.00
H1124  H     0.55859   0.88017   0.71669   0.00000  Uiso   1.00
H1125  H     0.44141   0.78650   0.94998   0.00000  Uiso   1.00
H1126  H     0.55854   0.88017   0.96584   0.00000  Uiso   1.00
H1127  H     0.44146   0.78650   0.70083   0.00000  Uiso   1.00
H1128  H     0.37143   0.96295   0.70787   0.00000  Uiso   1.00
N1129  N     0.49999   0.83332   0.95240   0.00000  Uiso   1.00
N1130  N     0.50001   0.83334   0.71427   0.00000  Uiso   1.00
O1131  O     0.50000   0.77225   0.87154   0.00000  Uiso   1.00
O1132  O     0.40086   0.97913   0.72688   0.00000  Uiso   1.00
O1133  O     0.60128   0.73947   0.88814   0.00000  Uiso   1.00
O1134  O     0.59914   0.68754   0.93979   0.00000  Uiso   1.00
O1135  O     0.50000   0.89442   0.79513   0.00000  Uiso   1.00
O1136  O     0.50000   0.77226   0.79510   0.00000  Uiso   1.00
O1137  O     0.50000   0.89441   0.87157   0.00000  Uiso   1.00
O1138  O     0.42392   0.83333   0.86261   0.00000  Uiso   1.00
O1139  O     0.57608   0.83334   0.80405   0.00000  Uiso   1.00
O1140  O     0.42392   0.83334   0.78617   0.00000  Uiso   1.00
O1141  O     0.57608   0.83333   0.88050   0.00000  Uiso   1.00
O1142  O     0.39872   0.92720   0.77853   0.00000  Uiso   1.00
Zn1143 Zn    0.50000   0.83333   0.88437   0.00000  Uiso   1.00
Zn1144 Zn    0.50000   0.83334   0.78229   0.00000  Uiso   1.00
C1145  C     0.83519   0.75343   0.83343   0.00000  Uiso   1.00
C1146  C     0.87156   0.68703   0.86560   0.00000  Uiso   1.00
C1147  C     0.83004   0.95742   0.83355   0.00000  Uiso   1.00
C1148  C     0.83663   0.70925   0.83312   0.00000  Uiso   1.00
C1149  C     0.86587   0.85936   0.69504   0.00000  Uiso   1.00
C1150  C     0.80079   0.80731   0.97163   0.00000  Uiso   1.00
C1151  C     0.86586   0.85935   0.98044   0.00000  Uiso   1.00
C1152  C     0.80081   0.80732   0.68622   0.00000  Uiso   1.00
C1153  C     0.75243   0.95971   0.76854   0.00000  Uiso   1.00
C1154  C     0.91424   0.70696   0.89813   0.00000  Uiso   1.00
C1155  C     0.83148   0.91323   0.83324   0.00000  Uiso   1.00
C1156  C     0.73371   0.83321   0.82136   0.00000  Uiso   1.00
C1157  C     0.93296   0.83346   0.84531   0.00000  Uiso   1.00
C1158  C     0.67866   0.83332   0.81492   0.00000  Uiso   1.00
C1159  C     0.98801   0.83335   0.85174   0.00000  Uiso   1.00
C1160  C     0.79954   0.68926   0.80099   0.00000  Uiso   1.00
C1161  C     0.86713   0.97741   0.86568   0.00000  Uiso   1.00
C1162  C     0.79511   0.97963   0.80106   0.00000  Uiso   1.00
H1163  H     0.99135   0.83346   0.78000   0.00000  Uiso   1.00
H1164  H     0.96190   0.70372   0.95880   0.00000  Uiso   1.00
H1165  H     0.67532   0.83320   0.88666   0.00000  Uiso   1.00
H1166  H     0.77250   0.70755   0.77717   0.00000  Uiso   1.00
H1167  H     0.89417   0.95911   0.88950   0.00000  Uiso   1.00
H1168  H     0.89192   0.88017   0.71669   0.00000  Uiso   1.00
H1169  H     0.77475   0.78650   0.94998   0.00000  Uiso   1.00
H1170  H     0.89187   0.88017   0.96584   0.00000  Uiso   1.00
H1171  H     0.77480   0.78650   0.70083   0.00000  Uiso   1.00
H1172  H     0.70477   0.96295   0.70787   0.00000  Uiso   1.00
N1173  N     0.83332   0.83332   0.95240   0.00000  Uiso   1.00
N1174  N     0.83335   0.83334   0.71427   0.00000  Uiso   1.00
O1175  O     0.83333   0.77225   0.87154   0.00000  Uiso   1.00
O1176  O     0.73420   0.97913   0.72688   0.00000  Uiso   1.00
O1177  O     0.93462   0.73947   0.88814   0.00000  Uiso   1.00
O1178  O     0.93247   0.68754   0.93979   0.00000  Uiso   1.00
O1179  O     0.83334   0.89442   0.79513   0.00000  Uiso   1.00
O1180  O     0.83333   0.77226   0.79510   0.00000  Uiso   1.00
O1181  O     0.83334   0.89441   0.87157   0.00000  Uiso   1.00
O1182  O     0.75725   0.83333   0.86261   0.00000  Uiso   1.00
O1183  O     0.90942   0.83334   0.80405   0.00000  Uiso   1.00
O1184  O     0.75725   0.83334   0.78617   0.00000  Uiso   1.00
O1185  O     0.90942   0.83333   0.88050   0.00000  Uiso   1.00
O1186  O     0.73205   0.92720   0.77853   0.00000  Uiso   1.00
Zn1187 Zn    0.83333   0.83333   0.88437   0.00000  Uiso   1.00
Zn1188 Zn    0.83333   0.83334   0.78229   0.00000  Uiso   1.00
loop_
_geom_bond_atom_site_label_1
_geom_bond_atom_site_label_2
_geom_bond_distance
_geom_bond_site_symmetry_2
_ccdc_geom_bond_type
C1     C4      1.413   .     S
C1     O31     1.282   .     A
C1     O36     1.281   .     A
C2     C4      1.408   .     A
C2     C10     1.489   .     S
C2     C281    1.378   1_545 S
C3     C17     1.395   .     A
C3     C11     1.413   .     S
C3     C18     1.408   .     A
C4     C16     1.395   .     A
C5     H24     1.082   .     S
C5     N30     1.367   .     A
C5     C799    1.417   1_554 S
C6     H25     1.082   .     S
C6     N29     1.367   .     A
C6     C404    1.417   .     S
C7     N29     1.367   .     A
C7     H26     1.082   .     S
C7     C401    1.417   .     S
C8     N30     1.367   .     A
C8     H27     1.082   .     S
C8     C798    1.417   1_554 S
C9     O42     1.223   .     D
C9     C18     1.489   .     S
C9     O32     1.399   .     S
C10    O34     1.399   .     S
C10    O33     1.222   .     D
C11    O35     1.282   .     A
C11    O37     1.281   .     A
C12    C14     1.403   .     S
C12    O38     1.278   .     A
C12    O40     1.281   .     A
C13    O41     1.281   .     A
C13    C15     1.403   .     S
C13    O39     1.278   .     A
C14    C103    1.330   1_455 S
C14    H107    1.088   1_455 S
C15    C58     1.330   .     S
C15    H65     1.088   .     S
C16    H22     1.086   .     S
C16    C282    1.378   1_545 S
C17    H23     1.086   .     S
C17    C134    1.378   .     S
C18    C148    1.378   .     S
H19    C58     1.088   .     S
H20    O34     1.014   .     S
H21    C103    1.088   1_455 S
H28    O32     1.014   .     S
N29    Zn43    2.012   .     S
N30    Zn44    2.012   .     S
O31    Zn43    1.987   .     S
O35    Zn44    1.987   .     S
O36    Zn44    1.991   .     S
O37    Zn43    1.991   .     S
O38    Zn43    1.969   .     S
O39    Zn44    1.969   .     S
O40    Zn44    1.981   .     S
O41    Zn43    1.981   .     S
C45    C48     1.413   .     S
C45    O75     1.282   .     A
C45    O80     1.281   .     A
C46    C48     1.408   .     A
C46    C54     1.489   .     S
C46    C325    1.378   1_545 S
C47    C61     1.395   .     A
C47    C55     1.413   .     S
C47    C62     1.408   .     A
C48    C60     1.395   .     A
C49    H68     1.082   .     S
C49    N74     1.367   .     A
C49    C843    1.417   1_554 S
C50    H69     1.082   .     S
C50    N73     1.367   .     A
C50    C448    1.417   .     S
C51    N73     1.367   .     A
C51    H70     1.082   .     S
C51    C445    1.417   .     S
C52    N74     1.367   .     A
C52    H71     1.082   .     S
C52    C842    1.417   1_554 S
C53    O86     1.223   .     D
C53    C62     1.489   .     S
C53    O76     1.399   .     S
C54    O78     1.399   .     S
C54    O77     1.222   .     D
C55    O79     1.282   .     A
C55    O81     1.281   .     A
C56    C58     1.403   .     S
C56    O82     1.278   .     A
C56    O84     1.281   .     A
C57    O85     1.281   .     A
C57    C59     1.403   .     S
C57    O83     1.278   .     A
C59    C102    1.330   .     S
C59    H109    1.088   .     S
C60    H66     1.086   .     S
C60    C326    1.378   1_545 S
C61    H67     1.086   .     S
C61    C178    1.378   .     S
C62    C192    1.378   .     S
H63    C102    1.088   .     S
H64    O78     1.014   .     S
H72    O76     1.014   .     S
N73    Zn87    2.012   .     S
N74    Zn88    2.012   .     S
O75    Zn87    1.987   .     S
O79    Zn88    1.987   .     S
O80    Zn88    1.991   .     S
O81    Zn87    1.991   .     S
O82    Zn87    1.969   .     S
O83    Zn88    1.969   .     S
O84    Zn88    1.981   .     S
O85    Zn87    1.981   .     S
C89    C92     1.413   .     S
C89    O119    1.282   .     A
C89    O124    1.281   .     A
C90    C92     1.408   .     A
C90    C98     1.489   .     S
C90    C369    1.378   1_545 S
C91    C105    1.395   .     A
C91    C99     1.413   .     S
C91    C106    1.408   .     A
C92    C104    1.395   .     A
C93    H112    1.082   .     S
C93    N118    1.367   .     A
C93    C887    1.417   1_554 S
C94    H113    1.082   .     S
C94    N117    1.367   .     A
C94    C492    1.417   .     S
C95    N117    1.367   .     A
C95    H114    1.082   .     S
C95    C489    1.417   .     S
C96    N118    1.367   .     A
C96    H115    1.082   .     S
C96    C886    1.417   1_554 S
C97    O130    1.223   .     D
C97    C106    1.489   .     S
C97    O120    1.399   .     S
C98    O122    1.399   .     S
C98    O121    1.222   .     D
C99    O123    1.282   .     A
C99    O125    1.281   .     A
C100   C102    1.403   .     S
C100   O126    1.278   .     A
C100   O128    1.281   .     A
C101   O129    1.281   .     A
C101   C103    1.403   .     S
C101   O127    1.278   .     A
C103   C14     1.330   1_655 S
C103   H21     1.088   1_655 S
C104   H110    1.086   .     S
C104   C370    1.378   1_545 S
C105   H111    1.086   .     S
C105   C222    1.378   .     S
C106   C236    1.378   .     S
H107   C14     1.088   1_655 S
H108   O122    1.014   .     S
H116   O120    1.014   .     S
N117   Zn131   2.012   .     S
N118   Zn132   2.012   .     S
O119   Zn131   1.987   .     S
O123   Zn132   1.987   .     S
O124   Zn132   1.991   .     S
O125   Zn131   1.991   .     S
O126   Zn131   1.969   .     S
O127   Zn132   1.969   .     S
O128   Zn132   1.981   .     S
O129   Zn131   1.981   .     S
C133   C136    1.413   .     S
C133   O163    1.282   .     A
C133   O168    1.281   .     A
C134   C136    1.408   .     A
C134   C142    1.489   .     S
C135   C149    1.395   .     A
C135   C143    1.413   .     S
C135   C150    1.408   .     A
C136   C148    1.395   .     A
C137   H156    1.082   .     S
C137   N162    1.367   .     A
C137   C931    1.417   1_554 S
C138   H157    1.082   .     S
C138   N161    1.367   .     A
C138   C536    1.417   .     S
C139   N161    1.367   .     A
C139   H158    1.082   .     S
C139   C533    1.417   .     S
C140   N162    1.367   .     A
C140   H159    1.082   .     S
C140   C930    1.417   1_554 S
C141   O174    1.223   .     D
C141   C150    1.489   .     S
C141   O164    1.399   .     S
C142   O166    1.399   .     S
C142   O165    1.222   .     D
C143   O167    1.282   .     A
C143   O169    1.281   .     A
C144   C146    1.403   .     S
C144   O170    1.278   .     A
C144   O172    1.281   .     A
C145   O173    1.281   .     A
C145   C147    1.403   .     S
C145   O171    1.278   .     A
C146   C235    1.330   1_455 S
C146   H239    1.088   1_455 S
C147   C190    1.330   .     S
C147   H197    1.088   .     S
C148   H154    1.086   .     S
C149   H155    1.086   .     S
C149   C266    1.378   .     S
C150   C280    1.378   .     S
H151   C190    1.088   .     S
H152   O166    1.014   .     S
H153   C235    1.088   1_455 S
H160   O164    1.014   .     S
N161   Zn175   2.012   .     S
N162   Zn176   2.012   .     S
O163   Zn175   1.987   .     S
O167   Zn176   1.987   .     S
O168   Zn176   1.991   .     S
O169   Zn175   1.991   .     S
O170   Zn175   1.969   .     S
O171   Zn176   1.969   .     S
O172   Zn176   1.981   .     S
O173   Zn175   1.981   .     S
C177   C180    1.413   .     S
C177   O207    1.282   .     A
C177   O212    1.281   .     A
C178   C180    1.408   .     A
C178   C186    1.489   .     S
C179   C193    1.395   .     A
C179   C187    1.413   .     S
C179   C194    1.408   .     A
C180   C192    1.395   .     A
C181   H200    1.082   .     S
C181   N206    1.367   .     A
C181   C975    1.417   1_554 S
C182   H201    1.082   .     S
C182   N205    1.367   .     A
C182   C580    1.417   .     S
C183   N205    1.367   .     A
C183   H202    1.082   .     S
C183   C577    1.417   .     S
C184   N206    1.367   .     A
C184   H203    1.082   .     S
C184   C974    1.417   1_554 S
C185   O218    1.223   .     D
C185   C194    1.489   .     S
C185   O208    1.399   .     S
C186   O210    1.399   .     S
C186   O209    1.222   .     D
C187   O211    1.282   .     A
C187   O213    1.281   .     A
C188   C190    1.403   .     S
C188   O214    1.278   .     A
C188   O216    1.281   .     A
C189   O217    1.281   .     A
C189   C191    1.403   .     S
C189   O215    1.278   .     A
C191   C234    1.330   .     S
C191   H241    1.088   .     S
C192   H198    1.086   .     S
C193   H199    1.086   .     S
C193   C310    1.378   .     S
C194   C324    1.378   .     S
H195   C234    1.088   .     S
H196   O210    1.014   .     S
H204   O208    1.014   .     S
N205   Zn219   2.012   .     S
N206   Zn220   2.012   .     S
O207   Zn219   1.987   .     S
O211   Zn220   1.987   .     S
O212   Zn220   1.991   .     S
O213   Zn219   1.991   .     S
O214   Zn219   1.969   .     S
O215   Zn220   1.969   .     S
O216   Zn220   1.981   .     S
O217   Zn219   1.981   .     S
C221   C224    1.413   .     S
C221   O251    1.282   .     A
C221   O256    1.281   .     A
C222   C224    1.408   .     A
C222   C230    1.489   .     S
C223   C237    1.395   .     A
C223   C231    1.413   .     S
C223   C238    1.408   .     A
C224   C236    1.395   .     A
C225   H244    1.082   .     S
C225   N250    1.367   .     A
C225   C1019   1.417   1_554 S
C226   H245    1.082   .     S
C226   N249    1.367   .     A
C226   C624    1.417   .     S
C227   N249    1.367   .     A
C227   H246    1.082   .     S
C227   C621    1.417   .     S
C228   N250    1.367   .     A
C228   H247    1.082   .     S
C228   C1018   1.417   1_554 S
C229   O262    1.223   .     D
C229   C238    1.489   .     S
C229   O252    1.399   .     S
C230   O254    1.399   .     S
C230   O253    1.222   .     D
C231   O255    1.282   .     A
C231   O257    1.281   .     A
C232   C234    1.403   .     S
C232   O258    1.278   .     A
C232   O260    1.281   .     A
C233   O261    1.281   .     A
C233   C235    1.403   .     S
C233   O259    1.278   .     A
C235   C146    1.330   1_655 S
C235   H153    1.088   1_655 S
C236   H242    1.086   .     S
C237   H243    1.086   .     S
C237   C354    1.378   .     S
C238   C368    1.378   .     S
H239   C146    1.088   1_655 S
H240   O254    1.014   .     S
H248   O252    1.014   .     S
N249   Zn263   2.012   .     S
N250   Zn264   2.012   .     S
O251   Zn263   1.987   .     S
O255   Zn264   1.987   .     S
O256   Zn264   1.991   .     S
O257   Zn263   1.991   .     S
O258   Zn263   1.969   .     S
O259   Zn264   1.969   .     S
O260   Zn264   1.981   .     S
O261   Zn263   1.981   .     S
C265   C268    1.413   .     S
C265   O295    1.282   .     A
C265   O300    1.281   .     A
C266   C268    1.408   .     A
C266   C274    1.489   .     S
C267   C281    1.395   .     A
C267   C275    1.413   .     S
C267   C282    1.408   .     A
C268   C280    1.395   .     A
C269   H288    1.082   .     S
C269   N294    1.367   .     A
C269   C1063   1.417   1_554 S
C270   H289    1.082   .     S
C270   N293    1.367   .     A
C270   C668    1.417   .     S
C271   N293    1.367   .     A
C271   H290    1.082   .     S
C271   C665    1.417   .     S
C272   N294    1.367   .     A
C272   H291    1.082   .     S
C272   C1062   1.417   1_554 S
C273   O306    1.223   .     D
C273   C282    1.489   .     S
C273   O296    1.399   .     S
C274   O298    1.399   .     S
C274   O297    1.222   .     D
C275   O299    1.282   .     A
C275   O301    1.281   .     A
C276   C278    1.403   .     S
C276   O302    1.278   .     A
C276   O304    1.281   .     A
C277   O305    1.281   .     A
C277   C279    1.403   .     S
C277   O303    1.278   .     A
C278   C367    1.330   1_455 S
C278   H371    1.088   1_455 S
C279   C322    1.330   .     S
C279   H329    1.088   .     S
C280   H286    1.086   .     S
C281   H287    1.086   .     S
C281   C2      1.378   1_565 S
C282   C16     1.378   1_565 S
H283   C322    1.088   .     S
H284   O298    1.014   .     S
H285   C367    1.088   1_455 S
H292   O296    1.014   .     S
N293   Zn307   2.012   .     S
N294   Zn308   2.012   .     S
O295   Zn307   1.987   .     S
O299   Zn308   1.987   .     S
O300   Zn308   1.991   .     S
O301   Zn307   1.991   .     S
O302   Zn307   1.969   .     S
O303   Zn308   1.969   .     S
O304   Zn308   1.981   .     S
O305   Zn307   1.981   .     S
C309   C312    1.413   .     S
C309   O339    1.282   .     A
C309   O344    1.281   .     A
C310   C312    1.408   .     A
C310   C318    1.489   .     S
C311   C325    1.395   .     A
C311   C319    1.413   .     S
C311   C326    1.408   .     A
C312   C324    1.395   .     A
C313   H332    1.082   .     S
C313   N338    1.367   .     A
C313   C1107   1.417   1_554 S
C314   H333    1.082   .     S
C314   N337    1.367   .     A
C314   C712    1.417   .     S
C315   N337    1.367   .     A
C315   H334    1.082   .     S
C315   C709    1.417   .     S
C316   N338    1.367   .     A
C316   H335    1.082   .     S
C316   C1106   1.417   1_554 S
C317   O350    1.223   .     D
C317   C326    1.489   .     S
C317   O340    1.399   .     S
C318   O342    1.399   .     S
C318   O341    1.222   .     D
C319   O343    1.282   .     A
C319   O345    1.281   .     A
C320   C322    1.403   .     S
C320   O346    1.278   .     A
C320   O348    1.281   .     A
C321   O349    1.281   .     A
C321   C323    1.403   .     S
C321   O347    1.278   .     A
C323   C366    1.330   .     S
C323   H373    1.088   .     S
C324   H330    1.086   .     S
C325   H331    1.086   .     S
C325   C46     1.378   1_565 S
C326   C60     1.378   1_565 S
H327   C366    1.088   .     S
H328   O342    1.014   .     S
H336   O340    1.014   .     S
N337   Zn351   2.012   .     S
N338   Zn352   2.012   .     S
O339   Zn351   1.987   .     S
O343   Zn352   1.987   .     S
O344   Zn352   1.991   .     S
O345   Zn351   1.991   .     S
O346   Zn351   1.969   .     S
O347   Zn352   1.969   .     S
O348   Zn352   1.981   .     S
O349   Zn351   1.981   .     S
C353   C356    1.413   .     S
C353   O383    1.282   .     A
C353   O388    1.281   .     A
C354   C356    1.408   .     A
C354   C362    1.489   .     S
C355   C369    1.395   .     A
C355   C363    1.413   .     S
C355   C370    1.408   .     A
C356   C368    1.395   .     A
C357   H376    1.082   .     S
C357   N382    1.367   .     A
C357   C1151   1.417   1_554 S
C358   H377    1.082   .     S
C358   N381    1.367   .     A
C358   C756    1.417   .     S
C359   N381    1.367   .     A
C359   H378    1.082   .     S
C359   C753    1.417   .     S
C360   N382    1.367   .     A
C360   H379    1.082   .     S
C360   C1150   1.417   1_554 S
C361   O394    1.223   .     D
C361   C370    1.489   .     S
C361   O384    1.399   .     S
C362   O386    1.399   .     S
C362   O385    1.222   .     D
C363   O387    1.282   .     A
C363   O389    1.281   .     A
C364   C366    1.403   .     S
C364   O390    1.278   .     A
C364   O392    1.281   .     A
C365   O393    1.281   .     A
C365   C367    1.403   .     S
C365   O391    1.278   .     A
C367   C278    1.330   1_655 S
C367   H285    1.088   1_655 S
C368   H374    1.086   .     S
C369   H375    1.086   .     S
C369   C90     1.378   1_565 S
C370   C104    1.378   1_565 S
H371   C278    1.088   1_655 S
H372   O386    1.014   .     S
H380   O384    1.014   .     S
N381   Zn395   2.012   .     S
N382   Zn396   2.012   .     S
O383   Zn395   1.987   .     S
O387   Zn396   1.987   .     S
O388   Zn396   1.991   .     S
O389   Zn395   1.991   .     S
O390   Zn395   1.969   .     S
O391   Zn396   1.969   .     S
O392   Zn396   1.981   .     S
O393   Zn395   1.981   .     S
C397   C400    1.413   .     S
C397   O427    1.282   .     A
C397   O432    1.281   .     A
C398   C400    1.408   .     A
C398   C406    1.489   .     S
C398   C677    1.378   1_545 S
C399   C413    1.395   .     A
C399   C407    1.413   .     S
C399   C414    1.408   .     A
C400   C412    1.395   .     A
C401   H420    1.082   .     S
C401   N426    1.367   .     A
C402   H421    1.082   .     S
C402   N425    1.367   .     A
C402   C800    1.417   .     S
C403   N425    1.367   .     A
C403   H422    1.082   .     S
C403   C797    1.417   .     S
C404   N426    1.367   .     A
C404   H423    1.082   .     S
C405   O438    1.223   .     D
C405   C414    1.489   .     S
C405   O428    1.399   .     S
C406   O430    1.399   .     S
C406   O429    1.222   .     D
C407   O431    1.282   .     A
C407   O433    1.281   .     A
C408   C410    1.403   .     S
C408   O434    1.278   .     A
C408   O436    1.281   .     A
C409   O437    1.281   .     A
C409   C411    1.403   .     S
C409   O435    1.278   .     A
C410   C499    1.330   1_455 S
C410   H503    1.088   1_455 S
C411   C454    1.330   .     S
C411   H461    1.088   .     S
C412   H418    1.086   .     S
C412   C678    1.378   1_545 S
C413   H419    1.086   .     S
C413   C530    1.378   .     S
C414   C544    1.378   .     S
H415   C454    1.088   .     S
H416   O430    1.014   .     S
H417   C499    1.088   1_455 S
H424   O428    1.014   .     S
N425   Zn439   2.012   .     S
N426   Zn440   2.012   .     S
O427   Zn439   1.987   .     S
O431   Zn440   1.987   .     S
O432   Zn440   1.991   .     S
O433   Zn439   1.991   .     S
O434   Zn439   1.969   .     S
O435   Zn440   1.969   .     S
O436   Zn440   1.981   .     S
O437   Zn439   1.981   .     S
C441   C444    1.413   .     S
C441   O471    1.282   .     A
C441   O476    1.281   .     A
C442   C444    1.408   .     A
C442   C450    1.489   .     S
C442   C721    1.378   1_545 S
C443   C457    1.395   .     A
C443   C451    1.413   .     S
C443   C458    1.408   .     A
C444   C456    1.395   .     A
C445   H464    1.082   .     S
C445   N470    1.367   .     A
C446   H465    1.082   .     S
C446   N469    1.367   .     A
C446   C844    1.417   .     S
C447   N469    1.367   .     A
C447   H466    1.082   .     S
C447   C841    1.417   .     S
C448   N470    1.367   .     A
C448   H467    1.082   .     S
C449   O482    1.223   .     D
C449   C458    1.489   .     S
C449   O472    1.399   .     S
C450   O474    1.399   .     S
C450   O473    1.222   .     D
C451   O475    1.282   .     A
C451   O477    1.281   .     A
C452   C454    1.403   .     S
C452   O478    1.278   .     A
C452   O480    1.281   .     A
C453   O481    1.281   .     A
C453   C455    1.403   .     S
C453   O479    1.278   .     A
C455   C498    1.330   .     S
C455   H505    1.088   .     S
C456   H462    1.086   .     S
C456   C722    1.378   1_545 S
C457   H463    1.086   .     S
C457   C574    1.378   .     S
C458   C588    1.378   .     S
H459   C498    1.088   .     S
H460   O474    1.014   .     S
H468   O472    1.014   .     S
N469   Zn483   2.012   .     S
N470   Zn484   2.012   .     S
O471   Zn483   1.987   .     S
O475   Zn484   1.987   .     S
O476   Zn484   1.991   .     S
O477   Zn483   1.991   .     S
O478   Zn483   1.969   .     S
O479   Zn484   1.969   .     S
O480   Zn484   1.981   .     S
O481   Zn483   1.981   .     S
C485   C488    1.413   .     S
C485   O515    1.282   .     A
C485   O520    1.281   .     A
C486   C488    1.408   .     A
C486   C494    1.489   .     S
C486   C765    1.378   1_545 S
C487   C501    1.395   .     A
C487   C495    1.413   .     S
C487   C502    1.408   .     A
C488   C500    1.395   .     A
C489   H508    1.082   .     S
C489   N514    1.367   .     A
C490   H509    1.082   .     S
C490   N513    1.367   .     A
C490   C888    1.417   .     S
C491   N513    1.367   .     A
C491   H510    1.082   .     S
C491   C885    1.417   .     S
C492   N514    1.367   .     A
C492   H511    1.082   .     S
C493   O526    1.223   .     D
C493   C502    1.489   .     S
C493   O516    1.399   .     S
C494   O518    1.399   .     S
C494   O517    1.222   .     D
C495   O519    1.282   .     A
C495   O521    1.281   .     A
C496   C498    1.403   .     S
C496   O522    1.278   .     A
C496   O524    1.281   .     A
C497   O525    1.281   .     A
C497   C499    1.403   .     S
C497   O523    1.278   .     A
C499   C410    1.330   1_655 S
C499   H417    1.088   1_655 S
C500   H506    1.086   .     S
C500   C766    1.378   1_545 S
C501   H507    1.086   .     S
C501   C618    1.378   .     S
C502   C632    1.378   .     S
H503   C410    1.088   1_655 S
H504   O518    1.014   .     S
H512   O516    1.014   .     S
N513   Zn527   2.012   .     S
N514   Zn528   2.012   .     S
O515   Zn527   1.987   .     S
O519   Zn528   1.987   .     S
O520   Zn528   1.991   .     S
O521   Zn527   1.991   .     S
O522   Zn527   1.969   .     S
O523   Zn528   1.969   .     S
O524   Zn528   1.981   .     S
O525   Zn527   1.981   .     S
C529   C532    1.413   .     S
C529   O559    1.282   .     A
C529   O564    1.281   .     A
C530   C532    1.408   .     A
C530   C538    1.489   .     S
C531   C545    1.395   .     A
C531   C539    1.413   .     S
C531   C546    1.408   .     A
C532   C544    1.395   .     A
C533   H552    1.082   .     S
C533   N558    1.367   .     A
C534   H553    1.082   .     S
C534   N557    1.367   .     A
C534   C932    1.417   .     S
C535   N557    1.367   .     A
C535   H554    1.082   .     S
C535   C929    1.417   .     S
C536   N558    1.367   .     A
C536   H555    1.082   .     S
C537   O570    1.223   .     D
C537   C546    1.489   .     S
C537   O560    1.399   .     S
C538   O562    1.399   .     S
C538   O561    1.222   .     D
C539   O563    1.282   .     A
C539   O565    1.281   .     A
C540   C542    1.403   .     S
C540   O566    1.278   .     A
C540   O568    1.281   .     A
C541   O569    1.281   .     A
C541   C543    1.403   .     S
C541   O567    1.278   .     A
C542   C631    1.330   1_455 S
C542   H635    1.088   1_455 S
C543   C586    1.330   .     S
C543   H593    1.088   .     S
C544   H550    1.086   .     S
C545   H551    1.086   .     S
C545   C662    1.378   .     S
C546   C676    1.378   .     S
H547   C586    1.088   .     S
H548   O562    1.014   .     S
H549   C631    1.088   1_455 S
H556   O560    1.014   .     S
N557   Zn571   2.012   .     S
N558   Zn572   2.012   .     S
O559   Zn571   1.987   .     S
O563   Zn572   1.987   .     S
O564   Zn572   1.991   .     S
O565   Zn571   1.991   .     S
O566   Zn571   1.969   .     S
O567   Zn572   1.969   .     S
O568   Zn572   1.981   .     S
O569   Zn571   1.981   .     S
C573   C576    1.413   .     S
C573   O603    1.282   .     A
C573   O608    1.281   .     A
C574   C576    1.408   .     A
C574   C582    1.489   .     S
C575   C589    1.395   .     A
C575   C583    1.413   .     S
C575   C590    1.408   .     A
C576   C588    1.395   .     A
C577   H596    1.082   .     S
C577   N602    1.367   .     A
C578   H597    1.082   .     S
C578   N601    1.367   .     A
C578   C976    1.417   .     S
C579   N601    1.367   .     A
C579   H598    1.082   .     S
C579   C973    1.417   .     S
C580   N602    1.367   .     A
C580   H599    1.082   .     S
C581   O614    1.223   .     D
C581   C590    1.489   .     S
C581   O604    1.399   .     S
C582   O606    1.399   .     S
C582   O605    1.222   .     D
C583   O607    1.282   .     A
C583   O609    1.281   .     A
C584   C586    1.403   .     S
C584   O610    1.278   .     A
C584   O612    1.281   .     A
C585   O613    1.281   .     A
C585   C587    1.403   .     S
C585   O611    1.278   .     A
C587   C630    1.330   .     S
C587   H637    1.088   .     S
C588   H594    1.086   .     S
C589   H595    1.086   .     S
C589   C706    1.378   .     S
C590   C720    1.378   .     S
H591   C630    1.088   .     S
H592   O606    1.014   .     S
H600   O604    1.014   .     S
N601   Zn615   2.012   .     S
N602   Zn616   2.012   .     S
O603   Zn615   1.987   .     S
O607   Zn616   1.987   .     S
O608   Zn616   1.991   .     S
O609   Zn615   1.991   .     S
O610   Zn615   1.969   .     S
O611   Zn616   1.969   .     S
O612   Zn616   1.981   .     S
O613   Zn615   1.981   .     S
C617   C620    1.413   .     S
C617   O647    1.282   .     A
C617   O652    1.281   .     A
C618   C620    1.408   .     A
C618   C626    1.489   .     S
C619   C633    1.395   .     A
C619   C627    1.413   .     S
C619   C634    1.408   .     A
C620   C632    1.395   .     A
C621   H640    1.082   .     S
C621   N646    1.367   .     A
C622   H641    1.082   .     S
C622   N645    1.367   .     A
C622   C1020   1.417   .     S
C623   N645    1.367   .     A
C623   H642    1.082   .     S
C623   C1017   1.417   .     S
C624   N646    1.367   .     A
C624   H643    1.082   .     S
C625   O658    1.223   .     D
C625   C634    1.489   .     S
C625   O648    1.399   .     S
C626   O650    1.399   .     S
C626   O649    1.222   .     D
C627   O651    1.282   .     A
C627   O653    1.281   .     A
C628   C630    1.403   .     S
C628   O654    1.278   .     A
C628   O656    1.281   .     A
C629   O657    1.281   .     A
C629   C631    1.403   .     S
C629   O655    1.278   .     A
C631   C542    1.330   1_655 S
C631   H549    1.088   1_655 S
C632   H638    1.086   .     S
C633   H639    1.086   .     S
C633   C750    1.378   .     S
C634   C764    1.378   .     S
H635   C542    1.088   1_655 S
H636   O650    1.014   .     S
H644   O648    1.014   .     S
N645   Zn659   2.012   .     S
N646   Zn660   2.012   .     S
O647   Zn659   1.987   .     S
O651   Zn660   1.987   .     S
O652   Zn660   1.991   .     S
O653   Zn659   1.991   .     S
O654   Zn659   1.969   .     S
O655   Zn660   1.969   .     S
O656   Zn660   1.981   .     S
O657   Zn659   1.981   .     S
C661   C664    1.413   .     S
C661   O691    1.282   .     A
C661   O696    1.281   .     A
C662   C664    1.408   .     A
C662   C670    1.489   .     S
C663   C677    1.395   .     A
C663   C671    1.413   .     S
C663   C678    1.408   .     A
C664   C676    1.395   .     A
C665   H684    1.082   .     S
C665   N690    1.367   .     A
C666   H685    1.082   .     S
C666   N689    1.367   .     A
C666   C1064   1.417   .     S
C667   N689    1.367   .     A
C667   H686    1.082   .     S
C667   C1061   1.417   .     S
C668   N690    1.367   .     A
C668   H687    1.082   .     S
C669   O702    1.223   .     D
C669   C678    1.489   .     S
C669   O692    1.399   .     S
C670   O694    1.399   .     S
C670   O693    1.222   .     D
C671   O695    1.282   .     A
C671   O697    1.281   .     A
C672   C674    1.403   .     S
C672   O698    1.278   .     A
C672   O700    1.281   .     A
C673   O701    1.281   .     A
C673   C675    1.403   .     S
C673   O699    1.278   .     A
C674   C763    1.330   1_455 S
C674   H767    1.088   1_455 S
C675   C718    1.330   .     S
C675   H725    1.088   .     S
C676   H682    1.086   .     S
C677   H683    1.086   .     S
C677   C398    1.378   1_565 S
C678   C412    1.378   1_565 S
H679   C718    1.088   .     S
H680   O694    1.014   .     S
H681   C763    1.088   1_455 S
H688   O692    1.014   .     S
N689   Zn703   2.012   .     S
N690   Zn704   2.012   .     S
O691   Zn703   1.987   .     S
O695   Zn704   1.987   .     S
O696   Zn704   1.991   .     S
O697   Zn703   1.991   .     S
O698   Zn703   1.969   .     S
O699   Zn704   1.969   .     S
O700   Zn704   1.981   .     S
O701   Zn703   1.981   .     S
C705   C708    1.413   .     S
C705   O735    1.282   .     A
C705   O740    1.281   .     A
C706   C708    1.408   .     A
C706   C714    1.489   .     S
C707   C721    1.395   .     A
C707   C715    1.413   .     S
C707   C722    1.408   .     A
C708   C720    1.395   .     A
C709   H728    1.082   .     S
C709   N734    1.367   .     A
C710   H729    1.082   .     S
C710   N733    1.367   .     A
C710   C1108   1.417   .     S
C711   N733    1.367   .     A
C711   H730    1.082   .     S
C711   C1105   1.417   .     S
C712   N734    1.367   .     A
C712   H731    1.082   .     S
C713   O746    1.223   .     D
C713   C722    1.489   .     S
C713   O736    1.399   .     S
C714   O738    1.399   .     S
C714   O737    1.222   .     D
C715   O739    1.282   .     A
C715   O741    1.281   .     A
C716   C718    1.403   .     S
C716   O742    1.278   .     A
C716   O744    1.281   .     A
C717   O745    1.281   .     A
C717   C719    1.403   .     S
C717   O743    1.278   .     A
C719   C762    1.330   .     S
C719   H769    1.088   .     S
C720   H726    1.086   .     S
C721   H727    1.086   .     S
C721   C442    1.378   1_565 S
C722   C456    1.378   1_565 S
H723   C762    1.088   .     S
H724   O738    1.014   .     S
H732   O736    1.014   .     S
N733   Zn747   2.012   .     S
N734   Zn748   2.012   .     S
O735   Zn747   1.987   .     S
O739   Zn748   1.987   .     S
O740   Zn748   1.991   .     S
O741   Zn747   1.991   .     S
O742   Zn747   1.969   .     S
O743   Zn748   1.969   .     S
O744   Zn748   1.981   .     S
O745   Zn747   1.981   .     S
C749   C752    1.413   .     S
C749   O779    1.282   .     A
C749   O784    1.281   .     A
C750   C752    1.408   .     A
C750   C758    1.489   .     S
C751   C765    1.395   .     A
C751   C759    1.413   .     S
C751   C766    1.408   .     A
C752   C764    1.395   .     A
C753   H772    1.082   .     S
C753   N778    1.367   .     A
C754   H773    1.082   .     S
C754   N777    1.367   .     A
C754   C1152   1.417   .     S
C755   N777    1.367   .     A
C755   H774    1.082   .     S
C755   C1149   1.417   .     S
C756   N778    1.367   .     A
C756   H775    1.082   .     S
C757   O790    1.223   .     D
C757   C766    1.489   .     S
C757   O780    1.399   .     S
C758   O782    1.399   .     S
C758   O781    1.222   .     D
C759   O783    1.282   .     A
C759   O785    1.281   .     A
C760   C762    1.403   .     S
C760   O786    1.278   .     A
C760   O788    1.281   .     A
C761   O789    1.281   .     A
C761   C763    1.403   .     S
C761   O787    1.278   .     A
C763   C674    1.330   1_655 S
C763   H681    1.088   1_655 S
C764   H770    1.086   .     S
C765   H771    1.086   .     S
C765   C486    1.378   1_565 S
C766   C500    1.378   1_565 S
H767   C674    1.088   1_655 S
H768   O782    1.014   .     S
H776   O780    1.014   .     S
N777   Zn791   2.012   .     S
N778   Zn792   2.012   .     S
O779   Zn791   1.987   .     S
O783   Zn792   1.987   .     S
O784   Zn792   1.991   .     S
O785   Zn791   1.991   .     S
O786   Zn791   1.969   .     S
O787   Zn792   1.969   .     S
O788   Zn792   1.981   .     S
O789   Zn791   1.981   .     S
C793   C796    1.413   .     S
C793   O823    1.282   .     A
C793   O828    1.281   .     A
C794   C796    1.408   .     A
C794   C802    1.489   .     S
C794   C1073   1.378   1_545 S
C795   C809    1.395   .     A
C795   C803    1.413   .     S
C795   C810    1.408   .     A
C796   C808    1.395   .     A
C797   H816    1.082   .     S
C797   N822    1.367   .     A
C798   H817    1.082   .     S
C798   N821    1.367   .     A
C798   C8      1.417   1_556 S
C799   N821    1.367   .     A
C799   H818    1.082   .     S
C799   C5      1.417   1_556 S
C800   N822    1.367   .     A
C800   H819    1.082   .     S
C801   O834    1.223   .     D
C801   C810    1.489   .     S
C801   O824    1.399   .     S
C802   O826    1.399   .     S
C802   O825    1.222   .     D
C803   O827    1.282   .     A
C803   O829    1.281   .     A
C804   C806    1.403   .     S
C804   O830    1.278   .     A
C804   O832    1.281   .     A
C805   O833    1.281   .     A
C805   C807    1.403   .     S
C805   O831    1.278   .     A
C806   C895    1.330   1_455 S
C806   H899    1.088   1_455 S
C807   C850    1.330   .     S
C807   H857    1.088   .     S
C808   H814    1.086   .     S
C808   C1074   1.378   1_545 S
C809   H815    1.086   .     S
C809   C926    1.378   .     S
C810   C940    1.378   .     S
H811   C850    1.088   .     S
H812   O826    1.014   .     S
H813   C895    1.088   1_455 S
H820   O824    1.014   .     S
N821   Zn835   2.012   .     S
N822   Zn836   2.012   .     S
O823   Zn835   1.987   .     S
O827   Zn836   1.987   .     S
O828   Zn836   1.991   .     S
O829   Zn835   1.991   .     S
O830   Zn835   1.969   .     S
O831   Zn836   1.969   .     S
O832   Zn836   1.981   .     S
O833   Zn835   1.981   .     S
C837   C840    1.413   .     S
C837   O867    1.282   .     A
C837   O872    1.281   .     A
C838   C840    1.408   .     A
C838   C846    1.489   .     S
C838   C1117   1.378   1_545 S
C839   C853    1.395   .     A
C839   C847    1.413   .     S
C839   C854    1.408   .     A
C840   C852    1.395   .     A
C841   H860    1.082   .     S
C841   N866    1.367   .     A
C842   H861    1.082   .     S
C842   N865    1.367   .     A
C842   C52     1.417   1_556 S
C843   N865    1.367   .     A
C843   H862    1.082   .     S
C843   C49     1.417   1_556 S
C844   N866    1.367   .     A
C844   H863    1.082   .     S
C845   O878    1.223   .     D
C845   C854    1.489   .     S
C845   O868    1.399   .     S
C846   O870    1.399   .     S
C846   O869    1.222   .     D
C847   O871    1.282   .     A
C847   O873    1.281   .     A
C848   C850    1.403   .     S
C848   O874    1.278   .     A
C848   O876    1.281   .     A
C849   O877    1.281   .     A
C849   C851    1.403   .     S
C849   O875    1.278   .     A
C851   C894    1.330   .     S
C851   H901    1.088   .     S
C852   H858    1.086   .     S
C852   C1118   1.378   1_545 S
C853   H859    1.086   .     S
C853   C970    1.378   .     S
C854   C984    1.378   .     S
H855   C894    1.088   .     S
H856   O870    1.014   .     S
H864   O868    1.014   .     S
N865   Zn879   2.012   .     S
N866   Zn880   2.012   .     S
O867   Zn879   1.987   .     S
O871   Zn880   1.987   .     S
O872   Zn880   1.991   .     S
O873   Zn879   1.991   .     S
O874   Zn879   1.969   .     S
O875   Zn880   1.969   .     S
O876   Zn880   1.981   .     S
O877   Zn879   1.981   .     S
C881   C884    1.413   .     S
C881   O911    1.282   .     A
C881   O916    1.281   .     A
C882   C884    1.408   .     A
C882   C890    1.489   .     S
C882   C1161   1.378   1_545 S
C883   C897    1.395   .     A
C883   C891    1.413   .     S
C883   C898    1.408   .     A
C884   C896    1.395   .     A
C885   H904    1.082   .     S
C885   N910    1.367   .     A
C886   H905    1.082   .     S
C886   N909    1.367   .     A
C886   C96     1.417   1_556 S
C887   N909    1.367   .     A
C887   H906    1.082   .     S
C887   C93     1.417   1_556 S
C888   N910    1.367   .     A
C888   H907    1.082   .     S
C889   O922    1.223   .     D
C889   C898    1.489   .     S
C889   O912    1.399   .     S
C890   O914    1.399   .     S
C890   O913    1.222   .     D
C891   O915    1.282   .     A
C891   O917    1.281   .     A
C892   C894    1.403   .     S
C892   O918    1.278   .     A
C892   O920    1.281   .     A
C893   O921    1.281   .     A
C893   C895    1.403   .     S
C893   O919    1.278   .     A
C895   C806    1.330   1_655 S
C895   H813    1.088   1_655 S
C896   H902    1.086   .     S
C896   C1162   1.378   1_545 S
C897   H903    1.086   .     S
C897   C1014   1.378   .     S
C898   C1028   1.378   .     S
H899   C806    1.088   1_655 S
H900   O914    1.014   .     S
H908   O912    1.014   .     S
N909   Zn923   2.012   .     S
N910   Zn924   2.012   .     S
O911   Zn923   1.987   .     S
O915   Zn924   1.987   .     S
O916   Zn924   1.991   .     S
O917   Zn923   1.991   .     S
O918   Zn923   1.969   .     S
O919   Zn924   1.969   .     S
O920   Zn924   1.981   .     S
O921   Zn923   1.981   .     S
C925   C928    1.413   .     S
C925   O955    1.282   .     A
C925   O960    1.281   .     A
C926   C928    1.408   .     A
C926   C934    1.489   .     S
C927   C941    1.395   .     A
C927   C935    1.413   .     S
C927   C942    1.408   .     A
C928   C940    1.395   .     A
C929   H948    1.082   .     S
C929   N954    1.367   .     A
C930   H949    1.082   .     S
C930   N953    1.367   .     A
C930   C140    1.417   1_556 S
C931   N953    1.367   .     A
C931   H950    1.082   .     S
C931   C137    1.417   1_556 S
C932   N954    1.367   .     A
C932   H951    1.082   .     S
C933   O966    1.223   .     D
C933   C942    1.489   .     S
C933   O956    1.399   .     S
C934   O958    1.399   .     S
C934   O957    1.222   .     D
C935   O959    1.282   .     A
C935   O961    1.281   .     A
C936   C938    1.403   .     S
C936   O962    1.278   .     A
C936   O964    1.281   .     A
C937   O965    1.281   .     A
C937   C939    1.403   .     S
C937   O963    1.278   .     A
C938   C1027   1.330   1_455 S
C938   H1031   1.088   1_455 S
C939   C982    1.330   .     S
C939   H989    1.088   .     S
C940   H946    1.086   .     S
C941   H947    1.086   .     S
C941   C1058   1.378   .     S
C942   C1072   1.378   .     S
H943   C982    1.088   .     S
H944   O958    1.014   .     S
H945   C1027   1.088   1_455 S
H952   O956    1.014   .     S
N953   Zn967   2.012   .     S
N954   Zn968   2.012   .     S
O955   Zn967   1.987   .     S
O959   Zn968   1.987   .     S
O960   Zn968   1.991   .     S
O961   Zn967   1.991   .     S
O962   Zn967   1.969   .     S
O963   Zn968   1.969   .     S
O964   Zn968   1.981   .     S
O965   Zn967   1.981   .     S
C969   C972    1.413   .     S
C969   O999    1.282   .     A
C969   O1004   1.281   .     A
C970   C972    1.408   .     A
C970   C978    1.489   .     S
C971   C985    1.395   .     A
C971   C979    1.413   .     S
C971   C986    1.408   .     A
C972   C984    1.395   .     A
C973   H992    1.082   .     S
C973   N998    1.367   .     A
C974   H993    1.082   .     S
C974   N997    1.367   .     A
C974   C184    1.417   1_556 S
C975   N997    1.367   .     A
C975   H994    1.082   .     S
C975   C181    1.417   1_556 S
C976   N998    1.367   .     A
C976   H995    1.082   .     S
C977   O1010   1.223   .     D
C977   C986    1.489   .     S
C977   O1000   1.399   .     S
C978   O1002   1.399   .     S
C978   O1001   1.222   .     D
C979   O1003   1.282   .     A
C979   O1005   1.281   .     A
C980   C982    1.403   .     S
C980   O1006   1.278   .     A
C980   O1008   1.281   .     A
C981   O1009   1.281   .     A
C981   C983    1.403   .     S
C981   O1007   1.278   .     A
C983   C1026   1.330   .     S
C983   H1033   1.088   .     S
C984   H990    1.086   .     S
C985   H991    1.086   .     S
C985   C1102   1.378   .     S
C986   C1116   1.378   .     S
H987   C1026   1.088   .     S
H988   O1002   1.014   .     S
H996   O1000   1.014   .     S
N997   Zn1011  2.012   .     S
N998   Zn1012  2.012   .     S
O999   Zn1011  1.987   .     S
O1003  Zn1012  1.987   .     S
O1004  Zn1012  1.991   .     S
O1005  Zn1011  1.991   .     S
O1006  Zn1011  1.969   .     S
O1007  Zn1012  1.969   .     S
O1008  Zn1012  1.981   .     S
O1009  Zn1011  1.981   .     S
C1013  C1016   1.413   .     S
C1013  O1043   1.282   .     A
C1013  O1048   1.281   .     A
C1014  C1016   1.408   .     A
C1014  C1022   1.489   .     S
C1015  C1029   1.395   .     A
C1015  C1023   1.413   .     S
C1015  C1030   1.408   .     A
C1016  C1028   1.395   .     A
C1017  H1036   1.082   .     S
C1017  N1042   1.367   .     A
C1018  H1037   1.082   .     S
C1018  N1041   1.367   .     A
C1018  C228    1.417   1_556 S
C1019  N1041   1.367   .     A
C1019  H1038   1.082   .     S
C1019  C225    1.417   1_556 S
C1020  N1042   1.367   .     A
C1020  H1039   1.082   .     S
C1021  O1054   1.223   .     D
C1021  C1030   1.489   .     S
C1021  O1044   1.399   .     S
C1022  O1046   1.399   .     S
C1022  O1045   1.222   .     D
C1023  O1047   1.282   .     A
C1023  O1049   1.281   .     A
C1024  C1026   1.403   .     S
C1024  O1050   1.278   .     A
C1024  O1052   1.281   .     A
C1025  O1053   1.281   .     A
C1025  C1027   1.403   .     S
C1025  O1051   1.278   .     A
C1027  C938    1.330   1_655 S
C1027  H945    1.088   1_655 S
C1028  H1034   1.086   .     S
C1029  H1035   1.086   .     S
C1029  C1146   1.378   .     S
C1030  C1160   1.378   .     S
H1031  C938    1.088   1_655 S
H1032  O1046   1.014   .     S
H1040  O1044   1.014   .     S
N1041  Zn1055  2.012   .     S
N1042  Zn1056  2.012   .     S
O1043  Zn1055  1.987   .     S
O1047  Zn1056  1.987   .     S
O1048  Zn1056  1.991   .     S
O1049  Zn1055  1.991   .     S
O1050  Zn1055  1.969   .     S
O1051  Zn1056  1.969   .     S
O1052  Zn1056  1.981   .     S
O1053  Zn1055  1.981   .     S
C1057  C1060   1.413   .     S
C1057  O1087   1.282   .     A
C1057  O1092   1.281   .     A
C1058  C1060   1.408   .     A
C1058  C1066   1.489   .     S
C1059  C1073   1.395   .     A
C1059  C1067   1.413   .     S
C1059  C1074   1.408   .     A
C1060  C1072   1.395   .     A
C1061  H1080   1.082   .     S
C1061  N1086   1.367   .     A
C1062  H1081   1.082   .     S
C1062  N1085   1.367   .     A
C1062  C272    1.417   1_556 S
C1063  N1085   1.367   .     A
C1063  H1082   1.082   .     S
C1063  C269    1.417   1_556 S
C1064  N1086   1.367   .     A
C1064  H1083   1.082   .     S
C1065  O1098   1.223   .     D
C1065  C1074   1.489   .     S
C1065  O1088   1.399   .     S
C1066  O1090   1.399   .     S
C1066  O1089   1.222   .     D
C1067  O1091   1.282   .     A
C1067  O1093   1.281   .     A
C1068  C1070   1.403   .     S
C1068  O1094   1.278   .     A
C1068  O1096   1.281   .     A
C1069  O1097   1.281   .     A
C1069  C1071   1.403   .     S
C1069  O1095   1.278   .     A
C1070  C1159   1.330   1_455 S
C1070  H1163   1.088   1_455 S
C1071  C1114   1.330   .     S
C1071  H1121   1.088   .     S
C1072  H1078   1.086   .     S
C1073  H1079   1.086   .     S
C1073  C794    1.378   1_565 S
C1074  C808    1.378   1_565 S
H1075  C1114   1.088   .     S
H1076  O1090   1.014   .     S
H1077  C1159   1.088   1_455 S
H1084  O1088   1.014   .     S
N1085  Zn1099  2.012   .     S
N1086  Zn1100  2.012   .     S
O1087  Zn1099  1.987   .     S
O1091  Zn1100  1.987   .     S
O1092  Zn1100  1.991   .     S
O1093  Zn1099  1.991   .     S
O1094  Zn1099  1.969   .     S
O1095  Zn1100  1.969   .     S
O1096  Zn1100  1.981   .     S
O1097  Zn1099  1.981   .     S
C1101  C1104   1.413   .     S
C1101  O1131   1.282   .     A
C1101  O1136   1.281   .     A
C1102  C1104   1.408   .     A
C1102  C1110   1.489   .     S
C1103  C1117   1.395   .     A
C1103  C1111   1.413   .     S
C1103  C1118   1.408   .     A
C1104  C1116   1.395   .     A
C1105  H1124   1.082   .     S
C1105  N1130   1.367   .     A
C1106  H1125   1.082   .     S
C1106  N1129   1.367   .     A
C1106  C316    1.417   1_556 S
C1107  N1129   1.367   .     A
C1107  H1126   1.082   .     S
C1107  C313    1.417   1_556 S
C1108  N1130   1.367   .     A
C1108  H1127   1.082   .     S
C1109  O1142   1.223   .     D
C1109  C1118   1.489   .     S
C1109  O1132   1.399   .     S
C1110  O1134   1.399   .     S
C1110  O1133   1.222   .     D
C1111  O1135   1.282   .     A
C1111  O1137   1.281   .     A
C1112  C1114   1.403   .     S
C1112  O1138   1.278   .     A
C1112  O1140   1.281   .     A
C1113  O1141   1.281   .     A
C1113  C1115   1.403   .     S
C1113  O1139   1.278   .     A
C1115  C1158   1.330   .     S
C1115  H1165   1.088   .     S
C1116  H1122   1.086   .     S
C1117  H1123   1.086   .     S
C1117  C838    1.378   1_565 S
C1118  C852    1.378   1_565 S
H1119  C1158   1.088   .     S
H1120  O1134   1.014   .     S
H1128  O1132   1.014   .     S
N1129  Zn1143  2.012   .     S
N1130  Zn1144  2.012   .     S
O1131  Zn1143  1.987   .     S
O1135  Zn1144  1.987   .     S
O1136  Zn1144  1.991   .     S
O1137  Zn1143  1.991   .     S
O1138  Zn1143  1.969   .     S
O1139  Zn1144  1.969   .     S
O1140  Zn1144  1.981   .     S
O1141  Zn1143  1.981   .     S
C1145  C1148   1.413   .     S
C1145  O1175   1.282   .     A
C1145  O1180   1.281   .     A
C1146  C1148   1.408   .     A
C1146  C1154   1.489   .     S
C1147  C1161   1.395   .     A
C1147  C1155   1.413   .     S
C1147  C1162   1.408   .     A
C1148  C1160   1.395   .     A
C1149  H1168   1.082   .     S
C1149  N1174   1.367   .     A
C1150  H1169   1.082   .     S
C1150  N1173   1.367   .     A
C1150  C360    1.417   1_556 S
C1151  N1173   1.367   .     A
C1151  H1170   1.082   .     S
C1151  C357    1.417   1_556 S
C1152  N1174   1.367   .     A
C1152  H1171   1.082   .     S
C1153  O1186   1.223   .     D
C1153  C1162   1.489   .     S
C1153  O1176   1.399   .     S
C1154  O1178   1.399   .     S
C1154  O1177   1.222   .     D
C1155  O1179   1.282   .     A
C1155  O1181   1.281   .     A
C1156  C1158   1.403   .     S
C1156  O1182   1.278   .     A
C1156  O1184   1.281   .     A
C1157  O1185   1.281   .     A
C1157  C1159   1.403   .     S
C1157  O1183   1.278   .     A
C1159  C1070   1.330   1_655 S
C1159  H1077   1.088   1_655 S
C1160  H1166   1.086   .     S
C1161  H1167   1.086   .     S
C1161  C882    1.378   1_565 S
C1162  C896    1.378   1_565 S
H1163  C1070   1.088   1_655 S
H1164  O1178   1.014   .     S
H1172  O1176   1.014   .     S
N1173  Zn1187  2.012   .     S
N1174  Zn1188  2.012   .     S
O1175  Zn1187  1.987   .     S
O1179  Zn1188  1.987   .     S
O1180  Zn1188  1.991   .     S
O1181  Zn1187  1.991   .     S
O1182  Zn1187  1.969   .     S
O1183  Zn1188  1.969   .     S
O1184  Zn1188  1.981   .     S
O1185  Zn1187  1.981   .     S
