data_str_m3_o1_o2_pcu_sym.42
_audit_creation_date              2020-01-03
_audit_creation_method            'Materials Studio'
_symmetry_space_group_name_H-M    'P1'
_symmetry_Int_Tables_number       1
_symmetry_cell_setting            triclinic
loop_
_symmetry_equiv_pos_as_xyz
  x,y,z
_cell_length_a                    32.1200
_cell_length_b                    29.5286
_cell_length_c                    29.8730
_cell_angle_alpha                 89.9972
_cell_angle_beta                  90.1191
_cell_angle_gamma                 90.0135
loop_
_atom_site_label
_atom_site_type_symbol
_atom_site_fract_x
_atom_site_fract_y
_atom_site_fract_z
_atom_site_U_iso_or_equiv
_atom_site_adp_type
_atom_site_occupancy
Br1    Br    0.08481   0.20961   0.12333   0.00000  Uiso   1.00
Br2    Br    0.08483   0.12376   0.37638   0.00000  Uiso   1.00
Br3    Br    0.24871   0.20949   0.37642   0.00000  Uiso   1.00
Br4    Br    0.24873   0.12408   0.12388   0.00000  Uiso   1.00
C5     C     0.08663   0.16666   0.24996   0.00000  Uiso   1.00
C6     C     0.31200   0.20656   0.23937   0.00000  Uiso   1.00
C7     C     0.31202   0.12678   0.26066   0.00000  Uiso   1.00
C8     C     0.02131   0.20655   0.23931   0.00000  Uiso   1.00
C9     C     0.13289   0.18512   0.04694   0.00000  Uiso   1.00
C10    C     0.13291   0.14841   0.45293   0.00000  Uiso   1.00
C11    C     0.20079   0.18504   0.45297   0.00000  Uiso   1.00
C12    C     0.20080   0.14857   0.04716   0.00000  Uiso   1.00
C13    C     0.13267   0.18526   0.09321   0.00000  Uiso   1.00
C14    C     0.13270   0.14816   0.40666   0.00000  Uiso   1.00
C15    C     0.20090   0.18519   0.40669   0.00000  Uiso   1.00
C16    C     0.24670   0.16667   0.25003   0.00000  Uiso   1.00
C17    C     0.20088   0.14831   0.09344   0.00000  Uiso   1.00
C18    C     0.16672   0.16671   0.11631   0.00000  Uiso   1.00
C19    C     0.16677   0.16666   0.38369   0.00000  Uiso   1.00
C20    C     0.16687   0.16685   0.02410   0.00000  Uiso   1.00
C21    C     0.16686   0.16677   0.47590   0.00000  Uiso   1.00
C22    C     0.29084   0.16668   0.25004   0.00000  Uiso   1.00
C23    C     0.04249   0.16666   0.24995   0.00000  Uiso   1.00
C24    C     0.16666   0.16667   0.16407   0.00000  Uiso   1.00
C25    C     0.16670   0.16667   0.33594   0.00000  Uiso   1.00
C26    C     0.19383   0.02399   0.27640   0.00000  Uiso   1.00
C27    C     0.13950   0.30934   0.22360   0.00000  Uiso   1.00
C28    C     0.13950   0.02397   0.22360   0.00000  Uiso   1.00
C29    C     0.19383   0.30936   0.27640   0.00000  Uiso   1.00
C30    C     0.02133   0.12677   0.26061   0.00000  Uiso   1.00
H31    H     0.21555   0.04216   0.29751   0.00000  Uiso   1.00
H32    H     0.29571   0.23751   0.23077   0.00000  Uiso   1.00
H33    H     0.29575   0.09584   0.26931   0.00000  Uiso   1.00
H34    H     0.03758   0.23748   0.23065   0.00000  Uiso   1.00
H35    H     0.11779   0.29116   0.20249   0.00000  Uiso   1.00
H36    H     0.11779   0.04214   0.20249   0.00000  Uiso   1.00
H37    H     0.21554   0.29119   0.29752   0.00000  Uiso   1.00
H38    H     0.10678   0.19940   0.02877   0.00000  Uiso   1.00
H39    H     0.10679   0.13414   0.47101   0.00000  Uiso   1.00
H40    H     0.22694   0.19935   0.47107   0.00000  Uiso   1.00
H41    H     0.22696   0.13434   0.02916   0.00000  Uiso   1.00
H42    H     0.03762   0.09583   0.26923   0.00000  Uiso   1.00
N43    N     0.16667   0.28573   0.25000   0.00000  Uiso   1.00
N44    N     0.16667   0.04760   0.25000   0.00000  Uiso   1.00
O45    O     0.10559   0.20487   0.25000   0.00000  Uiso   1.00
O46    O     0.22774   0.12846   0.25001   0.00000  Uiso   1.00
O47    O     0.22774   0.20487   0.25001   0.00000  Uiso   1.00
O48    O     0.10559   0.12846   0.25000   0.00000  Uiso   1.00
O49    O     0.16666   0.20489   0.18453   0.00000  Uiso   1.00
O50    O     0.16667   0.12845   0.31547   0.00000  Uiso   1.00
O51    O     0.16667   0.20489   0.31547   0.00000  Uiso   1.00
O52    O     0.16666   0.12845   0.18453   0.00000  Uiso   1.00
Zn53   Zn    0.16667   0.21771   0.25000   0.00000  Uiso   1.00
Zn54   Zn    0.16667   0.11563   0.25000   0.00000  Uiso   1.00
Br55   Br    0.41814   0.20961   0.12333   0.00000  Uiso   1.00
Br56   Br    0.41816   0.12376   0.37638   0.00000  Uiso   1.00
Br57   Br    0.58204   0.20949   0.37642   0.00000  Uiso   1.00
Br58   Br    0.58207   0.12408   0.12388   0.00000  Uiso   1.00
C59    C     0.41996   0.16666   0.24996   0.00000  Uiso   1.00
C60    C     0.64533   0.20656   0.23937   0.00000  Uiso   1.00
C61    C     0.64535   0.12678   0.26066   0.00000  Uiso   1.00
C62    C     0.35464   0.20655   0.23931   0.00000  Uiso   1.00
C63    C     0.46623   0.18512   0.04694   0.00000  Uiso   1.00
C64    C     0.46624   0.14841   0.45293   0.00000  Uiso   1.00
C65    C     0.53412   0.18504   0.45297   0.00000  Uiso   1.00
C66    C     0.53413   0.14857   0.04716   0.00000  Uiso   1.00
C67    C     0.46600   0.18526   0.09321   0.00000  Uiso   1.00
C68    C     0.46604   0.14816   0.40666   0.00000  Uiso   1.00
C69    C     0.53423   0.18519   0.40669   0.00000  Uiso   1.00
C70    C     0.58003   0.16667   0.25003   0.00000  Uiso   1.00
C71    C     0.53422   0.14831   0.09344   0.00000  Uiso   1.00
C72    C     0.50005   0.16671   0.11631   0.00000  Uiso   1.00
C73    C     0.50010   0.16666   0.38369   0.00000  Uiso   1.00
C74    C     0.50020   0.16685   0.02410   0.00000  Uiso   1.00
C75    C     0.50019   0.16677   0.47590   0.00000  Uiso   1.00
C76    C     0.62418   0.16668   0.25004   0.00000  Uiso   1.00
C77    C     0.37582   0.16666   0.24995   0.00000  Uiso   1.00
C78    C     0.49999   0.16667   0.16407   0.00000  Uiso   1.00
C79    C     0.50003   0.16667   0.33594   0.00000  Uiso   1.00
C80    C     0.52716   0.02399   0.27640   0.00000  Uiso   1.00
C81    C     0.47284   0.30934   0.22360   0.00000  Uiso   1.00
C82    C     0.47284   0.02397   0.22360   0.00000  Uiso   1.00
C83    C     0.52716   0.30936   0.27640   0.00000  Uiso   1.00
C84    C     0.35467   0.12677   0.26061   0.00000  Uiso   1.00
H85    H     0.54888   0.04216   0.29751   0.00000  Uiso   1.00
H86    H     0.62904   0.23751   0.23077   0.00000  Uiso   1.00
H87    H     0.62909   0.09584   0.26931   0.00000  Uiso   1.00
H88    H     0.37091   0.23748   0.23065   0.00000  Uiso   1.00
H89    H     0.45112   0.29116   0.20249   0.00000  Uiso   1.00
H90    H     0.45112   0.04214   0.20249   0.00000  Uiso   1.00
H91    H     0.54888   0.29119   0.29752   0.00000  Uiso   1.00
H92    H     0.44011   0.19940   0.02877   0.00000  Uiso   1.00
H93    H     0.44012   0.13414   0.47101   0.00000  Uiso   1.00
H94    H     0.56027   0.19935   0.47107   0.00000  Uiso   1.00
H95    H     0.56030   0.13434   0.02916   0.00000  Uiso   1.00
H96    H     0.37096   0.09583   0.26923   0.00000  Uiso   1.00
N97    N     0.50000   0.28573   0.25000   0.00000  Uiso   1.00
N98    N     0.50000   0.04760   0.25000   0.00000  Uiso   1.00
O99    O     0.43892   0.20487   0.25000   0.00000  Uiso   1.00
O100   O     0.56108   0.12846   0.25001   0.00000  Uiso   1.00
O101   O     0.56108   0.20487   0.25001   0.00000  Uiso   1.00
O102   O     0.43892   0.12846   0.25000   0.00000  Uiso   1.00
O103   O     0.50000   0.20489   0.18453   0.00000  Uiso   1.00
O104   O     0.50000   0.12845   0.31547   0.00000  Uiso   1.00
O105   O     0.50000   0.20489   0.31547   0.00000  Uiso   1.00
O106   O     0.50000   0.12845   0.18453   0.00000  Uiso   1.00
Zn107  Zn    0.50000   0.21771   0.25000   0.00000  Uiso   1.00
Zn108  Zn    0.50000   0.11563   0.25000   0.00000  Uiso   1.00
Br109  Br    0.75147   0.20961   0.12333   0.00000  Uiso   1.00
Br110  Br    0.75150   0.12376   0.37638   0.00000  Uiso   1.00
Br111  Br    0.91538   0.20949   0.37642   0.00000  Uiso   1.00
Br112  Br    0.91540   0.12408   0.12388   0.00000  Uiso   1.00
C113   C     0.75330   0.16666   0.24996   0.00000  Uiso   1.00
C114   C     0.97866   0.20656   0.23937   0.00000  Uiso   1.00
C115   C     0.97869   0.12678   0.26066   0.00000  Uiso   1.00
C116   C     0.68798   0.20655   0.23931   0.00000  Uiso   1.00
C117   C     0.79956   0.18512   0.04694   0.00000  Uiso   1.00
C118   C     0.79957   0.14841   0.45293   0.00000  Uiso   1.00
C119   C     0.86746   0.18504   0.45297   0.00000  Uiso   1.00
C120   C     0.86746   0.14857   0.04716   0.00000  Uiso   1.00
C121   C     0.79933   0.18526   0.09321   0.00000  Uiso   1.00
C122   C     0.79937   0.14816   0.40666   0.00000  Uiso   1.00
C123   C     0.86756   0.18519   0.40669   0.00000  Uiso   1.00
C124   C     0.91337   0.16667   0.25003   0.00000  Uiso   1.00
C125   C     0.86755   0.14831   0.09344   0.00000  Uiso   1.00
C126   C     0.83339   0.16671   0.11631   0.00000  Uiso   1.00
C127   C     0.83343   0.16666   0.38369   0.00000  Uiso   1.00
C128   C     0.83353   0.16685   0.02410   0.00000  Uiso   1.00
C129   C     0.83353   0.16677   0.47590   0.00000  Uiso   1.00
C130   C     0.95751   0.16668   0.25004   0.00000  Uiso   1.00
C131   C     0.70915   0.16666   0.24995   0.00000  Uiso   1.00
C132   C     0.83332   0.16667   0.16407   0.00000  Uiso   1.00
C133   C     0.83336   0.16667   0.33594   0.00000  Uiso   1.00
C134   C     0.86050   0.02399   0.27640   0.00000  Uiso   1.00
C135   C     0.80617   0.30934   0.22360   0.00000  Uiso   1.00
C136   C     0.80617   0.02397   0.22360   0.00000  Uiso   1.00
C137   C     0.86050   0.30936   0.27640   0.00000  Uiso   1.00
C138   C     0.68800   0.12677   0.26061   0.00000  Uiso   1.00
H139   H     0.88222   0.04216   0.29751   0.00000  Uiso   1.00
H140   H     0.96237   0.23751   0.23077   0.00000  Uiso   1.00
H141   H     0.96242   0.09584   0.26931   0.00000  Uiso   1.00
H142   H     0.70424   0.23748   0.23065   0.00000  Uiso   1.00
H143   H     0.78445   0.29116   0.20249   0.00000  Uiso   1.00
H144   H     0.78446   0.04214   0.20249   0.00000  Uiso   1.00
H145   H     0.88221   0.29119   0.29752   0.00000  Uiso   1.00
H146   H     0.77344   0.19940   0.02877   0.00000  Uiso   1.00
H147   H     0.77346   0.13414   0.47101   0.00000  Uiso   1.00
H148   H     0.89361   0.19935   0.47107   0.00000  Uiso   1.00
H149   H     0.89363   0.13434   0.02916   0.00000  Uiso   1.00
H150   H     0.70429   0.09583   0.26923   0.00000  Uiso   1.00
N151   N     0.83333   0.28573   0.25000   0.00000  Uiso   1.00
N152   N     0.83333   0.04760   0.25000   0.00000  Uiso   1.00
O153   O     0.77226   0.20487   0.25000   0.00000  Uiso   1.00
O154   O     0.89441   0.12846   0.25001   0.00000  Uiso   1.00
O155   O     0.89441   0.20487   0.25001   0.00000  Uiso   1.00
O156   O     0.77226   0.12846   0.25000   0.00000  Uiso   1.00
O157   O     0.83333   0.20489   0.18453   0.00000  Uiso   1.00
O158   O     0.83334   0.12845   0.31547   0.00000  Uiso   1.00
O159   O     0.83334   0.20489   0.31547   0.00000  Uiso   1.00
O160   O     0.83333   0.12845   0.18453   0.00000  Uiso   1.00
Zn161  Zn    0.83333   0.21771   0.25000   0.00000  Uiso   1.00
Zn162  Zn    0.83333   0.11563   0.25000   0.00000  Uiso   1.00
Br163  Br    0.08481   0.54295   0.12333   0.00000  Uiso   1.00
Br164  Br    0.08483   0.45710   0.37638   0.00000  Uiso   1.00
Br165  Br    0.24871   0.54283   0.37642   0.00000  Uiso   1.00
Br166  Br    0.24873   0.45741   0.12388   0.00000  Uiso   1.00
C167   C     0.08663   0.50000   0.24996   0.00000  Uiso   1.00
C168   C     0.31200   0.53990   0.23937   0.00000  Uiso   1.00
C169   C     0.31202   0.46011   0.26066   0.00000  Uiso   1.00
C170   C     0.02131   0.53988   0.23931   0.00000  Uiso   1.00
C171   C     0.13289   0.51845   0.04694   0.00000  Uiso   1.00
C172   C     0.13291   0.48174   0.45293   0.00000  Uiso   1.00
C173   C     0.20079   0.51838   0.45297   0.00000  Uiso   1.00
C174   C     0.20080   0.48190   0.04716   0.00000  Uiso   1.00
C175   C     0.13267   0.51859   0.09321   0.00000  Uiso   1.00
C176   C     0.13270   0.48149   0.40666   0.00000  Uiso   1.00
C177   C     0.20090   0.51852   0.40669   0.00000  Uiso   1.00
C178   C     0.24670   0.50000   0.25003   0.00000  Uiso   1.00
C179   C     0.20088   0.48164   0.09344   0.00000  Uiso   1.00
C180   C     0.16672   0.50005   0.11631   0.00000  Uiso   1.00
C181   C     0.16677   0.50000   0.38369   0.00000  Uiso   1.00
C182   C     0.16687   0.50018   0.02410   0.00000  Uiso   1.00
C183   C     0.16686   0.50010   0.47590   0.00000  Uiso   1.00
C184   C     0.29084   0.50001   0.25004   0.00000  Uiso   1.00
C185   C     0.04249   0.49999   0.24995   0.00000  Uiso   1.00
C186   C     0.16666   0.50001   0.16407   0.00000  Uiso   1.00
C187   C     0.16670   0.50000   0.33594   0.00000  Uiso   1.00
C188   C     0.19383   0.35732   0.27640   0.00000  Uiso   1.00
C189   C     0.13950   0.64268   0.22360   0.00000  Uiso   1.00
C190   C     0.13950   0.35731   0.22360   0.00000  Uiso   1.00
C191   C     0.19383   0.64269   0.27640   0.00000  Uiso   1.00
C192   C     0.02133   0.46010   0.26061   0.00000  Uiso   1.00
H193   H     0.21555   0.37550   0.29751   0.00000  Uiso   1.00
H194   H     0.29571   0.57084   0.23077   0.00000  Uiso   1.00
H195   H     0.29575   0.42918   0.26931   0.00000  Uiso   1.00
H196   H     0.03758   0.57082   0.23065   0.00000  Uiso   1.00
H197   H     0.11779   0.62450   0.20249   0.00000  Uiso   1.00
H198   H     0.11779   0.37547   0.20249   0.00000  Uiso   1.00
H199   H     0.21554   0.62452   0.29752   0.00000  Uiso   1.00
H200   H     0.10678   0.53274   0.02877   0.00000  Uiso   1.00
H201   H     0.10679   0.46747   0.47101   0.00000  Uiso   1.00
H202   H     0.22694   0.53268   0.47107   0.00000  Uiso   1.00
H203   H     0.22696   0.46767   0.02916   0.00000  Uiso   1.00
H204   H     0.03762   0.42916   0.26923   0.00000  Uiso   1.00
N205   N     0.16667   0.61907   0.25000   0.00000  Uiso   1.00
N206   N     0.16667   0.38093   0.25000   0.00000  Uiso   1.00
O207   O     0.10559   0.53821   0.25000   0.00000  Uiso   1.00
O208   O     0.22774   0.46179   0.25001   0.00000  Uiso   1.00
O209   O     0.22774   0.53821   0.25001   0.00000  Uiso   1.00
O210   O     0.10559   0.46179   0.25000   0.00000  Uiso   1.00
O211   O     0.16666   0.53822   0.18453   0.00000  Uiso   1.00
O212   O     0.16667   0.46178   0.31547   0.00000  Uiso   1.00
O213   O     0.16667   0.53822   0.31547   0.00000  Uiso   1.00
O214   O     0.16666   0.46178   0.18453   0.00000  Uiso   1.00
Zn215  Zn    0.16667   0.55104   0.25000   0.00000  Uiso   1.00
Zn216  Zn    0.16667   0.44896   0.25000   0.00000  Uiso   1.00
Br217  Br    0.41814   0.54295   0.12333   0.00000  Uiso   1.00
Br218  Br    0.41816   0.45710   0.37638   0.00000  Uiso   1.00
Br219  Br    0.58204   0.54283   0.37642   0.00000  Uiso   1.00
Br220  Br    0.58207   0.45741   0.12388   0.00000  Uiso   1.00
C221   C     0.41996   0.50000   0.24996   0.00000  Uiso   1.00
C222   C     0.64533   0.53990   0.23937   0.00000  Uiso   1.00
C223   C     0.64535   0.46011   0.26066   0.00000  Uiso   1.00
C224   C     0.35464   0.53988   0.23931   0.00000  Uiso   1.00
C225   C     0.46623   0.51845   0.04694   0.00000  Uiso   1.00
C226   C     0.46624   0.48174   0.45293   0.00000  Uiso   1.00
C227   C     0.53412   0.51838   0.45297   0.00000  Uiso   1.00
C228   C     0.53413   0.48190   0.04716   0.00000  Uiso   1.00
C229   C     0.46600   0.51859   0.09321   0.00000  Uiso   1.00
C230   C     0.46604   0.48149   0.40666   0.00000  Uiso   1.00
C231   C     0.53423   0.51852   0.40669   0.00000  Uiso   1.00
C232   C     0.58003   0.50000   0.25003   0.00000  Uiso   1.00
C233   C     0.53422   0.48164   0.09344   0.00000  Uiso   1.00
C234   C     0.50005   0.50005   0.11631   0.00000  Uiso   1.00
C235   C     0.50010   0.50000   0.38369   0.00000  Uiso   1.00
C236   C     0.50020   0.50018   0.02410   0.00000  Uiso   1.00
C237   C     0.50019   0.50010   0.47590   0.00000  Uiso   1.00
C238   C     0.62418   0.50001   0.25004   0.00000  Uiso   1.00
C239   C     0.37582   0.49999   0.24995   0.00000  Uiso   1.00
C240   C     0.49999   0.50001   0.16407   0.00000  Uiso   1.00
C241   C     0.50003   0.50000   0.33594   0.00000  Uiso   1.00
C242   C     0.52716   0.35732   0.27640   0.00000  Uiso   1.00
C243   C     0.47284   0.64268   0.22360   0.00000  Uiso   1.00
C244   C     0.47284   0.35731   0.22360   0.00000  Uiso   1.00
C245   C     0.52716   0.64269   0.27640   0.00000  Uiso   1.00
C246   C     0.35467   0.46010   0.26061   0.00000  Uiso   1.00
H247   H     0.54888   0.37550   0.29751   0.00000  Uiso   1.00
H248   H     0.62904   0.57084   0.23077   0.00000  Uiso   1.00
H249   H     0.62909   0.42918   0.26931   0.00000  Uiso   1.00
H250   H     0.37091   0.57082   0.23065   0.00000  Uiso   1.00
H251   H     0.45112   0.62450   0.20249   0.00000  Uiso   1.00
H252   H     0.45112   0.37547   0.20249   0.00000  Uiso   1.00
H253   H     0.54888   0.62452   0.29752   0.00000  Uiso   1.00
H254   H     0.44011   0.53274   0.02877   0.00000  Uiso   1.00
H255   H     0.44012   0.46747   0.47101   0.00000  Uiso   1.00
H256   H     0.56027   0.53268   0.47107   0.00000  Uiso   1.00
H257   H     0.56030   0.46767   0.02916   0.00000  Uiso   1.00
H258   H     0.37096   0.42916   0.26923   0.00000  Uiso   1.00
N259   N     0.50000   0.61907   0.25000   0.00000  Uiso   1.00
N260   N     0.50000   0.38093   0.25000   0.00000  Uiso   1.00
O261   O     0.43892   0.53821   0.25000   0.00000  Uiso   1.00
O262   O     0.56108   0.46179   0.25001   0.00000  Uiso   1.00
O263   O     0.56108   0.53821   0.25001   0.00000  Uiso   1.00
O264   O     0.43892   0.46179   0.25000   0.00000  Uiso   1.00
O265   O     0.50000   0.53822   0.18453   0.00000  Uiso   1.00
O266   O     0.50000   0.46178   0.31547   0.00000  Uiso   1.00
O267   O     0.50000   0.53822   0.31547   0.00000  Uiso   1.00
O268   O     0.50000   0.46178   0.18453   0.00000  Uiso   1.00
Zn269  Zn    0.50000   0.55104   0.25000   0.00000  Uiso   1.00
Zn270  Zn    0.50000   0.44896   0.25000   0.00000  Uiso   1.00
Br271  Br    0.75147   0.54295   0.12333   0.00000  Uiso   1.00
Br272  Br    0.75150   0.45710   0.37638   0.00000  Uiso   1.00
Br273  Br    0.91538   0.54283   0.37642   0.00000  Uiso   1.00
Br274  Br    0.91540   0.45741   0.12388   0.00000  Uiso   1.00
C275   C     0.75330   0.50000   0.24996   0.00000  Uiso   1.00
C276   C     0.97866   0.53990   0.23937   0.00000  Uiso   1.00
C277   C     0.97869   0.46011   0.26066   0.00000  Uiso   1.00
C278   C     0.68798   0.53988   0.23931   0.00000  Uiso   1.00
C279   C     0.79956   0.51845   0.04694   0.00000  Uiso   1.00
C280   C     0.79957   0.48174   0.45293   0.00000  Uiso   1.00
C281   C     0.86746   0.51838   0.45297   0.00000  Uiso   1.00
C282   C     0.86746   0.48190   0.04716   0.00000  Uiso   1.00
C283   C     0.79933   0.51859   0.09321   0.00000  Uiso   1.00
C284   C     0.79937   0.48149   0.40666   0.00000  Uiso   1.00
C285   C     0.86756   0.51852   0.40669   0.00000  Uiso   1.00
C286   C     0.91337   0.50000   0.25003   0.00000  Uiso   1.00
C287   C     0.86755   0.48164   0.09344   0.00000  Uiso   1.00
C288   C     0.83339   0.50005   0.11631   0.00000  Uiso   1.00
C289   C     0.83343   0.50000   0.38369   0.00000  Uiso   1.00
C290   C     0.83353   0.50018   0.02410   0.00000  Uiso   1.00
C291   C     0.83353   0.50010   0.47590   0.00000  Uiso   1.00
C292   C     0.95751   0.50001   0.25004   0.00000  Uiso   1.00
C293   C     0.70915   0.49999   0.24995   0.00000  Uiso   1.00
C294   C     0.83332   0.50001   0.16407   0.00000  Uiso   1.00
C295   C     0.83336   0.50000   0.33594   0.00000  Uiso   1.00
C296   C     0.86050   0.35732   0.27640   0.00000  Uiso   1.00
C297   C     0.80617   0.64268   0.22360   0.00000  Uiso   1.00
C298   C     0.80617   0.35731   0.22360   0.00000  Uiso   1.00
C299   C     0.86050   0.64269   0.27640   0.00000  Uiso   1.00
C300   C     0.68800   0.46010   0.26061   0.00000  Uiso   1.00
H301   H     0.88222   0.37550   0.29751   0.00000  Uiso   1.00
H302   H     0.96237   0.57084   0.23077   0.00000  Uiso   1.00
H303   H     0.96242   0.42918   0.26931   0.00000  Uiso   1.00
H304   H     0.70424   0.57082   0.23065   0.00000  Uiso   1.00
H305   H     0.78445   0.62450   0.20249   0.00000  Uiso   1.00
H306   H     0.78446   0.37547   0.20249   0.00000  Uiso   1.00
H307   H     0.88221   0.62452   0.29752   0.00000  Uiso   1.00
H308   H     0.77344   0.53274   0.02877   0.00000  Uiso   1.00
H309   H     0.77346   0.46747   0.47101   0.00000  Uiso   1.00
H310   H     0.89361   0.53268   0.47107   0.00000  Uiso   1.00
H311   H     0.89363   0.46767   0.02916   0.00000  Uiso   1.00
H312   H     0.70429   0.42916   0.26923   0.00000  Uiso   1.00
N313   N     0.83333   0.61907   0.25000   0.00000  Uiso   1.00
N314   N     0.83333   0.38093   0.25000   0.00000  Uiso   1.00
O315   O     0.77226   0.53821   0.25000   0.00000  Uiso   1.00
O316   O     0.89441   0.46179   0.25001   0.00000  Uiso   1.00
O317   O     0.89441   0.53821   0.25001   0.00000  Uiso   1.00
O318   O     0.77226   0.46179   0.25000   0.00000  Uiso   1.00
O319   O     0.83333   0.53822   0.18453   0.00000  Uiso   1.00
O320   O     0.83334   0.46178   0.31547   0.00000  Uiso   1.00
O321   O     0.83334   0.53822   0.31547   0.00000  Uiso   1.00
O322   O     0.83333   0.46178   0.18453   0.00000  Uiso   1.00
Zn323  Zn    0.83333   0.55104   0.25000   0.00000  Uiso   1.00
Zn324  Zn    0.83333   0.44896   0.25000   0.00000  Uiso   1.00
Br325  Br    0.08481   0.87628   0.12333   0.00000  Uiso   1.00
Br326  Br    0.08483   0.79043   0.37638   0.00000  Uiso   1.00
Br327  Br    0.24871   0.87616   0.37642   0.00000  Uiso   1.00
Br328  Br    0.24873   0.79075   0.12388   0.00000  Uiso   1.00
C329   C     0.08663   0.83333   0.24996   0.00000  Uiso   1.00
C330   C     0.31200   0.87323   0.23937   0.00000  Uiso   1.00
C331   C     0.31202   0.79345   0.26066   0.00000  Uiso   1.00
C332   C     0.02131   0.87322   0.23931   0.00000  Uiso   1.00
C333   C     0.13289   0.85179   0.04694   0.00000  Uiso   1.00
C334   C     0.13291   0.81508   0.45293   0.00000  Uiso   1.00
C335   C     0.20079   0.85171   0.45297   0.00000  Uiso   1.00
C336   C     0.20080   0.81524   0.04716   0.00000  Uiso   1.00
C337   C     0.13267   0.85193   0.09321   0.00000  Uiso   1.00
C338   C     0.13270   0.81483   0.40666   0.00000  Uiso   1.00
C339   C     0.20090   0.85186   0.40669   0.00000  Uiso   1.00
C340   C     0.24670   0.83334   0.25003   0.00000  Uiso   1.00
C341   C     0.20088   0.81498   0.09344   0.00000  Uiso   1.00
C342   C     0.16672   0.83338   0.11631   0.00000  Uiso   1.00
C343   C     0.16677   0.83333   0.38369   0.00000  Uiso   1.00
C344   C     0.16687   0.83351   0.02410   0.00000  Uiso   1.00
C345   C     0.16686   0.83344   0.47590   0.00000  Uiso   1.00
C346   C     0.29084   0.83334   0.25004   0.00000  Uiso   1.00
C347   C     0.04249   0.83332   0.24995   0.00000  Uiso   1.00
C348   C     0.16666   0.83334   0.16407   0.00000  Uiso   1.00
C349   C     0.16670   0.83333   0.33594   0.00000  Uiso   1.00
C350   C     0.19383   0.69065   0.27640   0.00000  Uiso   1.00
C351   C     0.13950   0.97601   0.22360   0.00000  Uiso   1.00
C352   C     0.13950   0.69064   0.22360   0.00000  Uiso   1.00
C353   C     0.19383   0.97602   0.27640   0.00000  Uiso   1.00
C354   C     0.02133   0.79343   0.26061   0.00000  Uiso   1.00
H355   H     0.21555   0.70883   0.29751   0.00000  Uiso   1.00
H356   H     0.29571   0.90418   0.23077   0.00000  Uiso   1.00
H357   H     0.29575   0.76251   0.26931   0.00000  Uiso   1.00
H358   H     0.03758   0.90415   0.23065   0.00000  Uiso   1.00
H359   H     0.11779   0.95783   0.20249   0.00000  Uiso   1.00
H360   H     0.11779   0.70881   0.20249   0.00000  Uiso   1.00
H361   H     0.21554   0.95785   0.29752   0.00000  Uiso   1.00
H362   H     0.10678   0.86607   0.02877   0.00000  Uiso   1.00
H363   H     0.10679   0.80081   0.47101   0.00000  Uiso   1.00
H364   H     0.22694   0.86602   0.47107   0.00000  Uiso   1.00
H365   H     0.22696   0.80100   0.02916   0.00000  Uiso   1.00
H366   H     0.03762   0.76249   0.26923   0.00000  Uiso   1.00
N367   N     0.16667   0.95240   0.25000   0.00000  Uiso   1.00
N368   N     0.16667   0.71427   0.25000   0.00000  Uiso   1.00
O369   O     0.10559   0.87154   0.25000   0.00000  Uiso   1.00
O370   O     0.22774   0.79513   0.25001   0.00000  Uiso   1.00
O371   O     0.22774   0.87154   0.25001   0.00000  Uiso   1.00
O372   O     0.10559   0.79513   0.25000   0.00000  Uiso   1.00
O373   O     0.16666   0.87155   0.18453   0.00000  Uiso   1.00
O374   O     0.16667   0.79511   0.31547   0.00000  Uiso   1.00
O375   O     0.16667   0.87155   0.31547   0.00000  Uiso   1.00
O376   O     0.16666   0.79511   0.18453   0.00000  Uiso   1.00
Zn377  Zn    0.16667   0.88437   0.25000   0.00000  Uiso   1.00
Zn378  Zn    0.16667   0.78229   0.25000   0.00000  Uiso   1.00
Br379  Br    0.41814   0.87628   0.12333   0.00000  Uiso   1.00
Br380  Br    0.41816   0.79043   0.37638   0.00000  Uiso   1.00
Br381  Br    0.58204   0.87616   0.37642   0.00000  Uiso   1.00
Br382  Br    0.58207   0.79075   0.12388   0.00000  Uiso   1.00
C383   C     0.41996   0.83333   0.24996   0.00000  Uiso   1.00
C384   C     0.64533   0.87323   0.23937   0.00000  Uiso   1.00
C385   C     0.64535   0.79345   0.26066   0.00000  Uiso   1.00
C386   C     0.35464   0.87322   0.23931   0.00000  Uiso   1.00
C387   C     0.46623   0.85179   0.04694   0.00000  Uiso   1.00
C388   C     0.46624   0.81508   0.45293   0.00000  Uiso   1.00
C389   C     0.53412   0.85171   0.45297   0.00000  Uiso   1.00
C390   C     0.53413   0.81524   0.04716   0.00000  Uiso   1.00
C391   C     0.46600   0.85193   0.09321   0.00000  Uiso   1.00
C392   C     0.46604   0.81483   0.40666   0.00000  Uiso   1.00
C393   C     0.53423   0.85186   0.40669   0.00000  Uiso   1.00
C394   C     0.58003   0.83334   0.25003   0.00000  Uiso   1.00
C395   C     0.53422   0.81498   0.09344   0.00000  Uiso   1.00
C396   C     0.50005   0.83338   0.11631   0.00000  Uiso   1.00
C397   C     0.50010   0.83333   0.38369   0.00000  Uiso   1.00
C398   C     0.50020   0.83351   0.02410   0.00000  Uiso   1.00
C399   C     0.50019   0.83344   0.47590   0.00000  Uiso   1.00
C400   C     0.62418   0.83334   0.25004   0.00000  Uiso   1.00
C401   C     0.37582   0.83332   0.24995   0.00000  Uiso   1.00
C402   C     0.49999   0.83334   0.16407   0.00000  Uiso   1.00
C403   C     0.50003   0.83333   0.33594   0.00000  Uiso   1.00
C404   C     0.52716   0.69065   0.27640   0.00000  Uiso   1.00
C405   C     0.47284   0.97601   0.22360   0.00000  Uiso   1.00
C406   C     0.47284   0.69064   0.22360   0.00000  Uiso   1.00
C407   C     0.52716   0.97602   0.27640   0.00000  Uiso   1.00
C408   C     0.35467   0.79343   0.26061   0.00000  Uiso   1.00
H409   H     0.54888   0.70883   0.29751   0.00000  Uiso   1.00
H410   H     0.62904   0.90418   0.23077   0.00000  Uiso   1.00
H411   H     0.62909   0.76251   0.26931   0.00000  Uiso   1.00
H412   H     0.37091   0.90415   0.23065   0.00000  Uiso   1.00
H413   H     0.45112   0.95783   0.20249   0.00000  Uiso   1.00
H414   H     0.45112   0.70881   0.20249   0.00000  Uiso   1.00
H415   H     0.54888   0.95785   0.29752   0.00000  Uiso   1.00
H416   H     0.44011   0.86607   0.02877   0.00000  Uiso   1.00
H417   H     0.44012   0.80081   0.47101   0.00000  Uiso   1.00
H418   H     0.56027   0.86602   0.47107   0.00000  Uiso   1.00
H419   H     0.56030   0.80100   0.02916   0.00000  Uiso   1.00
H420   H     0.37096   0.76249   0.26923   0.00000  Uiso   1.00
N421   N     0.50000   0.95240   0.25000   0.00000  Uiso   1.00
N422   N     0.50000   0.71427   0.25000   0.00000  Uiso   1.00
O423   O     0.43892   0.87154   0.25000   0.00000  Uiso   1.00
O424   O     0.56108   0.79513   0.25001   0.00000  Uiso   1.00
O425   O     0.56108   0.87154   0.25001   0.00000  Uiso   1.00
O426   O     0.43892   0.79513   0.25000   0.00000  Uiso   1.00
O427   O     0.50000   0.87155   0.18453   0.00000  Uiso   1.00
O428   O     0.50000   0.79511   0.31547   0.00000  Uiso   1.00
O429   O     0.50000   0.87155   0.31547   0.00000  Uiso   1.00
O430   O     0.50000   0.79511   0.18453   0.00000  Uiso   1.00
Zn431  Zn    0.50000   0.88437   0.25000   0.00000  Uiso   1.00
Zn432  Zn    0.50000   0.78229   0.25000   0.00000  Uiso   1.00
Br433  Br    0.75147   0.87628   0.12333   0.00000  Uiso   1.00
Br434  Br    0.75150   0.79043   0.37638   0.00000  Uiso   1.00
Br435  Br    0.91538   0.87616   0.37642   0.00000  Uiso   1.00
Br436  Br    0.91540   0.79075   0.12388   0.00000  Uiso   1.00
C437   C     0.75330   0.83333   0.24996   0.00000  Uiso   1.00
C438   C     0.97866   0.87323   0.23937   0.00000  Uiso   1.00
C439   C     0.97869   0.79345   0.26066   0.00000  Uiso   1.00
C440   C     0.68798   0.87322   0.23931   0.00000  Uiso   1.00
C441   C     0.79956   0.85179   0.04694   0.00000  Uiso   1.00
C442   C     0.79957   0.81508   0.45293   0.00000  Uiso   1.00
C443   C     0.86746   0.85171   0.45297   0.00000  Uiso   1.00
C444   C     0.86746   0.81524   0.04716   0.00000  Uiso   1.00
C445   C     0.79933   0.85193   0.09321   0.00000  Uiso   1.00
C446   C     0.79937   0.81483   0.40666   0.00000  Uiso   1.00
C447   C     0.86756   0.85186   0.40669   0.00000  Uiso   1.00
C448   C     0.91337   0.83334   0.25003   0.00000  Uiso   1.00
C449   C     0.86755   0.81498   0.09344   0.00000  Uiso   1.00
C450   C     0.83339   0.83338   0.11631   0.00000  Uiso   1.00
C451   C     0.83343   0.83333   0.38369   0.00000  Uiso   1.00
C452   C     0.83353   0.83351   0.02410   0.00000  Uiso   1.00
C453   C     0.83353   0.83344   0.47590   0.00000  Uiso   1.00
C454   C     0.95751   0.83334   0.25004   0.00000  Uiso   1.00
C455   C     0.70915   0.83332   0.24995   0.00000  Uiso   1.00
C456   C     0.83332   0.83334   0.16407   0.00000  Uiso   1.00
C457   C     0.83336   0.83333   0.33594   0.00000  Uiso   1.00
C458   C     0.86050   0.69065   0.27640   0.00000  Uiso   1.00
C459   C     0.80617   0.97601   0.22360   0.00000  Uiso   1.00
C460   C     0.80617   0.69064   0.22360   0.00000  Uiso   1.00
C461   C     0.86050   0.97602   0.27640   0.00000  Uiso   1.00
C462   C     0.68800   0.79343   0.26061   0.00000  Uiso   1.00
H463   H     0.88222   0.70883   0.29751   0.00000  Uiso   1.00
H464   H     0.96237   0.90418   0.23077   0.00000  Uiso   1.00
H465   H     0.96242   0.76251   0.26931   0.00000  Uiso   1.00
H466   H     0.70424   0.90415   0.23065   0.00000  Uiso   1.00
H467   H     0.78445   0.95783   0.20249   0.00000  Uiso   1.00
H468   H     0.78446   0.70881   0.20249   0.00000  Uiso   1.00
H469   H     0.88221   0.95785   0.29752   0.00000  Uiso   1.00
H470   H     0.77344   0.86607   0.02877   0.00000  Uiso   1.00
H471   H     0.77346   0.80081   0.47101   0.00000  Uiso   1.00
H472   H     0.89361   0.86602   0.47107   0.00000  Uiso   1.00
H473   H     0.89363   0.80100   0.02916   0.00000  Uiso   1.00
H474   H     0.70429   0.76249   0.26923   0.00000  Uiso   1.00
N475   N     0.83333   0.95240   0.25000   0.00000  Uiso   1.00
N476   N     0.83333   0.71427   0.25000   0.00000  Uiso   1.00
O477   O     0.77226   0.87154   0.25000   0.00000  Uiso   1.00
O478   O     0.89441   0.79513   0.25001   0.00000  Uiso   1.00
O479   O     0.89441   0.87154   0.25001   0.00000  Uiso   1.00
O480   O     0.77226   0.79513   0.25000   0.00000  Uiso   1.00
O481   O     0.83333   0.87155   0.18453   0.00000  Uiso   1.00
O482   O     0.83334   0.79511   0.31547   0.00000  Uiso   1.00
O483   O     0.83334   0.87155   0.31547   0.00000  Uiso   1.00
O484   O     0.83333   0.79511   0.18453   0.00000  Uiso   1.00
Zn485  Zn    0.83333   0.88437   0.25000   0.00000  Uiso   1.00
Zn486  Zn    0.83333   0.78229   0.25000   0.00000  Uiso   1.00
Br487  Br    0.08481   0.20961   0.62333   0.00000  Uiso   1.00
Br488  Br    0.08483   0.12376   0.87638   0.00000  Uiso   1.00
Br489  Br    0.24871   0.20949   0.87642   0.00000  Uiso   1.00
Br490  Br    0.24873   0.12408   0.62388   0.00000  Uiso   1.00
C491   C     0.08663   0.16666   0.74996   0.00000  Uiso   1.00
C492   C     0.31200   0.20656   0.73937   0.00000  Uiso   1.00
C493   C     0.31202   0.12678   0.76066   0.00000  Uiso   1.00
C494   C     0.02131   0.20655   0.73931   0.00000  Uiso   1.00
C495   C     0.13289   0.18512   0.54694   0.00000  Uiso   1.00
C496   C     0.13291   0.14841   0.95293   0.00000  Uiso   1.00
C497   C     0.20079   0.18504   0.95297   0.00000  Uiso   1.00
C498   C     0.20080   0.14857   0.54716   0.00000  Uiso   1.00
C499   C     0.13267   0.18526   0.59321   0.00000  Uiso   1.00
C500   C     0.13270   0.14816   0.90666   0.00000  Uiso   1.00
C501   C     0.20090   0.18519   0.90669   0.00000  Uiso   1.00
C502   C     0.24670   0.16667   0.75003   0.00000  Uiso   1.00
C503   C     0.20088   0.14831   0.59344   0.00000  Uiso   1.00
C504   C     0.16672   0.16671   0.61631   0.00000  Uiso   1.00
C505   C     0.16677   0.16666   0.88369   0.00000  Uiso   1.00
C506   C     0.16687   0.16685   0.52410   0.00000  Uiso   1.00
C507   C     0.16686   0.16677   0.97590   0.00000  Uiso   1.00
C508   C     0.29084   0.16668   0.75004   0.00000  Uiso   1.00
C509   C     0.04249   0.16666   0.74995   0.00000  Uiso   1.00
C510   C     0.16666   0.16667   0.66407   0.00000  Uiso   1.00
C511   C     0.16670   0.16667   0.83594   0.00000  Uiso   1.00
C512   C     0.19383   0.02399   0.77640   0.00000  Uiso   1.00
C513   C     0.13950   0.30934   0.72360   0.00000  Uiso   1.00
C514   C     0.13950   0.02397   0.72360   0.00000  Uiso   1.00
C515   C     0.19383   0.30936   0.77640   0.00000  Uiso   1.00
C516   C     0.02133   0.12677   0.76061   0.00000  Uiso   1.00
H517   H     0.21555   0.04216   0.79751   0.00000  Uiso   1.00
H518   H     0.29571   0.23751   0.73077   0.00000  Uiso   1.00
H519   H     0.29575   0.09584   0.76931   0.00000  Uiso   1.00
H520   H     0.03758   0.23748   0.73065   0.00000  Uiso   1.00
H521   H     0.11779   0.29116   0.70249   0.00000  Uiso   1.00
H522   H     0.11779   0.04214   0.70249   0.00000  Uiso   1.00
H523   H     0.21554   0.29119   0.79752   0.00000  Uiso   1.00
H524   H     0.10678   0.19940   0.52877   0.00000  Uiso   1.00
H525   H     0.10679   0.13414   0.97101   0.00000  Uiso   1.00
H526   H     0.22694   0.19935   0.97107   0.00000  Uiso   1.00
H527   H     0.22696   0.13434   0.52916   0.00000  Uiso   1.00
H528   H     0.03762   0.09583   0.76923   0.00000  Uiso   1.00
N529   N     0.16667   0.28573   0.75000   0.00000  Uiso   1.00
N530   N     0.16667   0.04760   0.75000   0.00000  Uiso   1.00
O531   O     0.10559   0.20487   0.75000   0.00000  Uiso   1.00
O532   O     0.22774   0.12846   0.75001   0.00000  Uiso   1.00
O533   O     0.22774   0.20487   0.75001   0.00000  Uiso   1.00
O534   O     0.10559   0.12846   0.75000   0.00000  Uiso   1.00
O535   O     0.16666   0.20489   0.68453   0.00000  Uiso   1.00
O536   O     0.16667   0.12845   0.81547   0.00000  Uiso   1.00
O537   O     0.16667   0.20489   0.81547   0.00000  Uiso   1.00
O538   O     0.16666   0.12845   0.68453   0.00000  Uiso   1.00
Zn539  Zn    0.16667   0.21771   0.75000   0.00000  Uiso   1.00
Zn540  Zn    0.16667   0.11563   0.75000   0.00000  Uiso   1.00
Br541  Br    0.41814   0.20961   0.62333   0.00000  Uiso   1.00
Br542  Br    0.41816   0.12376   0.87638   0.00000  Uiso   1.00
Br543  Br    0.58204   0.20949   0.87642   0.00000  Uiso   1.00
Br544  Br    0.58207   0.12408   0.62388   0.00000  Uiso   1.00
C545   C     0.41996   0.16666   0.74996   0.00000  Uiso   1.00
C546   C     0.64533   0.20656   0.73937   0.00000  Uiso   1.00
C547   C     0.64535   0.12678   0.76066   0.00000  Uiso   1.00
C548   C     0.35464   0.20655   0.73931   0.00000  Uiso   1.00
C549   C     0.46623   0.18512   0.54694   0.00000  Uiso   1.00
C550   C     0.46624   0.14841   0.95293   0.00000  Uiso   1.00
C551   C     0.53412   0.18504   0.95297   0.00000  Uiso   1.00
C552   C     0.53413   0.14857   0.54716   0.00000  Uiso   1.00
C553   C     0.46600   0.18526   0.59321   0.00000  Uiso   1.00
C554   C     0.46604   0.14816   0.90666   0.00000  Uiso   1.00
C555   C     0.53423   0.18519   0.90669   0.00000  Uiso   1.00
C556   C     0.58003   0.16667   0.75003   0.00000  Uiso   1.00
C557   C     0.53422   0.14831   0.59344   0.00000  Uiso   1.00
C558   C     0.50005   0.16671   0.61631   0.00000  Uiso   1.00
C559   C     0.50010   0.16666   0.88369   0.00000  Uiso   1.00
C560   C     0.50020   0.16685   0.52410   0.00000  Uiso   1.00
C561   C     0.50019   0.16677   0.97590   0.00000  Uiso   1.00
C562   C     0.62418   0.16668   0.75004   0.00000  Uiso   1.00
C563   C     0.37582   0.16666   0.74995   0.00000  Uiso   1.00
C564   C     0.49999   0.16667   0.66407   0.00000  Uiso   1.00
C565   C     0.50003   0.16667   0.83594   0.00000  Uiso   1.00
C566   C     0.52716   0.02399   0.77640   0.00000  Uiso   1.00
C567   C     0.47284   0.30934   0.72360   0.00000  Uiso   1.00
C568   C     0.47284   0.02397   0.72360   0.00000  Uiso   1.00
C569   C     0.52716   0.30936   0.77640   0.00000  Uiso   1.00
C570   C     0.35467   0.12677   0.76061   0.00000  Uiso   1.00
H571   H     0.54888   0.04216   0.79751   0.00000  Uiso   1.00
H572   H     0.62904   0.23751   0.73077   0.00000  Uiso   1.00
H573   H     0.62909   0.09584   0.76931   0.00000  Uiso   1.00
H574   H     0.37091   0.23748   0.73065   0.00000  Uiso   1.00
H575   H     0.45112   0.29116   0.70249   0.00000  Uiso   1.00
H576   H     0.45112   0.04214   0.70249   0.00000  Uiso   1.00
H577   H     0.54888   0.29119   0.79752   0.00000  Uiso   1.00
H578   H     0.44011   0.19940   0.52877   0.00000  Uiso   1.00
H579   H     0.44012   0.13414   0.97101   0.00000  Uiso   1.00
H580   H     0.56027   0.19935   0.97107   0.00000  Uiso   1.00
H581   H     0.56030   0.13434   0.52916   0.00000  Uiso   1.00
H582   H     0.37096   0.09583   0.76923   0.00000  Uiso   1.00
N583   N     0.50000   0.28573   0.75000   0.00000  Uiso   1.00
N584   N     0.50000   0.04760   0.75000   0.00000  Uiso   1.00
O585   O     0.43892   0.20487   0.75000   0.00000  Uiso   1.00
O586   O     0.56108   0.12846   0.75001   0.00000  Uiso   1.00
O587   O     0.56108   0.20487   0.75001   0.00000  Uiso   1.00
O588   O     0.43892   0.12846   0.75000   0.00000  Uiso   1.00
O589   O     0.50000   0.20489   0.68453   0.00000  Uiso   1.00
O590   O     0.50000   0.12845   0.81547   0.00000  Uiso   1.00
O591   O     0.50000   0.20489   0.81547   0.00000  Uiso   1.00
O592   O     0.50000   0.12845   0.68453   0.00000  Uiso   1.00
Zn593  Zn    0.50000   0.21771   0.75000   0.00000  Uiso   1.00
Zn594  Zn    0.50000   0.11563   0.75000   0.00000  Uiso   1.00
Br595  Br    0.75147   0.20961   0.62333   0.00000  Uiso   1.00
Br596  Br    0.75150   0.12376   0.87638   0.00000  Uiso   1.00
Br597  Br    0.91538   0.20949   0.87642   0.00000  Uiso   1.00
Br598  Br    0.91540   0.12408   0.62388   0.00000  Uiso   1.00
C599   C     0.75330   0.16666   0.74996   0.00000  Uiso   1.00
C600   C     0.97866   0.20656   0.73937   0.00000  Uiso   1.00
C601   C     0.97869   0.12678   0.76066   0.00000  Uiso   1.00
C602   C     0.68798   0.20655   0.73931   0.00000  Uiso   1.00
C603   C     0.79956   0.18512   0.54694   0.00000  Uiso   1.00
C604   C     0.79957   0.14841   0.95293   0.00000  Uiso   1.00
C605   C     0.86746   0.18504   0.95297   0.00000  Uiso   1.00
C606   C     0.86746   0.14857   0.54716   0.00000  Uiso   1.00
C607   C     0.79933   0.18526   0.59321   0.00000  Uiso   1.00
C608   C     0.79937   0.14816   0.90666   0.00000  Uiso   1.00
C609   C     0.86756   0.18519   0.90669   0.00000  Uiso   1.00
C610   C     0.91337   0.16667   0.75003   0.00000  Uiso   1.00
C611   C     0.86755   0.14831   0.59344   0.00000  Uiso   1.00
C612   C     0.83339   0.16671   0.61631   0.00000  Uiso   1.00
C613   C     0.83343   0.16666   0.88369   0.00000  Uiso   1.00
C614   C     0.83353   0.16685   0.52410   0.00000  Uiso   1.00
C615   C     0.83353   0.16677   0.97590   0.00000  Uiso   1.00
C616   C     0.95751   0.16668   0.75004   0.00000  Uiso   1.00
C617   C     0.70915   0.16666   0.74995   0.00000  Uiso   1.00
C618   C     0.83332   0.16667   0.66407   0.00000  Uiso   1.00
C619   C     0.83336   0.16667   0.83594   0.00000  Uiso   1.00
C620   C     0.86050   0.02399   0.77640   0.00000  Uiso   1.00
C621   C     0.80617   0.30934   0.72360   0.00000  Uiso   1.00
C622   C     0.80617   0.02397   0.72360   0.00000  Uiso   1.00
C623   C     0.86050   0.30936   0.77640   0.00000  Uiso   1.00
C624   C     0.68800   0.12677   0.76061   0.00000  Uiso   1.00
H625   H     0.88222   0.04216   0.79751   0.00000  Uiso   1.00
H626   H     0.96237   0.23751   0.73077   0.00000  Uiso   1.00
H627   H     0.96242   0.09584   0.76931   0.00000  Uiso   1.00
H628   H     0.70424   0.23748   0.73065   0.00000  Uiso   1.00
H629   H     0.78445   0.29116   0.70249   0.00000  Uiso   1.00
H630   H     0.78446   0.04214   0.70249   0.00000  Uiso   1.00
H631   H     0.88221   0.29119   0.79752   0.00000  Uiso   1.00
H632   H     0.77344   0.19940   0.52877   0.00000  Uiso   1.00
H633   H     0.77346   0.13414   0.97101   0.00000  Uiso   1.00
H634   H     0.89361   0.19935   0.97107   0.00000  Uiso   1.00
H635   H     0.89363   0.13434   0.52916   0.00000  Uiso   1.00
H636   H     0.70429   0.09583   0.76923   0.00000  Uiso   1.00
N637   N     0.83333   0.28573   0.75000   0.00000  Uiso   1.00
N638   N     0.83333   0.04760   0.75000   0.00000  Uiso   1.00
O639   O     0.77226   0.20487   0.75000   0.00000  Uiso   1.00
O640   O     0.89441   0.12846   0.75001   0.00000  Uiso   1.00
O641   O     0.89441   0.20487   0.75001   0.00000  Uiso   1.00
O642   O     0.77226   0.12846   0.75000   0.00000  Uiso   1.00
O643   O     0.83333   0.20489   0.68453   0.00000  Uiso   1.00
O644   O     0.83334   0.12845   0.81547   0.00000  Uiso   1.00
O645   O     0.83334   0.20489   0.81547   0.00000  Uiso   1.00
O646   O     0.83333   0.12845   0.68453   0.00000  Uiso   1.00
Zn647  Zn    0.83333   0.21771   0.75000   0.00000  Uiso   1.00
Zn648  Zn    0.83333   0.11563   0.75000   0.00000  Uiso   1.00
Br649  Br    0.08481   0.54295   0.62333   0.00000  Uiso   1.00
Br650  Br    0.08483   0.45710   0.87638   0.00000  Uiso   1.00
Br651  Br    0.24871   0.54283   0.87642   0.00000  Uiso   1.00
Br652  Br    0.24873   0.45741   0.62388   0.00000  Uiso   1.00
C653   C     0.08663   0.50000   0.74996   0.00000  Uiso   1.00
C654   C     0.31200   0.53990   0.73937   0.00000  Uiso   1.00
C655   C     0.31202   0.46011   0.76066   0.00000  Uiso   1.00
C656   C     0.02131   0.53988   0.73931   0.00000  Uiso   1.00
C657   C     0.13289   0.51845   0.54694   0.00000  Uiso   1.00
C658   C     0.13291   0.48174   0.95293   0.00000  Uiso   1.00
C659   C     0.20079   0.51838   0.95297   0.00000  Uiso   1.00
C660   C     0.20080   0.48190   0.54716   0.00000  Uiso   1.00
C661   C     0.13267   0.51859   0.59321   0.00000  Uiso   1.00
C662   C     0.13270   0.48149   0.90666   0.00000  Uiso   1.00
C663   C     0.20090   0.51852   0.90669   0.00000  Uiso   1.00
C664   C     0.24670   0.50000   0.75003   0.00000  Uiso   1.00
C665   C     0.20088   0.48164   0.59344   0.00000  Uiso   1.00
C666   C     0.16672   0.50005   0.61631   0.00000  Uiso   1.00
C667   C     0.16677   0.50000   0.88369   0.00000  Uiso   1.00
C668   C     0.16687   0.50018   0.52410   0.00000  Uiso   1.00
C669   C     0.16686   0.50010   0.97590   0.00000  Uiso   1.00
C670   C     0.29084   0.50001   0.75004   0.00000  Uiso   1.00
C671   C     0.04249   0.49999   0.74995   0.00000  Uiso   1.00
C672   C     0.16666   0.50001   0.66407   0.00000  Uiso   1.00
C673   C     0.16670   0.50000   0.83594   0.00000  Uiso   1.00
C674   C     0.19383   0.35732   0.77640   0.00000  Uiso   1.00
C675   C     0.13950   0.64268   0.72360   0.00000  Uiso   1.00
C676   C     0.13950   0.35731   0.72360   0.00000  Uiso   1.00
C677   C     0.19383   0.64269   0.77640   0.00000  Uiso   1.00
C678   C     0.02133   0.46010   0.76061   0.00000  Uiso   1.00
H679   H     0.21555   0.37550   0.79751   0.00000  Uiso   1.00
H680   H     0.29571   0.57084   0.73077   0.00000  Uiso   1.00
H681   H     0.29575   0.42918   0.76931   0.00000  Uiso   1.00
H682   H     0.03758   0.57082   0.73065   0.00000  Uiso   1.00
H683   H     0.11779   0.62450   0.70249   0.00000  Uiso   1.00
H684   H     0.11779   0.37547   0.70249   0.00000  Uiso   1.00
H685   H     0.21554   0.62452   0.79752   0.00000  Uiso   1.00
H686   H     0.10678   0.53274   0.52877   0.00000  Uiso   1.00
H687   H     0.10679   0.46747   0.97101   0.00000  Uiso   1.00
H688   H     0.22694   0.53268   0.97107   0.00000  Uiso   1.00
H689   H     0.22696   0.46767   0.52916   0.00000  Uiso   1.00
H690   H     0.03762   0.42916   0.76923   0.00000  Uiso   1.00
N691   N     0.16667   0.61907   0.75000   0.00000  Uiso   1.00
N692   N     0.16667   0.38093   0.75000   0.00000  Uiso   1.00
O693   O     0.10559   0.53821   0.75000   0.00000  Uiso   1.00
O694   O     0.22774   0.46179   0.75001   0.00000  Uiso   1.00
O695   O     0.22774   0.53821   0.75001   0.00000  Uiso   1.00
O696   O     0.10559   0.46179   0.75000   0.00000  Uiso   1.00
O697   O     0.16666   0.53822   0.68453   0.00000  Uiso   1.00
O698   O     0.16667   0.46178   0.81547   0.00000  Uiso   1.00
O699   O     0.16667   0.53822   0.81547   0.00000  Uiso   1.00
O700   O     0.16666   0.46178   0.68453   0.00000  Uiso   1.00
Zn701  Zn    0.16667   0.55104   0.75000   0.00000  Uiso   1.00
Zn702  Zn    0.16667   0.44896   0.75000   0.00000  Uiso   1.00
Br703  Br    0.41814   0.54295   0.62333   0.00000  Uiso   1.00
Br704  Br    0.41816   0.45710   0.87638   0.00000  Uiso   1.00
Br705  Br    0.58204   0.54283   0.87642   0.00000  Uiso   1.00
Br706  Br    0.58207   0.45741   0.62388   0.00000  Uiso   1.00
C707   C     0.41996   0.50000   0.74996   0.00000  Uiso   1.00
C708   C     0.64533   0.53990   0.73937   0.00000  Uiso   1.00
C709   C     0.64535   0.46011   0.76066   0.00000  Uiso   1.00
C710   C     0.35464   0.53988   0.73931   0.00000  Uiso   1.00
C711   C     0.46623   0.51845   0.54694   0.00000  Uiso   1.00
C712   C     0.46624   0.48174   0.95293   0.00000  Uiso   1.00
C713   C     0.53412   0.51838   0.95297   0.00000  Uiso   1.00
C714   C     0.53413   0.48190   0.54716   0.00000  Uiso   1.00
C715   C     0.46600   0.51859   0.59321   0.00000  Uiso   1.00
C716   C     0.46604   0.48149   0.90666   0.00000  Uiso   1.00
C717   C     0.53423   0.51852   0.90669   0.00000  Uiso   1.00
C718   C     0.58003   0.50000   0.75003   0.00000  Uiso   1.00
C719   C     0.53422   0.48164   0.59344   0.00000  Uiso   1.00
C720   C     0.50005   0.50005   0.61631   0.00000  Uiso   1.00
C721   C     0.50010   0.50000   0.88369   0.00000  Uiso   1.00
C722   C     0.50020   0.50018   0.52410   0.00000  Uiso   1.00
C723   C     0.50019   0.50010   0.97590   0.00000  Uiso   1.00
C724   C     0.62418   0.50001   0.75004   0.00000  Uiso   1.00
C725   C     0.37582   0.49999   0.74995   0.00000  Uiso   1.00
C726   C     0.49999   0.50001   0.66407   0.00000  Uiso   1.00
C727   C     0.50003   0.50000   0.83594   0.00000  Uiso   1.00
C728   C     0.52716   0.35732   0.77640   0.00000  Uiso   1.00
C729   C     0.47284   0.64268   0.72360   0.00000  Uiso   1.00
C730   C     0.47284   0.35731   0.72360   0.00000  Uiso   1.00
C731   C     0.52716   0.64269   0.77640   0.00000  Uiso   1.00
C732   C     0.35467   0.46010   0.76061   0.00000  Uiso   1.00
H733   H     0.54888   0.37550   0.79751   0.00000  Uiso   1.00
H734   H     0.62904   0.57084   0.73077   0.00000  Uiso   1.00
H735   H     0.62909   0.42918   0.76931   0.00000  Uiso   1.00
H736   H     0.37091   0.57082   0.73065   0.00000  Uiso   1.00
H737   H     0.45112   0.62450   0.70249   0.00000  Uiso   1.00
H738   H     0.45112   0.37547   0.70249   0.00000  Uiso   1.00
H739   H     0.54888   0.62452   0.79752   0.00000  Uiso   1.00
H740   H     0.44011   0.53274   0.52877   0.00000  Uiso   1.00
H741   H     0.44012   0.46747   0.97101   0.00000  Uiso   1.00
H742   H     0.56027   0.53268   0.97107   0.00000  Uiso   1.00
H743   H     0.56030   0.46767   0.52916   0.00000  Uiso   1.00
H744   H     0.37096   0.42916   0.76923   0.00000  Uiso   1.00
N745   N     0.50000   0.61907   0.75000   0.00000  Uiso   1.00
N746   N     0.50000   0.38093   0.75000   0.00000  Uiso   1.00
O747   O     0.43892   0.53821   0.75000   0.00000  Uiso   1.00
O748   O     0.56108   0.46179   0.75001   0.00000  Uiso   1.00
O749   O     0.56108   0.53821   0.75001   0.00000  Uiso   1.00
O750   O     0.43892   0.46179   0.75000   0.00000  Uiso   1.00
O751   O     0.50000   0.53822   0.68453   0.00000  Uiso   1.00
O752   O     0.50000   0.46178   0.81547   0.00000  Uiso   1.00
O753   O     0.50000   0.53822   0.81547   0.00000  Uiso   1.00
O754   O     0.50000   0.46178   0.68453   0.00000  Uiso   1.00
Zn755  Zn    0.50000   0.55104   0.75000   0.00000  Uiso   1.00
Zn756  Zn    0.50000   0.44896   0.75000   0.00000  Uiso   1.00
Br757  Br    0.75147   0.54295   0.62333   0.00000  Uiso   1.00
Br758  Br    0.75150   0.45710   0.87638   0.00000  Uiso   1.00
Br759  Br    0.91538   0.54283   0.87642   0.00000  Uiso   1.00
Br760  Br    0.91540   0.45741   0.62388   0.00000  Uiso   1.00
C761   C     0.75330   0.50000   0.74996   0.00000  Uiso   1.00
C762   C     0.97866   0.53990   0.73937   0.00000  Uiso   1.00
C763   C     0.97869   0.46011   0.76066   0.00000  Uiso   1.00
C764   C     0.68798   0.53988   0.73931   0.00000  Uiso   1.00
C765   C     0.79956   0.51845   0.54694   0.00000  Uiso   1.00
C766   C     0.79957   0.48174   0.95293   0.00000  Uiso   1.00
C767   C     0.86746   0.51838   0.95297   0.00000  Uiso   1.00
C768   C     0.86746   0.48190   0.54716   0.00000  Uiso   1.00
C769   C     0.79933   0.51859   0.59321   0.00000  Uiso   1.00
C770   C     0.79937   0.48149   0.90666   0.00000  Uiso   1.00
C771   C     0.86756   0.51852   0.90669   0.00000  Uiso   1.00
C772   C     0.91337   0.50000   0.75003   0.00000  Uiso   1.00
C773   C     0.86755   0.48164   0.59344   0.00000  Uiso   1.00
C774   C     0.83339   0.50005   0.61631   0.00000  Uiso   1.00
C775   C     0.83343   0.50000   0.88369   0.00000  Uiso   1.00
C776   C     0.83353   0.50018   0.52410   0.00000  Uiso   1.00
C777   C     0.83353   0.50010   0.97590   0.00000  Uiso   1.00
C778   C     0.95751   0.50001   0.75004   0.00000  Uiso   1.00
C779   C     0.70915   0.49999   0.74995   0.00000  Uiso   1.00
C780   C     0.83332   0.50001   0.66407   0.00000  Uiso   1.00
C781   C     0.83336   0.50000   0.83594   0.00000  Uiso   1.00
C782   C     0.86050   0.35732   0.77640   0.00000  Uiso   1.00
C783   C     0.80617   0.64268   0.72360   0.00000  Uiso   1.00
C784   C     0.80617   0.35731   0.72360   0.00000  Uiso   1.00
C785   C     0.86050   0.64269   0.77640   0.00000  Uiso   1.00
C786   C     0.68800   0.46010   0.76061   0.00000  Uiso   1.00
H787   H     0.88222   0.37550   0.79751   0.00000  Uiso   1.00
H788   H     0.96237   0.57084   0.73077   0.00000  Uiso   1.00
H789   H     0.96242   0.42918   0.76931   0.00000  Uiso   1.00
H790   H     0.70424   0.57082   0.73065   0.00000  Uiso   1.00
H791   H     0.78445   0.62450   0.70249   0.00000  Uiso   1.00
H792   H     0.78446   0.37547   0.70249   0.00000  Uiso   1.00
H793   H     0.88221   0.62452   0.79752   0.00000  Uiso   1.00
H794   H     0.77344   0.53274   0.52877   0.00000  Uiso   1.00
H795   H     0.77346   0.46747   0.97101   0.00000  Uiso   1.00
H796   H     0.89361   0.53268   0.97107   0.00000  Uiso   1.00
H797   H     0.89363   0.46767   0.52916   0.00000  Uiso   1.00
H798   H     0.70429   0.42916   0.76923   0.00000  Uiso   1.00
N799   N     0.83333   0.61907   0.75000   0.00000  Uiso   1.00
N800   N     0.83333   0.38093   0.75000   0.00000  Uiso   1.00
O801   O     0.77226   0.53821   0.75000   0.00000  Uiso   1.00
O802   O     0.89441   0.46179   0.75001   0.00000  Uiso   1.00
O803   O     0.89441   0.53821   0.75001   0.00000  Uiso   1.00
O804   O     0.77226   0.46179   0.75000   0.00000  Uiso   1.00
O805   O     0.83333   0.53822   0.68453   0.00000  Uiso   1.00
O806   O     0.83334   0.46178   0.81547   0.00000  Uiso   1.00
O807   O     0.83334   0.53822   0.81547   0.00000  Uiso   1.00
O808   O     0.83333   0.46178   0.68453   0.00000  Uiso   1.00
Zn809  Zn    0.83333   0.55104   0.75000   0.00000  Uiso   1.00
Zn810  Zn    0.83333   0.44896   0.75000   0.00000  Uiso   1.00
Br811  Br    0.08481   0.87628   0.62333   0.00000  Uiso   1.00
Br812  Br    0.08483   0.79043   0.87638   0.00000  Uiso   1.00
Br813  Br    0.24871   0.87616   0.87642   0.00000  Uiso   1.00
Br814  Br    0.24873   0.79075   0.62388   0.00000  Uiso   1.00
C815   C     0.08663   0.83333   0.74996   0.00000  Uiso   1.00
C816   C     0.31200   0.87323   0.73937   0.00000  Uiso   1.00
C817   C     0.31202   0.79345   0.76066   0.00000  Uiso   1.00
C818   C     0.02131   0.87322   0.73931   0.00000  Uiso   1.00
C819   C     0.13289   0.85179   0.54694   0.00000  Uiso   1.00
C820   C     0.13291   0.81508   0.95293   0.00000  Uiso   1.00
C821   C     0.20079   0.85171   0.95297   0.00000  Uiso   1.00
C822   C     0.20080   0.81524   0.54716   0.00000  Uiso   1.00
C823   C     0.13267   0.85193   0.59321   0.00000  Uiso   1.00
C824   C     0.13270   0.81483   0.90666   0.00000  Uiso   1.00
C825   C     0.20090   0.85186   0.90669   0.00000  Uiso   1.00
C826   C     0.24670   0.83334   0.75003   0.00000  Uiso   1.00
C827   C     0.20088   0.81498   0.59344   0.00000  Uiso   1.00
C828   C     0.16672   0.83338   0.61631   0.00000  Uiso   1.00
C829   C     0.16677   0.83333   0.88369   0.00000  Uiso   1.00
C830   C     0.16687   0.83351   0.52410   0.00000  Uiso   1.00
C831   C     0.16686   0.83344   0.97590   0.00000  Uiso   1.00
C832   C     0.29084   0.83334   0.75004   0.00000  Uiso   1.00
C833   C     0.04249   0.83332   0.74995   0.00000  Uiso   1.00
C834   C     0.16666   0.83334   0.66407   0.00000  Uiso   1.00
C835   C     0.16670   0.83333   0.83594   0.00000  Uiso   1.00
C836   C     0.19383   0.69065   0.77640   0.00000  Uiso   1.00
C837   C     0.13950   0.97601   0.72360   0.00000  Uiso   1.00
C838   C     0.13950   0.69064   0.72360   0.00000  Uiso   1.00
C839   C     0.19383   0.97602   0.77640   0.00000  Uiso   1.00
C840   C     0.02133   0.79343   0.76061   0.00000  Uiso   1.00
H841   H     0.21555   0.70883   0.79751   0.00000  Uiso   1.00
H842   H     0.29571   0.90418   0.73077   0.00000  Uiso   1.00
H843   H     0.29575   0.76251   0.76931   0.00000  Uiso   1.00
H844   H     0.03758   0.90415   0.73065   0.00000  Uiso   1.00
H845   H     0.11779   0.95783   0.70249   0.00000  Uiso   1.00
H846   H     0.11779   0.70881   0.70249   0.00000  Uiso   1.00
H847   H     0.21554   0.95785   0.79752   0.00000  Uiso   1.00
H848   H     0.10678   0.86607   0.52877   0.00000  Uiso   1.00
H849   H     0.10679   0.80081   0.97101   0.00000  Uiso   1.00
H850   H     0.22694   0.86602   0.97107   0.00000  Uiso   1.00
H851   H     0.22696   0.80100   0.52916   0.00000  Uiso   1.00
H852   H     0.03762   0.76249   0.76923   0.00000  Uiso   1.00
N853   N     0.16667   0.95240   0.75000   0.00000  Uiso   1.00
N854   N     0.16667   0.71427   0.75000   0.00000  Uiso   1.00
O855   O     0.10559   0.87154   0.75000   0.00000  Uiso   1.00
O856   O     0.22774   0.79513   0.75001   0.00000  Uiso   1.00
O857   O     0.22774   0.87154   0.75001   0.00000  Uiso   1.00
O858   O     0.10559   0.79513   0.75000   0.00000  Uiso   1.00
O859   O     0.16666   0.87155   0.68453   0.00000  Uiso   1.00
O860   O     0.16667   0.79511   0.81547   0.00000  Uiso   1.00
O861   O     0.16667   0.87155   0.81547   0.00000  Uiso   1.00
O862   O     0.16666   0.79511   0.68453   0.00000  Uiso   1.00
Zn863  Zn    0.16667   0.88437   0.75000   0.00000  Uiso   1.00
Zn864  Zn    0.16667   0.78229   0.75000   0.00000  Uiso   1.00
Br865  Br    0.41814   0.87628   0.62333   0.00000  Uiso   1.00
Br866  Br    0.41816   0.79043   0.87638   0.00000  Uiso   1.00
Br867  Br    0.58204   0.87616   0.87642   0.00000  Uiso   1.00
Br868  Br    0.58207   0.79075   0.62388   0.00000  Uiso   1.00
C869   C     0.41996   0.83333   0.74996   0.00000  Uiso   1.00
C870   C     0.64533   0.87323   0.73937   0.00000  Uiso   1.00
C871   C     0.64535   0.79345   0.76066   0.00000  Uiso   1.00
C872   C     0.35464   0.87322   0.73931   0.00000  Uiso   1.00
C873   C     0.46623   0.85179   0.54694   0.00000  Uiso   1.00
C874   C     0.46624   0.81508   0.95293   0.00000  Uiso   1.00
C875   C     0.53412   0.85171   0.95297   0.00000  Uiso   1.00
C876   C     0.53413   0.81524   0.54716   0.00000  Uiso   1.00
C877   C     0.46600   0.85193   0.59321   0.00000  Uiso   1.00
C878   C     0.46604   0.81483   0.90666   0.00000  Uiso   1.00
C879   C     0.53423   0.85186   0.90669   0.00000  Uiso   1.00
C880   C     0.58003   0.83334   0.75003   0.00000  Uiso   1.00
C881   C     0.53422   0.81498   0.59344   0.00000  Uiso   1.00
C882   C     0.50005   0.83338   0.61631   0.00000  Uiso   1.00
C883   C     0.50010   0.83333   0.88369   0.00000  Uiso   1.00
C884   C     0.50020   0.83351   0.52410   0.00000  Uiso   1.00
C885   C     0.50019   0.83344   0.97590   0.00000  Uiso   1.00
C886   C     0.62418   0.83334   0.75004   0.00000  Uiso   1.00
C887   C     0.37582   0.83332   0.74995   0.00000  Uiso   1.00
C888   C     0.49999   0.83334   0.66407   0.00000  Uiso   1.00
C889   C     0.50003   0.83333   0.83594   0.00000  Uiso   1.00
C890   C     0.52716   0.69065   0.77640   0.00000  Uiso   1.00
C891   C     0.47284   0.97601   0.72360   0.00000  Uiso   1.00
C892   C     0.47284   0.69064   0.72360   0.00000  Uiso   1.00
C893   C     0.52716   0.97602   0.77640   0.00000  Uiso   1.00
C894   C     0.35467   0.79343   0.76061   0.00000  Uiso   1.00
H895   H     0.54888   0.70883   0.79751   0.00000  Uiso   1.00
H896   H     0.62904   0.90418   0.73077   0.00000  Uiso   1.00
H897   H     0.62909   0.76251   0.76931   0.00000  Uiso   1.00
H898   H     0.37091   0.90415   0.73065   0.00000  Uiso   1.00
H899   H     0.45112   0.95783   0.70249   0.00000  Uiso   1.00
H900   H     0.45112   0.70881   0.70249   0.00000  Uiso   1.00
H901   H     0.54888   0.95785   0.79752   0.00000  Uiso   1.00
H902   H     0.44011   0.86607   0.52877   0.00000  Uiso   1.00
H903   H     0.44012   0.80081   0.97101   0.00000  Uiso   1.00
H904   H     0.56027   0.86602   0.97107   0.00000  Uiso   1.00
H905   H     0.56030   0.80100   0.52916   0.00000  Uiso   1.00
H906   H     0.37096   0.76249   0.76923   0.00000  Uiso   1.00
N907   N     0.50000   0.95240   0.75000   0.00000  Uiso   1.00
N908   N     0.50000   0.71427   0.75000   0.00000  Uiso   1.00
O909   O     0.43892   0.87154   0.75000   0.00000  Uiso   1.00
O910   O     0.56108   0.79513   0.75001   0.00000  Uiso   1.00
O911   O     0.56108   0.87154   0.75001   0.00000  Uiso   1.00
O912   O     0.43892   0.79513   0.75000   0.00000  Uiso   1.00
O913   O     0.50000   0.87155   0.68453   0.00000  Uiso   1.00
O914   O     0.50000   0.79511   0.81547   0.00000  Uiso   1.00
O915   O     0.50000   0.87155   0.81547   0.00000  Uiso   1.00
O916   O     0.50000   0.79511   0.68453   0.00000  Uiso   1.00
Zn917  Zn    0.50000   0.88437   0.75000   0.00000  Uiso   1.00
Zn918  Zn    0.50000   0.78229   0.75000   0.00000  Uiso   1.00
Br919  Br    0.75147   0.87628   0.62333   0.00000  Uiso   1.00
Br920  Br    0.75150   0.79043   0.87638   0.00000  Uiso   1.00
Br921  Br    0.91538   0.87616   0.87642   0.00000  Uiso   1.00
Br922  Br    0.91540   0.79075   0.62388   0.00000  Uiso   1.00
C923   C     0.75330   0.83333   0.74996   0.00000  Uiso   1.00
C924   C     0.97866   0.87323   0.73937   0.00000  Uiso   1.00
C925   C     0.97869   0.79345   0.76066   0.00000  Uiso   1.00
C926   C     0.68798   0.87322   0.73931   0.00000  Uiso   1.00
C927   C     0.79956   0.85179   0.54694   0.00000  Uiso   1.00
C928   C     0.79957   0.81508   0.95293   0.00000  Uiso   1.00
C929   C     0.86746   0.85171   0.95297   0.00000  Uiso   1.00
C930   C     0.86746   0.81524   0.54716   0.00000  Uiso   1.00
C931   C     0.79933   0.85193   0.59321   0.00000  Uiso   1.00
C932   C     0.79937   0.81483   0.90666   0.00000  Uiso   1.00
C933   C     0.86756   0.85186   0.90669   0.00000  Uiso   1.00
C934   C     0.91337   0.83334   0.75003   0.00000  Uiso   1.00
C935   C     0.86755   0.81498   0.59344   0.00000  Uiso   1.00
C936   C     0.83339   0.83338   0.61631   0.00000  Uiso   1.00
C937   C     0.83343   0.83333   0.88369   0.00000  Uiso   1.00
C938   C     0.83353   0.83351   0.52410   0.00000  Uiso   1.00
C939   C     0.83353   0.83344   0.97590   0.00000  Uiso   1.00
C940   C     0.95751   0.83334   0.75004   0.00000  Uiso   1.00
C941   C     0.70915   0.83332   0.74995   0.00000  Uiso   1.00
C942   C     0.83332   0.83334   0.66407   0.00000  Uiso   1.00
C943   C     0.83336   0.83333   0.83594   0.00000  Uiso   1.00
C944   C     0.86050   0.69065   0.77640   0.00000  Uiso   1.00
C945   C     0.80617   0.97601   0.72360   0.00000  Uiso   1.00
C946   C     0.80617   0.69064   0.72360   0.00000  Uiso   1.00
C947   C     0.86050   0.97602   0.77640   0.00000  Uiso   1.00
C948   C     0.68800   0.79343   0.76061   0.00000  Uiso   1.00
H949   H     0.88222   0.70883   0.79751   0.00000  Uiso   1.00
H950   H     0.96237   0.90418   0.73077   0.00000  Uiso   1.00
H951   H     0.96242   0.76251   0.76931   0.00000  Uiso   1.00
H952   H     0.70424   0.90415   0.73065   0.00000  Uiso   1.00
H953   H     0.78445   0.95783   0.70249   0.00000  Uiso   1.00
H954   H     0.78446   0.70881   0.70249   0.00000  Uiso   1.00
H955   H     0.88221   0.95785   0.79752   0.00000  Uiso   1.00
H956   H     0.77344   0.86607   0.52877   0.00000  Uiso   1.00
H957   H     0.77346   0.80081   0.97101   0.00000  Uiso   1.00
H958   H     0.89361   0.86602   0.97107   0.00000  Uiso   1.00
H959   H     0.89363   0.80100   0.52916   0.00000  Uiso   1.00
H960   H     0.70429   0.76249   0.76923   0.00000  Uiso   1.00
N961   N     0.83333   0.95240   0.75000   0.00000  Uiso   1.00
N962   N     0.83333   0.71427   0.75000   0.00000  Uiso   1.00
O963   O     0.77226   0.87154   0.75000   0.00000  Uiso   1.00
O964   O     0.89441   0.79513   0.75001   0.00000  Uiso   1.00
O965   O     0.89441   0.87154   0.75001   0.00000  Uiso   1.00
O966   O     0.77226   0.79513   0.75000   0.00000  Uiso   1.00
O967   O     0.83333   0.87155   0.68453   0.00000  Uiso   1.00
O968   O     0.83334   0.79511   0.81547   0.00000  Uiso   1.00
O969   O     0.83334   0.87155   0.81547   0.00000  Uiso   1.00
O970   O     0.83333   0.79511   0.68453   0.00000  Uiso   1.00
Zn971  Zn    0.83333   0.88437   0.75000   0.00000  Uiso   1.00
Zn972  Zn    0.83333   0.78229   0.75000   0.00000  Uiso   1.00
loop_
_geom_bond_atom_site_label_1
_geom_bond_atom_site_label_2
_geom_bond_distance
_geom_bond_site_symmetry_2
_ccdc_geom_bond_type
Br1    C13     1.923   .     S
Br2    C14     1.922   .     S
Br3    C15     1.923   .     S
Br4    C17     1.923   .     S
C5     C23     1.418   .     S
C5     O48     1.282   .     A
C5     O45     1.282   .     A
C6     H32     1.084   .     S
C6     C22     1.397   .     A
C6     C62     1.370   .     S
C7     C22     1.397   .     A
C7     H33     1.084   .     S
C7     C84     1.370   .     S
C8     H34     1.084   .     S
C8     C23     1.397   .     A
C8     C114    1.370   1_455 S
C9     C20     1.397   .     A
C9     H38     1.084   .     S
C9     C13     1.382   .     A
C10    C21     1.397   .     A
C10    C14     1.382   .     A
C10    H39     1.084   .     S
C11    C21     1.397   .     A
C11    C15     1.382   .     A
C11    H40     1.084   .     S
C12    C17     1.382   .     A
C12    H41     1.084   .     S
C12    C20     1.397   .     A
C13    C18     1.403   .     A
C14    C19     1.403   .     A
C15    C19     1.404   .     A
C16    O47     1.282   .     A
C16    O46     1.282   .     A
C16    C22     1.418   .     S
C17    C18     1.404   .     A
C18    C24     1.427   .     S
C19    C25     1.427   .     S
C20    C507    1.440   1_554 S
C21    C506    1.440   .     S
C23    C30     1.397   .     A
C24    O52     1.284   .     A
C24    O49     1.283   .     A
C25    O51     1.284   .     A
C25    O50     1.284   .     A
C26    H31     1.082   .     S
C26    N44     1.366   .     A
C26    C353    1.416   1_545 S
C27    N43     1.366   .     A
C27    H35     1.082   .     S
C27    C190    1.416   .     S
C28    H36     1.082   .     S
C28    N44     1.366   .     A
C28    C351    1.416   1_545 S
C29    N43     1.366   .     A
C29    H37     1.082   .     S
C29    C188    1.416   .     S
C30    H42     1.084   .     S
C30    C115    1.370   1_455 S
N43    Zn53    2.009   .     S
N44    Zn54    2.009   .     S
O45    Zn53    1.998   .     S
O46    Zn54    1.998   .     S
O47    Zn53    1.998   .     S
O48    Zn54    1.998   .     S
O49    Zn53    1.992   .     S
O50    Zn54    1.992   .     S
O51    Zn53    1.992   .     S
O52    Zn54    1.992   .     S
Br55   C67     1.923   .     S
Br56   C68     1.922   .     S
Br57   C69     1.923   .     S
Br58   C71     1.923   .     S
C59    C77     1.418   .     S
C59    O102    1.282   .     A
C59    O99     1.282   .     A
C60    H86     1.084   .     S
C60    C76     1.397   .     A
C60    C116    1.370   .     S
C61    C76     1.397   .     A
C61    H87     1.084   .     S
C61    C138    1.370   .     S
C62    H88     1.084   .     S
C62    C77     1.397   .     A
C63    C74     1.397   .     A
C63    H92     1.084   .     S
C63    C67     1.382   .     A
C64    C75     1.397   .     A
C64    C68     1.382   .     A
C64    H93     1.084   .     S
C65    C75     1.397   .     A
C65    C69     1.382   .     A
C65    H94     1.084   .     S
C66    C71     1.382   .     A
C66    H95     1.084   .     S
C66    C74     1.397   .     A
C67    C72     1.403   .     A
C68    C73     1.403   .     A
C69    C73     1.404   .     A
C70    O101    1.282   .     A
C70    O100    1.282   .     A
C70    C76     1.418   .     S
C71    C72     1.404   .     A
C72    C78     1.427   .     S
C73    C79     1.427   .     S
C74    C561    1.440   1_554 S
C75    C560    1.440   .     S
C77    C84     1.397   .     A
C78    O106    1.284   .     A
C78    O103    1.283   .     A
C79    O105    1.284   .     A
C79    O104    1.284   .     A
C80    H85     1.082   .     S
C80    N98     1.366   .     A
C80    C407    1.416   1_545 S
C81    N97     1.366   .     A
C81    H89     1.082   .     S
C81    C244    1.416   .     S
C82    H90     1.082   .     S
C82    N98     1.366   .     A
C82    C405    1.416   1_545 S
C83    N97     1.366   .     A
C83    H91     1.082   .     S
C83    C242    1.416   .     S
C84    H96     1.084   .     S
N97    Zn107   2.009   .     S
N98    Zn108   2.009   .     S
O99    Zn107   1.998   .     S
O100   Zn108   1.998   .     S
O101   Zn107   1.998   .     S
O102   Zn108   1.998   .     S
O103   Zn107   1.992   .     S
O104   Zn108   1.992   .     S
O105   Zn107   1.992   .     S
O106   Zn108   1.992   .     S
Br109  C121    1.923   .     S
Br110  C122    1.922   .     S
Br111  C123    1.923   .     S
Br112  C125    1.923   .     S
C113   C131    1.418   .     S
C113   O156    1.282   .     A
C113   O153    1.282   .     A
C114   H140    1.084   .     S
C114   C130    1.397   .     A
C114   C8      1.370   1_655 S
C115   C130    1.397   .     A
C115   H141    1.084   .     S
C115   C30     1.370   1_655 S
C116   H142    1.084   .     S
C116   C131    1.397   .     A
C117   C128    1.397   .     A
C117   H146    1.084   .     S
C117   C121    1.382   .     A
C118   C129    1.397   .     A
C118   C122    1.382   .     A
C118   H147    1.084   .     S
C119   C129    1.397   .     A
C119   C123    1.382   .     A
C119   H148    1.084   .     S
C120   C125    1.382   .     A
C120   H149    1.084   .     S
C120   C128    1.397   .     A
C121   C126    1.403   .     A
C122   C127    1.403   .     A
C123   C127    1.404   .     A
C124   O155    1.282   .     A
C124   O154    1.282   .     A
C124   C130    1.418   .     S
C125   C126    1.404   .     A
C126   C132    1.427   .     S
C127   C133    1.427   .     S
C128   C615    1.440   1_554 S
C129   C614    1.440   .     S
C131   C138    1.397   .     A
C132   O160    1.284   .     A
C132   O157    1.283   .     A
C133   O159    1.284   .     A
C133   O158    1.284   .     A
C134   H139    1.082   .     S
C134   N152    1.366   .     A
C134   C461    1.416   1_545 S
C135   N151    1.366   .     A
C135   H143    1.082   .     S
C135   C298    1.416   .     S
C136   H144    1.082   .     S
C136   N152    1.366   .     A
C136   C459    1.416   1_545 S
C137   N151    1.366   .     A
C137   H145    1.082   .     S
C137   C296    1.416   .     S
C138   H150    1.084   .     S
N151   Zn161   2.009   .     S
N152   Zn162   2.009   .     S
O153   Zn161   1.998   .     S
O154   Zn162   1.998   .     S
O155   Zn161   1.998   .     S
O156   Zn162   1.998   .     S
O157   Zn161   1.992   .     S
O158   Zn162   1.992   .     S
O159   Zn161   1.992   .     S
O160   Zn162   1.992   .     S
Br163  C175    1.923   .     S
Br164  C176    1.922   .     S
Br165  C177    1.923   .     S
Br166  C179    1.923   .     S
C167   C185    1.418   .     S
C167   O210    1.282   .     A
C167   O207    1.282   .     A
C168   H194    1.084   .     S
C168   C184    1.397   .     A
C168   C224    1.370   .     S
C169   C184    1.397   .     A
C169   H195    1.084   .     S
C169   C246    1.370   .     S
C170   H196    1.084   .     S
C170   C185    1.397   .     A
C170   C276    1.370   1_455 S
C171   C182    1.397   .     A
C171   H200    1.084   .     S
C171   C175    1.382   .     A
C172   C183    1.397   .     A
C172   C176    1.382   .     A
C172   H201    1.084   .     S
C173   C183    1.397   .     A
C173   C177    1.382   .     A
C173   H202    1.084   .     S
C174   C179    1.382   .     A
C174   H203    1.084   .     S
C174   C182    1.397   .     A
C175   C180    1.403   .     A
C176   C181    1.403   .     A
C177   C181    1.404   .     A
C178   O209    1.282   .     A
C178   O208    1.282   .     A
C178   C184    1.418   .     S
C179   C180    1.404   .     A
C180   C186    1.427   .     S
C181   C187    1.427   .     S
C182   C669    1.440   1_554 S
C183   C668    1.440   .     S
C185   C192    1.397   .     A
C186   O214    1.284   .     A
C186   O211    1.283   .     A
C187   O213    1.284   .     A
C187   O212    1.284   .     A
C188   H193    1.082   .     S
C188   N206    1.366   .     A
C189   N205    1.366   .     A
C189   H197    1.082   .     S
C189   C352    1.416   .     S
C190   H198    1.082   .     S
C190   N206    1.366   .     A
C191   N205    1.366   .     A
C191   H199    1.082   .     S
C191   C350    1.416   .     S
C192   H204    1.084   .     S
C192   C277    1.370   1_455 S
N205   Zn215   2.009   .     S
N206   Zn216   2.009   .     S
O207   Zn215   1.998   .     S
O208   Zn216   1.998   .     S
O209   Zn215   1.998   .     S
O210   Zn216   1.998   .     S
O211   Zn215   1.992   .     S
O212   Zn216   1.992   .     S
O213   Zn215   1.992   .     S
O214   Zn216   1.992   .     S
Br217  C229    1.923   .     S
Br218  C230    1.922   .     S
Br219  C231    1.923   .     S
Br220  C233    1.923   .     S
C221   C239    1.418   .     S
C221   O264    1.282   .     A
C221   O261    1.282   .     A
C222   H248    1.084   .     S
C222   C238    1.397   .     A
C222   C278    1.370   .     S
C223   C238    1.397   .     A
C223   H249    1.084   .     S
C223   C300    1.370   .     S
C224   H250    1.084   .     S
C224   C239    1.397   .     A
C225   C236    1.397   .     A
C225   H254    1.084   .     S
C225   C229    1.382   .     A
C226   C237    1.397   .     A
C226   C230    1.382   .     A
C226   H255    1.084   .     S
C227   C237    1.397   .     A
C227   C231    1.382   .     A
C227   H256    1.084   .     S
C228   C233    1.382   .     A
C228   H257    1.084   .     S
C228   C236    1.397   .     A
C229   C234    1.403   .     A
C230   C235    1.403   .     A
C231   C235    1.404   .     A
C232   O263    1.282   .     A
C232   O262    1.282   .     A
C232   C238    1.418   .     S
C233   C234    1.404   .     A
C234   C240    1.427   .     S
C235   C241    1.427   .     S
C236   C723    1.440   1_554 S
C237   C722    1.440   .     S
C239   C246    1.397   .     A
C240   O268    1.284   .     A
C240   O265    1.283   .     A
C241   O267    1.284   .     A
C241   O266    1.284   .     A
C242   H247    1.082   .     S
C242   N260    1.366   .     A
C243   N259    1.366   .     A
C243   H251    1.082   .     S
C243   C406    1.416   .     S
C244   H252    1.082   .     S
C244   N260    1.366   .     A
C245   N259    1.366   .     A
C245   H253    1.082   .     S
C245   C404    1.416   .     S
C246   H258    1.084   .     S
N259   Zn269   2.009   .     S
N260   Zn270   2.009   .     S
O261   Zn269   1.998   .     S
O262   Zn270   1.998   .     S
O263   Zn269   1.998   .     S
O264   Zn270   1.998   .     S
O265   Zn269   1.992   .     S
O266   Zn270   1.992   .     S
O267   Zn269   1.992   .     S
O268   Zn270   1.992   .     S
Br271  C283    1.923   .     S
Br272  C284    1.922   .     S
Br273  C285    1.923   .     S
Br274  C287    1.923   .     S
C275   C293    1.418   .     S
C275   O318    1.282   .     A
C275   O315    1.282   .     A
C276   H302    1.084   .     S
C276   C292    1.397   .     A
C276   C170    1.370   1_655 S
C277   C292    1.397   .     A
C277   H303    1.084   .     S
C277   C192    1.370   1_655 S
C278   H304    1.084   .     S
C278   C293    1.397   .     A
C279   C290    1.397   .     A
C279   H308    1.084   .     S
C279   C283    1.382   .     A
C280   C291    1.397   .     A
C280   C284    1.382   .     A
C280   H309    1.084   .     S
C281   C291    1.397   .     A
C281   C285    1.382   .     A
C281   H310    1.084   .     S
C282   C287    1.382   .     A
C282   H311    1.084   .     S
C282   C290    1.397   .     A
C283   C288    1.403   .     A
C284   C289    1.403   .     A
C285   C289    1.404   .     A
C286   O317    1.282   .     A
C286   O316    1.282   .     A
C286   C292    1.418   .     S
C287   C288    1.404   .     A
C288   C294    1.427   .     S
C289   C295    1.427   .     S
C290   C777    1.440   1_554 S
C291   C776    1.440   .     S
C293   C300    1.397   .     A
C294   O322    1.284   .     A
C294   O319    1.283   .     A
C295   O321    1.284   .     A
C295   O320    1.284   .     A
C296   H301    1.082   .     S
C296   N314    1.366   .     A
C297   N313    1.366   .     A
C297   H305    1.082   .     S
C297   C460    1.416   .     S
C298   H306    1.082   .     S
C298   N314    1.366   .     A
C299   N313    1.366   .     A
C299   H307    1.082   .     S
C299   C458    1.416   .     S
C300   H312    1.084   .     S
N313   Zn323   2.009   .     S
N314   Zn324   2.009   .     S
O315   Zn323   1.998   .     S
O316   Zn324   1.998   .     S
O317   Zn323   1.998   .     S
O318   Zn324   1.998   .     S
O319   Zn323   1.992   .     S
O320   Zn324   1.992   .     S
O321   Zn323   1.992   .     S
O322   Zn324   1.992   .     S
Br325  C337    1.923   .     S
Br326  C338    1.922   .     S
Br327  C339    1.923   .     S
Br328  C341    1.923   .     S
C329   C347    1.418   .     S
C329   O372    1.282   .     A
C329   O369    1.282   .     A
C330   H356    1.084   .     S
C330   C346    1.397   .     A
C330   C386    1.370   .     S
C331   C346    1.397   .     A
C331   H357    1.084   .     S
C331   C408    1.370   .     S
C332   H358    1.084   .     S
C332   C347    1.397   .     A
C332   C438    1.370   1_455 S
C333   C344    1.397   .     A
C333   H362    1.084   .     S
C333   C337    1.382   .     A
C334   C345    1.397   .     A
C334   C338    1.382   .     A
C334   H363    1.084   .     S
C335   C345    1.397   .     A
C335   C339    1.382   .     A
C335   H364    1.084   .     S
C336   C341    1.382   .     A
C336   H365    1.084   .     S
C336   C344    1.397   .     A
C337   C342    1.403   .     A
C338   C343    1.403   .     A
C339   C343    1.404   .     A
C340   O371    1.282   .     A
C340   O370    1.282   .     A
C340   C346    1.418   .     S
C341   C342    1.404   .     A
C342   C348    1.427   .     S
C343   C349    1.427   .     S
C344   C831    1.440   1_554 S
C345   C830    1.440   .     S
C347   C354    1.397   .     A
C348   O376    1.284   .     A
C348   O373    1.283   .     A
C349   O375    1.284   .     A
C349   O374    1.284   .     A
C350   H355    1.082   .     S
C350   N368    1.366   .     A
C351   N367    1.366   .     A
C351   H359    1.082   .     S
C351   C28     1.416   1_565 S
C352   H360    1.082   .     S
C352   N368    1.366   .     A
C353   N367    1.366   .     A
C353   H361    1.082   .     S
C353   C26     1.416   1_565 S
C354   H366    1.084   .     S
C354   C439    1.370   1_455 S
N367   Zn377   2.009   .     S
N368   Zn378   2.009   .     S
O369   Zn377   1.998   .     S
O370   Zn378   1.998   .     S
O371   Zn377   1.998   .     S
O372   Zn378   1.998   .     S
O373   Zn377   1.992   .     S
O374   Zn378   1.992   .     S
O375   Zn377   1.992   .     S
O376   Zn378   1.992   .     S
Br379  C391    1.923   .     S
Br380  C392    1.922   .     S
Br381  C393    1.923   .     S
Br382  C395    1.923   .     S
C383   C401    1.418   .     S
C383   O426    1.282   .     A
C383   O423    1.282   .     A
C384   H410    1.084   .     S
C384   C400    1.397   .     A
C384   C440    1.370   .     S
C385   C400    1.397   .     A
C385   H411    1.084   .     S
C385   C462    1.370   .     S
C386   H412    1.084   .     S
C386   C401    1.397   .     A
C387   C398    1.397   .     A
C387   H416    1.084   .     S
C387   C391    1.382   .     A
C388   C399    1.397   .     A
C388   C392    1.382   .     A
C388   H417    1.084   .     S
C389   C399    1.397   .     A
C389   C393    1.382   .     A
C389   H418    1.084   .     S
C390   C395    1.382   .     A
C390   H419    1.084   .     S
C390   C398    1.397   .     A
C391   C396    1.403   .     A
C392   C397    1.403   .     A
C393   C397    1.404   .     A
C394   O425    1.282   .     A
C394   O424    1.282   .     A
C394   C400    1.418   .     S
C395   C396    1.404   .     A
C396   C402    1.427   .     S
C397   C403    1.427   .     S
C398   C885    1.440   1_554 S
C399   C884    1.440   .     S
C401   C408    1.397   .     A
C402   O430    1.284   .     A
C402   O427    1.283   .     A
C403   O429    1.284   .     A
C403   O428    1.284   .     A
C404   H409    1.082   .     S
C404   N422    1.366   .     A
C405   N421    1.366   .     A
C405   H413    1.082   .     S
C405   C82     1.416   1_565 S
C406   H414    1.082   .     S
C406   N422    1.366   .     A
C407   N421    1.366   .     A
C407   H415    1.082   .     S
C407   C80     1.416   1_565 S
C408   H420    1.084   .     S
N421   Zn431   2.009   .     S
N422   Zn432   2.009   .     S
O423   Zn431   1.998   .     S
O424   Zn432   1.998   .     S
O425   Zn431   1.998   .     S
O426   Zn432   1.998   .     S
O427   Zn431   1.992   .     S
O428   Zn432   1.992   .     S
O429   Zn431   1.992   .     S
O430   Zn432   1.992   .     S
Br433  C445    1.923   .     S
Br434  C446    1.922   .     S
Br435  C447    1.923   .     S
Br436  C449    1.923   .     S
C437   C455    1.418   .     S
C437   O480    1.282   .     A
C437   O477    1.282   .     A
C438   H464    1.084   .     S
C438   C454    1.397   .     A
C438   C332    1.370   1_655 S
C439   C454    1.397   .     A
C439   H465    1.084   .     S
C439   C354    1.370   1_655 S
C440   H466    1.084   .     S
C440   C455    1.397   .     A
C441   C452    1.397   .     A
C441   H470    1.084   .     S
C441   C445    1.382   .     A
C442   C453    1.397   .     A
C442   C446    1.382   .     A
C442   H471    1.084   .     S
C443   C453    1.397   .     A
C443   C447    1.382   .     A
C443   H472    1.084   .     S
C444   C449    1.382   .     A
C444   H473    1.084   .     S
C444   C452    1.397   .     A
C445   C450    1.403   .     A
C446   C451    1.403   .     A
C447   C451    1.404   .     A
C448   O479    1.282   .     A
C448   O478    1.282   .     A
C448   C454    1.418   .     S
C449   C450    1.404   .     A
C450   C456    1.427   .     S
C451   C457    1.427   .     S
C452   C939    1.440   1_554 S
C453   C938    1.440   .     S
C455   C462    1.397   .     A
C456   O484    1.284   .     A
C456   O481    1.283   .     A
C457   O483    1.284   .     A
C457   O482    1.284   .     A
C458   H463    1.082   .     S
C458   N476    1.366   .     A
C459   N475    1.366   .     A
C459   H467    1.082   .     S
C459   C136    1.416   1_565 S
C460   H468    1.082   .     S
C460   N476    1.366   .     A
C461   N475    1.366   .     A
C461   H469    1.082   .     S
C461   C134    1.416   1_565 S
C462   H474    1.084   .     S
N475   Zn485   2.009   .     S
N476   Zn486   2.009   .     S
O477   Zn485   1.998   .     S
O478   Zn486   1.998   .     S
O479   Zn485   1.998   .     S
O480   Zn486   1.998   .     S
O481   Zn485   1.992   .     S
O482   Zn486   1.992   .     S
O483   Zn485   1.992   .     S
O484   Zn486   1.992   .     S
Br487  C499    1.923   .     S
Br488  C500    1.922   .     S
Br489  C501    1.923   .     S
Br490  C503    1.923   .     S
C491   C509    1.418   .     S
C491   O534    1.282   .     A
C491   O531    1.282   .     A
C492   H518    1.084   .     S
C492   C508    1.397   .     A
C492   C548    1.370   .     S
C493   C508    1.397   .     A
C493   H519    1.084   .     S
C493   C570    1.370   .     S
C494   H520    1.084   .     S
C494   C509    1.397   .     A
C494   C600    1.370   1_455 S
C495   C506    1.397   .     A
C495   H524    1.084   .     S
C495   C499    1.382   .     A
C496   C507    1.397   .     A
C496   C500    1.382   .     A
C496   H525    1.084   .     S
C497   C507    1.397   .     A
C497   C501    1.382   .     A
C497   H526    1.084   .     S
C498   C503    1.382   .     A
C498   H527    1.084   .     S
C498   C506    1.397   .     A
C499   C504    1.403   .     A
C500   C505    1.403   .     A
C501   C505    1.404   .     A
C502   O533    1.282   .     A
C502   O532    1.282   .     A
C502   C508    1.418   .     S
C503   C504    1.404   .     A
C504   C510    1.427   .     S
C505   C511    1.427   .     S
C507   C20     1.440   1_556 S
C509   C516    1.397   .     A
C510   O538    1.284   .     A
C510   O535    1.283   .     A
C511   O537    1.284   .     A
C511   O536    1.284   .     A
C512   H517    1.082   .     S
C512   N530    1.366   .     A
C512   C839    1.416   1_545 S
C513   N529    1.366   .     A
C513   H521    1.082   .     S
C513   C676    1.416   .     S
C514   H522    1.082   .     S
C514   N530    1.366   .     A
C514   C837    1.416   1_545 S
C515   N529    1.366   .     A
C515   H523    1.082   .     S
C515   C674    1.416   .     S
C516   H528    1.084   .     S
C516   C601    1.370   1_455 S
N529   Zn539   2.009   .     S
N530   Zn540   2.009   .     S
O531   Zn539   1.998   .     S
O532   Zn540   1.998   .     S
O533   Zn539   1.998   .     S
O534   Zn540   1.998   .     S
O535   Zn539   1.992   .     S
O536   Zn540   1.992   .     S
O537   Zn539   1.992   .     S
O538   Zn540   1.992   .     S
Br541  C553    1.923   .     S
Br542  C554    1.922   .     S
Br543  C555    1.923   .     S
Br544  C557    1.923   .     S
C545   C563    1.418   .     S
C545   O588    1.282   .     A
C545   O585    1.282   .     A
C546   H572    1.084   .     S
C546   C562    1.397   .     A
C546   C602    1.370   .     S
C547   C562    1.397   .     A
C547   H573    1.084   .     S
C547   C624    1.370   .     S
C548   H574    1.084   .     S
C548   C563    1.397   .     A
C549   C560    1.397   .     A
C549   H578    1.084   .     S
C549   C553    1.382   .     A
C550   C561    1.397   .     A
C550   C554    1.382   .     A
C550   H579    1.084   .     S
C551   C561    1.397   .     A
C551   C555    1.382   .     A
C551   H580    1.084   .     S
C552   C557    1.382   .     A
C552   H581    1.084   .     S
C552   C560    1.397   .     A
C553   C558    1.403   .     A
C554   C559    1.403   .     A
C555   C559    1.404   .     A
C556   O587    1.282   .     A
C556   O586    1.282   .     A
C556   C562    1.418   .     S
C557   C558    1.404   .     A
C558   C564    1.427   .     S
C559   C565    1.427   .     S
C561   C74     1.440   1_556 S
C563   C570    1.397   .     A
C564   O592    1.284   .     A
C564   O589    1.283   .     A
C565   O591    1.284   .     A
C565   O590    1.284   .     A
C566   H571    1.082   .     S
C566   N584    1.366   .     A
C566   C893    1.416   1_545 S
C567   N583    1.366   .     A
C567   H575    1.082   .     S
C567   C730    1.416   .     S
C568   H576    1.082   .     S
C568   N584    1.366   .     A
C568   C891    1.416   1_545 S
C569   N583    1.366   .     A
C569   H577    1.082   .     S
C569   C728    1.416   .     S
C570   H582    1.084   .     S
N583   Zn593   2.009   .     S
N584   Zn594   2.009   .     S
O585   Zn593   1.998   .     S
O586   Zn594   1.998   .     S
O587   Zn593   1.998   .     S
O588   Zn594   1.998   .     S
O589   Zn593   1.992   .     S
O590   Zn594   1.992   .     S
O591   Zn593   1.992   .     S
O592   Zn594   1.992   .     S
Br595  C607    1.923   .     S
Br596  C608    1.922   .     S
Br597  C609    1.923   .     S
Br598  C611    1.923   .     S
C599   C617    1.418   .     S
C599   O642    1.282   .     A
C599   O639    1.282   .     A
C600   H626    1.084   .     S
C600   C616    1.397   .     A
C600   C494    1.370   1_655 S
C601   C616    1.397   .     A
C601   H627    1.084   .     S
C601   C516    1.370   1_655 S
C602   H628    1.084   .     S
C602   C617    1.397   .     A
C603   C614    1.397   .     A
C603   H632    1.084   .     S
C603   C607    1.382   .     A
C604   C615    1.397   .     A
C604   C608    1.382   .     A
C604   H633    1.084   .     S
C605   C615    1.397   .     A
C605   C609    1.382   .     A
C605   H634    1.084   .     S
C606   C611    1.382   .     A
C606   H635    1.084   .     S
C606   C614    1.397   .     A
C607   C612    1.403   .     A
C608   C613    1.403   .     A
C609   C613    1.404   .     A
C610   O641    1.282   .     A
C610   O640    1.282   .     A
C610   C616    1.418   .     S
C611   C612    1.404   .     A
C612   C618    1.427   .     S
C613   C619    1.427   .     S
C615   C128    1.440   1_556 S
C617   C624    1.397   .     A
C618   O646    1.284   .     A
C618   O643    1.283   .     A
C619   O645    1.284   .     A
C619   O644    1.284   .     A
C620   H625    1.082   .     S
C620   N638    1.366   .     A
C620   C947    1.416   1_545 S
C621   N637    1.366   .     A
C621   H629    1.082   .     S
C621   C784    1.416   .     S
C622   H630    1.082   .     S
C622   N638    1.366   .     A
C622   C945    1.416   1_545 S
C623   N637    1.366   .     A
C623   H631    1.082   .     S
C623   C782    1.416   .     S
C624   H636    1.084   .     S
N637   Zn647   2.009   .     S
N638   Zn648   2.009   .     S
O639   Zn647   1.998   .     S
O640   Zn648   1.998   .     S
O641   Zn647   1.998   .     S
O642   Zn648   1.998   .     S
O643   Zn647   1.992   .     S
O644   Zn648   1.992   .     S
O645   Zn647   1.992   .     S
O646   Zn648   1.992   .     S
Br649  C661    1.923   .     S
Br650  C662    1.922   .     S
Br651  C663    1.923   .     S
Br652  C665    1.923   .     S
C653   C671    1.418   .     S
C653   O696    1.282   .     A
C653   O693    1.282   .     A
C654   H680    1.084   .     S
C654   C670    1.397   .     A
C654   C710    1.370   .     S
C655   C670    1.397   .     A
C655   H681    1.084   .     S
C655   C732    1.370   .     S
C656   H682    1.084   .     S
C656   C671    1.397   .     A
C656   C762    1.370   1_455 S
C657   C668    1.397   .     A
C657   H686    1.084   .     S
C657   C661    1.382   .     A
C658   C669    1.397   .     A
C658   C662    1.382   .     A
C658   H687    1.084   .     S
C659   C669    1.397   .     A
C659   C663    1.382   .     A
C659   H688    1.084   .     S
C660   C665    1.382   .     A
C660   H689    1.084   .     S
C660   C668    1.397   .     A
C661   C666    1.403   .     A
C662   C667    1.403   .     A
C663   C667    1.404   .     A
C664   O695    1.282   .     A
C664   O694    1.282   .     A
C664   C670    1.418   .     S
C665   C666    1.404   .     A
C666   C672    1.427   .     S
C667   C673    1.427   .     S
C669   C182    1.440   1_556 S
C671   C678    1.397   .     A
C672   O700    1.284   .     A
C672   O697    1.283   .     A
C673   O699    1.284   .     A
C673   O698    1.284   .     A
C674   H679    1.082   .     S
C674   N692    1.366   .     A
C675   N691    1.366   .     A
C675   H683    1.082   .     S
C675   C838    1.416   .     S
C676   H684    1.082   .     S
C676   N692    1.366   .     A
C677   N691    1.366   .     A
C677   H685    1.082   .     S
C677   C836    1.416   .     S
C678   H690    1.084   .     S
C678   C763    1.370   1_455 S
N691   Zn701   2.009   .     S
N692   Zn702   2.009   .     S
O693   Zn701   1.998   .     S
O694   Zn702   1.998   .     S
O695   Zn701   1.998   .     S
O696   Zn702   1.998   .     S
O697   Zn701   1.992   .     S
O698   Zn702   1.992   .     S
O699   Zn701   1.992   .     S
O700   Zn702   1.992   .     S
Br703  C715    1.923   .     S
Br704  C716    1.922   .     S
Br705  C717    1.923   .     S
Br706  C719    1.923   .     S
C707   C725    1.418   .     S
C707   O750    1.282   .     A
C707   O747    1.282   .     A
C708   H734    1.084   .     S
C708   C724    1.397   .     A
C708   C764    1.370   .     S
C709   C724    1.397   .     A
C709   H735    1.084   .     S
C709   C786    1.370   .     S
C710   H736    1.084   .     S
C710   C725    1.397   .     A
C711   C722    1.397   .     A
C711   H740    1.084   .     S
C711   C715    1.382   .     A
C712   C723    1.397   .     A
C712   C716    1.382   .     A
C712   H741    1.084   .     S
C713   C723    1.397   .     A
C713   C717    1.382   .     A
C713   H742    1.084   .     S
C714   C719    1.382   .     A
C714   H743    1.084   .     S
C714   C722    1.397   .     A
C715   C720    1.403   .     A
C716   C721    1.403   .     A
C717   C721    1.404   .     A
C718   O749    1.282   .     A
C718   O748    1.282   .     A
C718   C724    1.418   .     S
C719   C720    1.404   .     A
C720   C726    1.427   .     S
C721   C727    1.427   .     S
C723   C236    1.440   1_556 S
C725   C732    1.397   .     A
C726   O754    1.284   .     A
C726   O751    1.283   .     A
C727   O753    1.284   .     A
C727   O752    1.284   .     A
C728   H733    1.082   .     S
C728   N746    1.366   .     A
C729   N745    1.366   .     A
C729   H737    1.082   .     S
C729   C892    1.416   .     S
C730   H738    1.082   .     S
C730   N746    1.366   .     A
C731   N745    1.366   .     A
C731   H739    1.082   .     S
C731   C890    1.416   .     S
C732   H744    1.084   .     S
N745   Zn755   2.009   .     S
N746   Zn756   2.009   .     S
O747   Zn755   1.998   .     S
O748   Zn756   1.998   .     S
O749   Zn755   1.998   .     S
O750   Zn756   1.998   .     S
O751   Zn755   1.992   .     S
O752   Zn756   1.992   .     S
O753   Zn755   1.992   .     S
O754   Zn756   1.992   .     S
Br757  C769    1.923   .     S
Br758  C770    1.922   .     S
Br759  C771    1.923   .     S
Br760  C773    1.923   .     S
C761   C779    1.418   .     S
C761   O804    1.282   .     A
C761   O801    1.282   .     A
C762   H788    1.084   .     S
C762   C778    1.397   .     A
C762   C656    1.370   1_655 S
C763   C778    1.397   .     A
C763   H789    1.084   .     S
C763   C678    1.370   1_655 S
C764   H790    1.084   .     S
C764   C779    1.397   .     A
C765   C776    1.397   .     A
C765   H794    1.084   .     S
C765   C769    1.382   .     A
C766   C777    1.397   .     A
C766   C770    1.382   .     A
C766   H795    1.084   .     S
C767   C777    1.397   .     A
C767   C771    1.382   .     A
C767   H796    1.084   .     S
C768   C773    1.382   .     A
C768   H797    1.084   .     S
C768   C776    1.397   .     A
C769   C774    1.403   .     A
C770   C775    1.403   .     A
C771   C775    1.404   .     A
C772   O803    1.282   .     A
C772   O802    1.282   .     A
C772   C778    1.418   .     S
C773   C774    1.404   .     A
C774   C780    1.427   .     S
C775   C781    1.427   .     S
C777   C290    1.440   1_556 S
C779   C786    1.397   .     A
C780   O808    1.284   .     A
C780   O805    1.283   .     A
C781   O807    1.284   .     A
C781   O806    1.284   .     A
C782   H787    1.082   .     S
C782   N800    1.366   .     A
C783   N799    1.366   .     A
C783   H791    1.082   .     S
C783   C946    1.416   .     S
C784   H792    1.082   .     S
C784   N800    1.366   .     A
C785   N799    1.366   .     A
C785   H793    1.082   .     S
C785   C944    1.416   .     S
C786   H798    1.084   .     S
N799   Zn809   2.009   .     S
N800   Zn810   2.009   .     S
O801   Zn809   1.998   .     S
O802   Zn810   1.998   .     S
O803   Zn809   1.998   .     S
O804   Zn810   1.998   .     S
O805   Zn809   1.992   .     S
O806   Zn810   1.992   .     S
O807   Zn809   1.992   .     S
O808   Zn810   1.992   .     S
Br811  C823    1.923   .     S
Br812  C824    1.922   .     S
Br813  C825    1.923   .     S
Br814  C827    1.923   .     S
C815   C833    1.418   .     S
C815   O858    1.282   .     A
C815   O855    1.282   .     A
C816   H842    1.084   .     S
C816   C832    1.397   .     A
C816   C872    1.370   .     S
C817   C832    1.397   .     A
C817   H843    1.084   .     S
C817   C894    1.370   .     S
C818   H844    1.084   .     S
C818   C833    1.397   .     A
C818   C924    1.370   1_455 S
C819   C830    1.397   .     A
C819   H848    1.084   .     S
C819   C823    1.382   .     A
C820   C831    1.397   .     A
C820   C824    1.382   .     A
C820   H849    1.084   .     S
C821   C831    1.397   .     A
C821   C825    1.382   .     A
C821   H850    1.084   .     S
C822   C827    1.382   .     A
C822   H851    1.084   .     S
C822   C830    1.397   .     A
C823   C828    1.403   .     A
C824   C829    1.403   .     A
C825   C829    1.404   .     A
C826   O857    1.282   .     A
C826   O856    1.282   .     A
C826   C832    1.418   .     S
C827   C828    1.404   .     A
C828   C834    1.427   .     S
C829   C835    1.427   .     S
C831   C344    1.440   1_556 S
C833   C840    1.397   .     A
C834   O862    1.284   .     A
C834   O859    1.283   .     A
C835   O861    1.284   .     A
C835   O860    1.284   .     A
C836   H841    1.082   .     S
C836   N854    1.366   .     A
C837   N853    1.366   .     A
C837   H845    1.082   .     S
C837   C514    1.416   1_565 S
C838   H846    1.082   .     S
C838   N854    1.366   .     A
C839   N853    1.366   .     A
C839   H847    1.082   .     S
C839   C512    1.416   1_565 S
C840   H852    1.084   .     S
C840   C925    1.370   1_455 S
N853   Zn863   2.009   .     S
N854   Zn864   2.009   .     S
O855   Zn863   1.998   .     S
O856   Zn864   1.998   .     S
O857   Zn863   1.998   .     S
O858   Zn864   1.998   .     S
O859   Zn863   1.992   .     S
O860   Zn864   1.992   .     S
O861   Zn863   1.992   .     S
O862   Zn864   1.992   .     S
Br865  C877    1.923   .     S
Br866  C878    1.922   .     S
Br867  C879    1.923   .     S
Br868  C881    1.923   .     S
C869   C887    1.418   .     S
C869   O912    1.282   .     A
C869   O909    1.282   .     A
C870   H896    1.084   .     S
C870   C886    1.397   .     A
C870   C926    1.370   .     S
C871   C886    1.397   .     A
C871   H897    1.084   .     S
C871   C948    1.370   .     S
C872   H898    1.084   .     S
C872   C887    1.397   .     A
C873   C884    1.397   .     A
C873   H902    1.084   .     S
C873   C877    1.382   .     A
C874   C885    1.397   .     A
C874   C878    1.382   .     A
C874   H903    1.084   .     S
C875   C885    1.397   .     A
C875   C879    1.382   .     A
C875   H904    1.084   .     S
C876   C881    1.382   .     A
C876   H905    1.084   .     S
C876   C884    1.397   .     A
C877   C882    1.403   .     A
C878   C883    1.403   .     A
C879   C883    1.404   .     A
C880   O911    1.282   .     A
C880   O910    1.282   .     A
C880   C886    1.418   .     S
C881   C882    1.404   .     A
C882   C888    1.427   .     S
C883   C889    1.427   .     S
C885   C398    1.440   1_556 S
C887   C894    1.397   .     A
C888   O916    1.284   .     A
C888   O913    1.283   .     A
C889   O915    1.284   .     A
C889   O914    1.284   .     A
C890   H895    1.082   .     S
C890   N908    1.366   .     A
C891   N907    1.366   .     A
C891   H899    1.082   .     S
C891   C568    1.416   1_565 S
C892   H900    1.082   .     S
C892   N908    1.366   .     A
C893   N907    1.366   .     A
C893   H901    1.082   .     S
C893   C566    1.416   1_565 S
C894   H906    1.084   .     S
N907   Zn917   2.009   .     S
N908   Zn918   2.009   .     S
O909   Zn917   1.998   .     S
O910   Zn918   1.998   .     S
O911   Zn917   1.998   .     S
O912   Zn918   1.998   .     S
O913   Zn917   1.992   .     S
O914   Zn918   1.992   .     S
O915   Zn917   1.992   .     S
O916   Zn918   1.992   .     S
Br919  C931    1.923   .     S
Br920  C932    1.922   .     S
Br921  C933    1.923   .     S
Br922  C935    1.923   .     S
C923   C941    1.418   .     S
C923   O966    1.282   .     A
C923   O963    1.282   .     A
C924   H950    1.084   .     S
C924   C940    1.397   .     A
C924   C818    1.370   1_655 S
C925   C940    1.397   .     A
C925   H951    1.084   .     S
C925   C840    1.370   1_655 S
C926   H952    1.084   .     S
C926   C941    1.397   .     A
C927   C938    1.397   .     A
C927   H956    1.084   .     S
C927   C931    1.382   .     A
C928   C939    1.397   .     A
C928   C932    1.382   .     A
C928   H957    1.084   .     S
C929   C939    1.397   .     A
C929   C933    1.382   .     A
C929   H958    1.084   .     S
C930   C935    1.382   .     A
C930   H959    1.084   .     S
C930   C938    1.397   .     A
C931   C936    1.403   .     A
C932   C937    1.403   .     A
C933   C937    1.404   .     A
C934   O965    1.282   .     A
C934   O964    1.282   .     A
C934   C940    1.418   .     S
C935   C936    1.404   .     A
C936   C942    1.427   .     S
C937   C943    1.427   .     S
C939   C452    1.440   1_556 S
C941   C948    1.397   .     A
C942   O970    1.284   .     A
C942   O967    1.283   .     A
C943   O969    1.284   .     A
C943   O968    1.284   .     A
C944   H949    1.082   .     S
C944   N962    1.366   .     A
C945   N961    1.366   .     A
C945   H953    1.082   .     S
C945   C622    1.416   1_565 S
C946   H954    1.082   .     S
C946   N962    1.366   .     A
C947   N961    1.366   .     A
C947   H955    1.082   .     S
C947   C620    1.416   1_565 S
C948   H960    1.084   .     S
N961   Zn971   2.009   .     S
N962   Zn972   2.009   .     S
O963   Zn971   1.998   .     S
O964   Zn972   1.998   .     S
O965   Zn971   1.998   .     S
O966   Zn972   1.998   .     S
O967   Zn971   1.992   .     S
O968   Zn972   1.992   .     S
O969   Zn971   1.992   .     S
O970   Zn972   1.992   .     S
