data_str_m3_o1_o10_pcu_sym.79
_audit_creation_date              2020-01-03
_audit_creation_method            'Materials Studio'
_symmetry_space_group_name_H-M    'P1'
_symmetry_Int_Tables_number       1
_symmetry_cell_setting            triclinic
loop_
_symmetry_equiv_pos_as_xyz
  x,y,z
_cell_length_a                    26.1923
_cell_length_b                    32.1188
_cell_length_c                    29.4907
_cell_angle_alpha                 90.5990
_cell_angle_beta                  98.6521
_cell_angle_gamma                 89.6265
loop_
_atom_site_label
_atom_site_type_symbol
_atom_site_fract_x
_atom_site_fract_y
_atom_site_fract_z
_atom_site_U_iso_or_equiv
_atom_site_adp_type
_atom_site_occupancy
C1     C     0.16772   0.08670   0.16652   0.00000  Uiso   1.00
C2     C     0.13947   0.02282   0.19592   0.00000  Uiso   1.00
C3     C     0.16538   0.29079   0.16724   0.00000  Uiso   1.00
C4     C     0.16796   0.04255   0.16610   0.00000  Uiso   1.00
C5     C     0.19671   0.19399   0.02830   0.00000  Uiso   1.00
C6     C     0.13663   0.13934   0.30503   0.00000  Uiso   1.00
C7     C     0.19671   0.19397   0.31364   0.00000  Uiso   1.00
C8     C     0.13662   0.13937   0.01969   0.00000  Uiso   1.00
C9     C     0.32343   0.14787   0.10333   0.00000  Uiso   1.00
C10    C     0.00990   0.18546   0.23001   0.00000  Uiso   1.00
C11    C     0.22684   0.03923   0.10642   0.00000  Uiso   1.00
C12    C     0.16561   0.24664   0.16681   0.00000  Uiso   1.00
C13    C     0.10650   0.29411   0.22692   0.00000  Uiso   1.00
C14    C     0.06727   0.16669   0.15485   0.00000  Uiso   1.00
C15    C     0.26606   0.16664   0.17848   0.00000  Uiso   1.00
C16    C     0.01302   0.16294   0.14870   0.00000  Uiso   1.00
C17    C     0.32031   0.17040   0.18464   0.00000  Uiso   1.00
C18    C     0.19551   0.01989   0.13660   0.00000  Uiso   1.00
C19    C     0.13783   0.31344   0.19673   0.00000  Uiso   1.00
C20    C     0.19387   0.31051   0.13741   0.00000  Uiso   1.00
H21    H     0.21550   0.29251   0.11530   0.00000  Uiso   1.00
H22    H     0.11783   0.04082   0.21803   0.00000  Uiso   1.00
H23    H     0.22077   0.21578   0.04996   0.00000  Uiso   1.00
H24    H     0.11256   0.11755   0.28337   0.00000  Uiso   1.00
H25    H     0.22075   0.21575   0.29887   0.00000  Uiso   1.00
H26    H     0.11258   0.11758   0.03446   0.00000  Uiso   1.00
N27    N     0.16665   0.16666   0.28573   0.00000  Uiso   1.00
N28    N     0.16668   0.16668   0.04760   0.00000  Uiso   1.00
N29    N     0.30572   0.13613   0.06716   0.00000  Uiso   1.00
N30    N     0.02761   0.19720   0.26617   0.00000  Uiso   1.00
N31    N     0.25190   0.05449   0.08212   0.00000  Uiso   1.00
N32    N     0.08143   0.27884   0.25122   0.00000  Uiso   1.00
O33    O     0.16666   0.10558   0.20487   0.00000  Uiso   1.00
O34    O     0.16667   0.22775   0.12846   0.00000  Uiso   1.00
O35    O     0.16666   0.10559   0.12843   0.00000  Uiso   1.00
O36    O     0.16667   0.22774   0.20490   0.00000  Uiso   1.00
O37    O     0.09058   0.16666   0.19595   0.00000  Uiso   1.00
O38    O     0.24275   0.16667   0.13739   0.00000  Uiso   1.00
O39    O     0.09058   0.16667   0.11950   0.00000  Uiso   1.00
O40    O     0.24275   0.16666   0.21383   0.00000  Uiso   1.00
Zn41   Zn    0.16667   0.16666   0.21771   0.00000  Uiso   1.00
Zn42   Zn    0.16667   0.16667   0.11563   0.00000  Uiso   1.00
C43    C     0.50105   0.08670   0.16652   0.00000  Uiso   1.00
C44    C     0.47280   0.02282   0.19592   0.00000  Uiso   1.00
C45    C     0.49871   0.29079   0.16724   0.00000  Uiso   1.00
C46    C     0.50129   0.04255   0.16610   0.00000  Uiso   1.00
C47    C     0.53004   0.19399   0.02830   0.00000  Uiso   1.00
C48    C     0.46996   0.13934   0.30503   0.00000  Uiso   1.00
C49    C     0.53004   0.19397   0.31364   0.00000  Uiso   1.00
C50    C     0.46996   0.13937   0.01969   0.00000  Uiso   1.00
C51    C     0.65677   0.14787   0.10333   0.00000  Uiso   1.00
C52    C     0.34323   0.18546   0.23001   0.00000  Uiso   1.00
C53    C     0.56017   0.03923   0.10642   0.00000  Uiso   1.00
C54    C     0.49895   0.24664   0.16681   0.00000  Uiso   1.00
C55    C     0.43983   0.29411   0.22692   0.00000  Uiso   1.00
C56    C     0.40061   0.16669   0.15485   0.00000  Uiso   1.00
C57    C     0.59939   0.16664   0.17848   0.00000  Uiso   1.00
C58    C     0.34635   0.16294   0.14870   0.00000  Uiso   1.00
C59    C     0.65365   0.17040   0.18464   0.00000  Uiso   1.00
C60    C     0.52884   0.01989   0.13660   0.00000  Uiso   1.00
C61    C     0.47116   0.31344   0.19673   0.00000  Uiso   1.00
C62    C     0.52720   0.31051   0.13741   0.00000  Uiso   1.00
H63    H     0.54884   0.29251   0.11530   0.00000  Uiso   1.00
H64    H     0.45116   0.04082   0.21803   0.00000  Uiso   1.00
H65    H     0.55411   0.21578   0.04996   0.00000  Uiso   1.00
H66    H     0.44589   0.11755   0.28337   0.00000  Uiso   1.00
H67    H     0.55408   0.21575   0.29887   0.00000  Uiso   1.00
H68    H     0.44592   0.11758   0.03446   0.00000  Uiso   1.00
N69    N     0.49999   0.16666   0.28573   0.00000  Uiso   1.00
N70    N     0.50001   0.16668   0.04760   0.00000  Uiso   1.00
N71    N     0.63905   0.13613   0.06716   0.00000  Uiso   1.00
N72    N     0.36095   0.19720   0.26617   0.00000  Uiso   1.00
N73    N     0.58523   0.05449   0.08212   0.00000  Uiso   1.00
N74    N     0.41477   0.27884   0.25122   0.00000  Uiso   1.00
O75    O     0.50000   0.10558   0.20487   0.00000  Uiso   1.00
O76    O     0.50000   0.22775   0.12846   0.00000  Uiso   1.00
O77    O     0.50000   0.10559   0.12843   0.00000  Uiso   1.00
O78    O     0.50000   0.22774   0.20490   0.00000  Uiso   1.00
O79    O     0.42392   0.16666   0.19595   0.00000  Uiso   1.00
O80    O     0.57608   0.16667   0.13739   0.00000  Uiso   1.00
O81    O     0.42392   0.16667   0.11950   0.00000  Uiso   1.00
O82    O     0.57608   0.16666   0.21383   0.00000  Uiso   1.00
Zn83   Zn    0.50000   0.16666   0.21771   0.00000  Uiso   1.00
Zn84   Zn    0.50000   0.16667   0.11563   0.00000  Uiso   1.00
C85    C     0.83439   0.08670   0.16652   0.00000  Uiso   1.00
C86    C     0.80613   0.02282   0.19592   0.00000  Uiso   1.00
C87    C     0.83204   0.29079   0.16724   0.00000  Uiso   1.00
C88    C     0.83462   0.04255   0.16610   0.00000  Uiso   1.00
C89    C     0.86337   0.19399   0.02830   0.00000  Uiso   1.00
C90    C     0.80329   0.13934   0.30503   0.00000  Uiso   1.00
C91    C     0.86338   0.19397   0.31364   0.00000  Uiso   1.00
C92    C     0.80329   0.13937   0.01969   0.00000  Uiso   1.00
C93    C     0.99010   0.14787   0.10333   0.00000  Uiso   1.00
C94    C     0.67657   0.18546   0.23001   0.00000  Uiso   1.00
C95    C     0.89350   0.03923   0.10642   0.00000  Uiso   1.00
C96    C     0.83228   0.24664   0.16681   0.00000  Uiso   1.00
C97    C     0.77316   0.29411   0.22692   0.00000  Uiso   1.00
C98    C     0.73394   0.16669   0.15485   0.00000  Uiso   1.00
C99    C     0.93273   0.16664   0.17848   0.00000  Uiso   1.00
C100   C     0.67968   0.16294   0.14870   0.00000  Uiso   1.00
C101   C     0.98698   0.17040   0.18464   0.00000  Uiso   1.00
C102   C     0.86217   0.01989   0.13660   0.00000  Uiso   1.00
C103   C     0.80449   0.31344   0.19673   0.00000  Uiso   1.00
C104   C     0.86053   0.31051   0.13741   0.00000  Uiso   1.00
H105   H     0.88217   0.29251   0.11530   0.00000  Uiso   1.00
H106   H     0.78450   0.04082   0.21803   0.00000  Uiso   1.00
H107   H     0.88744   0.21578   0.04996   0.00000  Uiso   1.00
H108   H     0.77923   0.11755   0.28337   0.00000  Uiso   1.00
H109   H     0.88742   0.21575   0.29887   0.00000  Uiso   1.00
H110   H     0.77925   0.11758   0.03446   0.00000  Uiso   1.00
N111   N     0.83332   0.16666   0.28573   0.00000  Uiso   1.00
N112   N     0.83335   0.16668   0.04760   0.00000  Uiso   1.00
N113   N     0.97239   0.13613   0.06716   0.00000  Uiso   1.00
N114   N     0.69428   0.19720   0.26617   0.00000  Uiso   1.00
N115   N     0.91857   0.05449   0.08212   0.00000  Uiso   1.00
N116   N     0.74810   0.27884   0.25122   0.00000  Uiso   1.00
O117   O     0.83333   0.10558   0.20487   0.00000  Uiso   1.00
O118   O     0.83334   0.22775   0.12846   0.00000  Uiso   1.00
O119   O     0.83333   0.10559   0.12843   0.00000  Uiso   1.00
O120   O     0.83334   0.22774   0.20490   0.00000  Uiso   1.00
O121   O     0.75725   0.16666   0.19595   0.00000  Uiso   1.00
O122   O     0.90942   0.16667   0.13739   0.00000  Uiso   1.00
O123   O     0.75725   0.16667   0.11950   0.00000  Uiso   1.00
O124   O     0.90942   0.16666   0.21383   0.00000  Uiso   1.00
Zn125  Zn    0.83333   0.16666   0.21771   0.00000  Uiso   1.00
Zn126  Zn    0.83333   0.16667   0.11563   0.00000  Uiso   1.00
C127   C     0.16772   0.42003   0.16652   0.00000  Uiso   1.00
C128   C     0.13947   0.35616   0.19592   0.00000  Uiso   1.00
C129   C     0.16538   0.62412   0.16724   0.00000  Uiso   1.00
C130   C     0.16796   0.37588   0.16610   0.00000  Uiso   1.00
C131   C     0.19671   0.52732   0.02830   0.00000  Uiso   1.00
C132   C     0.13663   0.47268   0.30503   0.00000  Uiso   1.00
C133   C     0.19671   0.52730   0.31364   0.00000  Uiso   1.00
C134   C     0.13662   0.47270   0.01969   0.00000  Uiso   1.00
C135   C     0.32343   0.48120   0.10333   0.00000  Uiso   1.00
C136   C     0.00990   0.51880   0.23001   0.00000  Uiso   1.00
C137   C     0.22684   0.37256   0.10642   0.00000  Uiso   1.00
C138   C     0.16561   0.57997   0.16681   0.00000  Uiso   1.00
C139   C     0.10650   0.62744   0.22692   0.00000  Uiso   1.00
C140   C     0.06727   0.50003   0.15485   0.00000  Uiso   1.00
C141   C     0.26606   0.49997   0.17848   0.00000  Uiso   1.00
C142   C     0.01302   0.49627   0.14870   0.00000  Uiso   1.00
C143   C     0.32031   0.50373   0.18464   0.00000  Uiso   1.00
C144   C     0.19551   0.35322   0.13660   0.00000  Uiso   1.00
C145   C     0.13783   0.64678   0.19673   0.00000  Uiso   1.00
C146   C     0.19387   0.64384   0.13741   0.00000  Uiso   1.00
H147   H     0.21550   0.62584   0.11530   0.00000  Uiso   1.00
H148   H     0.11783   0.37416   0.21803   0.00000  Uiso   1.00
H149   H     0.22077   0.54911   0.04996   0.00000  Uiso   1.00
H150   H     0.11256   0.45089   0.28337   0.00000  Uiso   1.00
H151   H     0.22075   0.54909   0.29887   0.00000  Uiso   1.00
H152   H     0.11258   0.45091   0.03446   0.00000  Uiso   1.00
N153   N     0.16665   0.49999   0.28573   0.00000  Uiso   1.00
N154   N     0.16668   0.50001   0.04760   0.00000  Uiso   1.00
N155   N     0.30572   0.46946   0.06716   0.00000  Uiso   1.00
N156   N     0.02761   0.53054   0.26617   0.00000  Uiso   1.00
N157   N     0.25190   0.38783   0.08212   0.00000  Uiso   1.00
N158   N     0.08143   0.61217   0.25122   0.00000  Uiso   1.00
O159   O     0.16666   0.43892   0.20487   0.00000  Uiso   1.00
O160   O     0.16667   0.56108   0.12846   0.00000  Uiso   1.00
O161   O     0.16666   0.43893   0.12843   0.00000  Uiso   1.00
O162   O     0.16667   0.56107   0.20490   0.00000  Uiso   1.00
O163   O     0.09058   0.50000   0.19595   0.00000  Uiso   1.00
O164   O     0.24275   0.50000   0.13739   0.00000  Uiso   1.00
O165   O     0.09058   0.50000   0.11950   0.00000  Uiso   1.00
O166   O     0.24275   0.50000   0.21383   0.00000  Uiso   1.00
Zn167  Zn    0.16667   0.49999   0.21771   0.00000  Uiso   1.00
Zn168  Zn    0.16667   0.50001   0.11563   0.00000  Uiso   1.00
C169   C     0.50105   0.42003   0.16652   0.00000  Uiso   1.00
C170   C     0.47280   0.35616   0.19592   0.00000  Uiso   1.00
C171   C     0.49871   0.62412   0.16724   0.00000  Uiso   1.00
C172   C     0.50129   0.37588   0.16610   0.00000  Uiso   1.00
C173   C     0.53004   0.52732   0.02830   0.00000  Uiso   1.00
C174   C     0.46996   0.47268   0.30503   0.00000  Uiso   1.00
C175   C     0.53004   0.52730   0.31364   0.00000  Uiso   1.00
C176   C     0.46996   0.47270   0.01969   0.00000  Uiso   1.00
C177   C     0.65677   0.48120   0.10333   0.00000  Uiso   1.00
C178   C     0.34323   0.51880   0.23001   0.00000  Uiso   1.00
C179   C     0.56017   0.37256   0.10642   0.00000  Uiso   1.00
C180   C     0.49895   0.57997   0.16681   0.00000  Uiso   1.00
C181   C     0.43983   0.62744   0.22692   0.00000  Uiso   1.00
C182   C     0.40061   0.50003   0.15485   0.00000  Uiso   1.00
C183   C     0.59939   0.49997   0.17848   0.00000  Uiso   1.00
C184   C     0.34635   0.49627   0.14870   0.00000  Uiso   1.00
C185   C     0.65365   0.50373   0.18464   0.00000  Uiso   1.00
C186   C     0.52884   0.35322   0.13660   0.00000  Uiso   1.00
C187   C     0.47116   0.64678   0.19673   0.00000  Uiso   1.00
C188   C     0.52720   0.64384   0.13741   0.00000  Uiso   1.00
H189   H     0.54884   0.62584   0.11530   0.00000  Uiso   1.00
H190   H     0.45116   0.37416   0.21803   0.00000  Uiso   1.00
H191   H     0.55411   0.54911   0.04996   0.00000  Uiso   1.00
H192   H     0.44589   0.45089   0.28337   0.00000  Uiso   1.00
H193   H     0.55408   0.54909   0.29887   0.00000  Uiso   1.00
H194   H     0.44592   0.45091   0.03446   0.00000  Uiso   1.00
N195   N     0.49999   0.49999   0.28573   0.00000  Uiso   1.00
N196   N     0.50001   0.50001   0.04760   0.00000  Uiso   1.00
N197   N     0.63905   0.46946   0.06716   0.00000  Uiso   1.00
N198   N     0.36095   0.53054   0.26617   0.00000  Uiso   1.00
N199   N     0.58523   0.38783   0.08212   0.00000  Uiso   1.00
N200   N     0.41477   0.61217   0.25122   0.00000  Uiso   1.00
O201   O     0.50000   0.43892   0.20487   0.00000  Uiso   1.00
O202   O     0.50000   0.56108   0.12846   0.00000  Uiso   1.00
O203   O     0.50000   0.43893   0.12843   0.00000  Uiso   1.00
O204   O     0.50000   0.56107   0.20490   0.00000  Uiso   1.00
O205   O     0.42392   0.50000   0.19595   0.00000  Uiso   1.00
O206   O     0.57608   0.50000   0.13739   0.00000  Uiso   1.00
O207   O     0.42392   0.50000   0.11950   0.00000  Uiso   1.00
O208   O     0.57608   0.50000   0.21383   0.00000  Uiso   1.00
Zn209  Zn    0.50000   0.49999   0.21771   0.00000  Uiso   1.00
Zn210  Zn    0.50000   0.50001   0.11563   0.00000  Uiso   1.00
C211   C     0.83439   0.42003   0.16652   0.00000  Uiso   1.00
C212   C     0.80613   0.35616   0.19592   0.00000  Uiso   1.00
C213   C     0.83204   0.62412   0.16724   0.00000  Uiso   1.00
C214   C     0.83462   0.37588   0.16610   0.00000  Uiso   1.00
C215   C     0.86337   0.52732   0.02830   0.00000  Uiso   1.00
C216   C     0.80329   0.47268   0.30503   0.00000  Uiso   1.00
C217   C     0.86338   0.52730   0.31364   0.00000  Uiso   1.00
C218   C     0.80329   0.47270   0.01969   0.00000  Uiso   1.00
C219   C     0.99010   0.48120   0.10333   0.00000  Uiso   1.00
C220   C     0.67657   0.51880   0.23001   0.00000  Uiso   1.00
C221   C     0.89350   0.37256   0.10642   0.00000  Uiso   1.00
C222   C     0.83228   0.57997   0.16681   0.00000  Uiso   1.00
C223   C     0.77316   0.62744   0.22692   0.00000  Uiso   1.00
C224   C     0.73394   0.50003   0.15485   0.00000  Uiso   1.00
C225   C     0.93273   0.49997   0.17848   0.00000  Uiso   1.00
C226   C     0.67968   0.49627   0.14870   0.00000  Uiso   1.00
C227   C     0.98698   0.50373   0.18464   0.00000  Uiso   1.00
C228   C     0.86217   0.35322   0.13660   0.00000  Uiso   1.00
C229   C     0.80449   0.64678   0.19673   0.00000  Uiso   1.00
C230   C     0.86053   0.64384   0.13741   0.00000  Uiso   1.00
H231   H     0.88217   0.62584   0.11530   0.00000  Uiso   1.00
H232   H     0.78450   0.37416   0.21803   0.00000  Uiso   1.00
H233   H     0.88744   0.54911   0.04996   0.00000  Uiso   1.00
H234   H     0.77923   0.45089   0.28337   0.00000  Uiso   1.00
H235   H     0.88742   0.54909   0.29887   0.00000  Uiso   1.00
H236   H     0.77925   0.45091   0.03446   0.00000  Uiso   1.00
N237   N     0.83332   0.49999   0.28573   0.00000  Uiso   1.00
N238   N     0.83335   0.50001   0.04760   0.00000  Uiso   1.00
N239   N     0.97239   0.46946   0.06716   0.00000  Uiso   1.00
N240   N     0.69428   0.53054   0.26617   0.00000  Uiso   1.00
N241   N     0.91857   0.38783   0.08212   0.00000  Uiso   1.00
N242   N     0.74810   0.61217   0.25122   0.00000  Uiso   1.00
O243   O     0.83333   0.43892   0.20487   0.00000  Uiso   1.00
O244   O     0.83334   0.56108   0.12846   0.00000  Uiso   1.00
O245   O     0.83333   0.43893   0.12843   0.00000  Uiso   1.00
O246   O     0.83334   0.56107   0.20490   0.00000  Uiso   1.00
O247   O     0.75725   0.50000   0.19595   0.00000  Uiso   1.00
O248   O     0.90942   0.50000   0.13739   0.00000  Uiso   1.00
O249   O     0.75725   0.50000   0.11950   0.00000  Uiso   1.00
O250   O     0.90942   0.50000   0.21383   0.00000  Uiso   1.00
Zn251  Zn    0.83333   0.49999   0.21771   0.00000  Uiso   1.00
Zn252  Zn    0.83333   0.50001   0.11563   0.00000  Uiso   1.00
C253   C     0.16772   0.75336   0.16652   0.00000  Uiso   1.00
C254   C     0.13947   0.68949   0.19592   0.00000  Uiso   1.00
C255   C     0.16538   0.95745   0.16724   0.00000  Uiso   1.00
C256   C     0.16796   0.70921   0.16610   0.00000  Uiso   1.00
C257   C     0.19671   0.86066   0.02830   0.00000  Uiso   1.00
C258   C     0.13663   0.80601   0.30503   0.00000  Uiso   1.00
C259   C     0.19671   0.86063   0.31364   0.00000  Uiso   1.00
C260   C     0.13662   0.80603   0.01969   0.00000  Uiso   1.00
C261   C     0.32343   0.81454   0.10333   0.00000  Uiso   1.00
C262   C     0.00990   0.85213   0.23001   0.00000  Uiso   1.00
C263   C     0.22684   0.70589   0.10642   0.00000  Uiso   1.00
C264   C     0.16561   0.91330   0.16681   0.00000  Uiso   1.00
C265   C     0.10650   0.96077   0.22692   0.00000  Uiso   1.00
C266   C     0.06727   0.83336   0.15485   0.00000  Uiso   1.00
C267   C     0.26606   0.83331   0.17848   0.00000  Uiso   1.00
C268   C     0.01302   0.82960   0.14870   0.00000  Uiso   1.00
C269   C     0.32031   0.83706   0.18464   0.00000  Uiso   1.00
C270   C     0.19551   0.68656   0.13660   0.00000  Uiso   1.00
C271   C     0.13783   0.98011   0.19673   0.00000  Uiso   1.00
C272   C     0.19387   0.97718   0.13741   0.00000  Uiso   1.00
H273   H     0.21550   0.95918   0.11530   0.00000  Uiso   1.00
H274   H     0.11783   0.70749   0.21803   0.00000  Uiso   1.00
H275   H     0.22077   0.88245   0.04996   0.00000  Uiso   1.00
H276   H     0.11256   0.78422   0.28337   0.00000  Uiso   1.00
H277   H     0.22075   0.88242   0.29887   0.00000  Uiso   1.00
H278   H     0.11258   0.78425   0.03446   0.00000  Uiso   1.00
N279   N     0.16665   0.83332   0.28573   0.00000  Uiso   1.00
N280   N     0.16668   0.83334   0.04760   0.00000  Uiso   1.00
N281   N     0.30572   0.80280   0.06716   0.00000  Uiso   1.00
N282   N     0.02761   0.86387   0.26617   0.00000  Uiso   1.00
N283   N     0.25190   0.72116   0.08212   0.00000  Uiso   1.00
N284   N     0.08143   0.94551   0.25122   0.00000  Uiso   1.00
O285   O     0.16666   0.77225   0.20487   0.00000  Uiso   1.00
O286   O     0.16667   0.89442   0.12846   0.00000  Uiso   1.00
O287   O     0.16666   0.77226   0.12843   0.00000  Uiso   1.00
O288   O     0.16667   0.89441   0.20490   0.00000  Uiso   1.00
O289   O     0.09058   0.83333   0.19595   0.00000  Uiso   1.00
O290   O     0.24275   0.83334   0.13739   0.00000  Uiso   1.00
O291   O     0.09058   0.83334   0.11950   0.00000  Uiso   1.00
O292   O     0.24275   0.83333   0.21383   0.00000  Uiso   1.00
Zn293  Zn    0.16667   0.83333   0.21771   0.00000  Uiso   1.00
Zn294  Zn    0.16667   0.83334   0.11563   0.00000  Uiso   1.00
C295   C     0.50105   0.75336   0.16652   0.00000  Uiso   1.00
C296   C     0.47280   0.68949   0.19592   0.00000  Uiso   1.00
C297   C     0.49871   0.95745   0.16724   0.00000  Uiso   1.00
C298   C     0.50129   0.70921   0.16610   0.00000  Uiso   1.00
C299   C     0.53004   0.86066   0.02830   0.00000  Uiso   1.00
C300   C     0.46996   0.80601   0.30503   0.00000  Uiso   1.00
C301   C     0.53004   0.86063   0.31364   0.00000  Uiso   1.00
C302   C     0.46996   0.80603   0.01969   0.00000  Uiso   1.00
C303   C     0.65677   0.81454   0.10333   0.00000  Uiso   1.00
C304   C     0.34323   0.85213   0.23001   0.00000  Uiso   1.00
C305   C     0.56017   0.70589   0.10642   0.00000  Uiso   1.00
C306   C     0.49895   0.91330   0.16681   0.00000  Uiso   1.00
C307   C     0.43983   0.96077   0.22692   0.00000  Uiso   1.00
C308   C     0.40061   0.83336   0.15485   0.00000  Uiso   1.00
C309   C     0.59939   0.83331   0.17848   0.00000  Uiso   1.00
C310   C     0.34635   0.82960   0.14870   0.00000  Uiso   1.00
C311   C     0.65365   0.83706   0.18464   0.00000  Uiso   1.00
C312   C     0.52884   0.68656   0.13660   0.00000  Uiso   1.00
C313   C     0.47116   0.98011   0.19673   0.00000  Uiso   1.00
C314   C     0.52720   0.97718   0.13741   0.00000  Uiso   1.00
H315   H     0.54884   0.95918   0.11530   0.00000  Uiso   1.00
H316   H     0.45116   0.70749   0.21803   0.00000  Uiso   1.00
H317   H     0.55411   0.88245   0.04996   0.00000  Uiso   1.00
H318   H     0.44589   0.78422   0.28337   0.00000  Uiso   1.00
H319   H     0.55408   0.88242   0.29887   0.00000  Uiso   1.00
H320   H     0.44592   0.78425   0.03446   0.00000  Uiso   1.00
N321   N     0.49999   0.83332   0.28573   0.00000  Uiso   1.00
N322   N     0.50001   0.83334   0.04760   0.00000  Uiso   1.00
N323   N     0.63905   0.80280   0.06716   0.00000  Uiso   1.00
N324   N     0.36095   0.86387   0.26617   0.00000  Uiso   1.00
N325   N     0.58523   0.72116   0.08212   0.00000  Uiso   1.00
N326   N     0.41477   0.94551   0.25122   0.00000  Uiso   1.00
O327   O     0.50000   0.77225   0.20487   0.00000  Uiso   1.00
O328   O     0.50000   0.89442   0.12846   0.00000  Uiso   1.00
O329   O     0.50000   0.77226   0.12843   0.00000  Uiso   1.00
O330   O     0.50000   0.89441   0.20490   0.00000  Uiso   1.00
O331   O     0.42392   0.83333   0.19595   0.00000  Uiso   1.00
O332   O     0.57608   0.83334   0.13739   0.00000  Uiso   1.00
O333   O     0.42392   0.83334   0.11950   0.00000  Uiso   1.00
O334   O     0.57608   0.83333   0.21383   0.00000  Uiso   1.00
Zn335  Zn    0.50000   0.83333   0.21771   0.00000  Uiso   1.00
Zn336  Zn    0.50000   0.83334   0.11563   0.00000  Uiso   1.00
C337   C     0.83439   0.75336   0.16652   0.00000  Uiso   1.00
C338   C     0.80613   0.68949   0.19592   0.00000  Uiso   1.00
C339   C     0.83204   0.95745   0.16724   0.00000  Uiso   1.00
C340   C     0.83462   0.70921   0.16610   0.00000  Uiso   1.00
C341   C     0.86337   0.86066   0.02830   0.00000  Uiso   1.00
C342   C     0.80329   0.80601   0.30503   0.00000  Uiso   1.00
C343   C     0.86338   0.86063   0.31364   0.00000  Uiso   1.00
C344   C     0.80329   0.80603   0.01969   0.00000  Uiso   1.00
C345   C     0.99010   0.81454   0.10333   0.00000  Uiso   1.00
C346   C     0.67657   0.85213   0.23001   0.00000  Uiso   1.00
C347   C     0.89350   0.70589   0.10642   0.00000  Uiso   1.00
C348   C     0.83228   0.91330   0.16681   0.00000  Uiso   1.00
C349   C     0.77316   0.96077   0.22692   0.00000  Uiso   1.00
C350   C     0.73394   0.83336   0.15485   0.00000  Uiso   1.00
C351   C     0.93273   0.83331   0.17848   0.00000  Uiso   1.00
C352   C     0.67968   0.82960   0.14870   0.00000  Uiso   1.00
C353   C     0.98698   0.83706   0.18464   0.00000  Uiso   1.00
C354   C     0.86217   0.68656   0.13660   0.00000  Uiso   1.00
C355   C     0.80449   0.98011   0.19673   0.00000  Uiso   1.00
C356   C     0.86053   0.97718   0.13741   0.00000  Uiso   1.00
H357   H     0.88217   0.95918   0.11530   0.00000  Uiso   1.00
H358   H     0.78450   0.70749   0.21803   0.00000  Uiso   1.00
H359   H     0.88744   0.88245   0.04996   0.00000  Uiso   1.00
H360   H     0.77923   0.78422   0.28337   0.00000  Uiso   1.00
H361   H     0.88742   0.88242   0.29887   0.00000  Uiso   1.00
H362   H     0.77925   0.78425   0.03446   0.00000  Uiso   1.00
N363   N     0.83332   0.83332   0.28573   0.00000  Uiso   1.00
N364   N     0.83335   0.83334   0.04760   0.00000  Uiso   1.00
N365   N     0.97239   0.80280   0.06716   0.00000  Uiso   1.00
N366   N     0.69428   0.86387   0.26617   0.00000  Uiso   1.00
N367   N     0.91857   0.72116   0.08212   0.00000  Uiso   1.00
N368   N     0.74810   0.94551   0.25122   0.00000  Uiso   1.00
O369   O     0.83333   0.77225   0.20487   0.00000  Uiso   1.00
O370   O     0.83334   0.89442   0.12846   0.00000  Uiso   1.00
O371   O     0.83333   0.77226   0.12843   0.00000  Uiso   1.00
O372   O     0.83334   0.89441   0.20490   0.00000  Uiso   1.00
O373   O     0.75725   0.83333   0.19595   0.00000  Uiso   1.00
O374   O     0.90942   0.83334   0.13739   0.00000  Uiso   1.00
O375   O     0.75725   0.83334   0.11950   0.00000  Uiso   1.00
O376   O     0.90942   0.83333   0.21383   0.00000  Uiso   1.00
Zn377  Zn    0.83333   0.83333   0.21771   0.00000  Uiso   1.00
Zn378  Zn    0.83333   0.83334   0.11563   0.00000  Uiso   1.00
C379   C     0.16772   0.08670   0.49986   0.00000  Uiso   1.00
C380   C     0.13947   0.02282   0.52925   0.00000  Uiso   1.00
C381   C     0.16538   0.29079   0.50057   0.00000  Uiso   1.00
C382   C     0.16796   0.04255   0.49943   0.00000  Uiso   1.00
C383   C     0.19671   0.19399   0.36163   0.00000  Uiso   1.00
C384   C     0.13663   0.13934   0.63837   0.00000  Uiso   1.00
C385   C     0.19671   0.19397   0.64698   0.00000  Uiso   1.00
C386   C     0.13662   0.13937   0.35302   0.00000  Uiso   1.00
C387   C     0.32343   0.14787   0.43666   0.00000  Uiso   1.00
C388   C     0.00990   0.18546   0.56334   0.00000  Uiso   1.00
C389   C     0.22684   0.03923   0.43975   0.00000  Uiso   1.00
C390   C     0.16561   0.24664   0.50014   0.00000  Uiso   1.00
C391   C     0.10650   0.29411   0.56025   0.00000  Uiso   1.00
C392   C     0.06727   0.16669   0.48819   0.00000  Uiso   1.00
C393   C     0.26606   0.16664   0.51181   0.00000  Uiso   1.00
C394   C     0.01302   0.16294   0.48203   0.00000  Uiso   1.00
C395   C     0.32031   0.17040   0.51797   0.00000  Uiso   1.00
C396   C     0.19551   0.01989   0.46994   0.00000  Uiso   1.00
C397   C     0.13783   0.31344   0.53006   0.00000  Uiso   1.00
C398   C     0.19387   0.31051   0.47075   0.00000  Uiso   1.00
H399   H     0.21550   0.29251   0.44863   0.00000  Uiso   1.00
H400   H     0.11783   0.04082   0.55137   0.00000  Uiso   1.00
H401   H     0.22077   0.21578   0.38329   0.00000  Uiso   1.00
H402   H     0.11256   0.11755   0.61671   0.00000  Uiso   1.00
H403   H     0.22075   0.21575   0.63221   0.00000  Uiso   1.00
H404   H     0.11258   0.11758   0.36779   0.00000  Uiso   1.00
N405   N     0.16665   0.16666   0.61907   0.00000  Uiso   1.00
N406   N     0.16668   0.16668   0.38093   0.00000  Uiso   1.00
N407   N     0.30572   0.13613   0.40050   0.00000  Uiso   1.00
N408   N     0.02761   0.19720   0.59950   0.00000  Uiso   1.00
N409   N     0.25190   0.05449   0.41545   0.00000  Uiso   1.00
N410   N     0.08143   0.27884   0.58455   0.00000  Uiso   1.00
O411   O     0.16666   0.10558   0.53821   0.00000  Uiso   1.00
O412   O     0.16667   0.22775   0.46179   0.00000  Uiso   1.00
O413   O     0.16666   0.10559   0.46176   0.00000  Uiso   1.00
O414   O     0.16667   0.22774   0.53824   0.00000  Uiso   1.00
O415   O     0.09058   0.16666   0.52928   0.00000  Uiso   1.00
O416   O     0.24275   0.16667   0.47072   0.00000  Uiso   1.00
O417   O     0.09058   0.16667   0.45284   0.00000  Uiso   1.00
O418   O     0.24275   0.16666   0.54716   0.00000  Uiso   1.00
Zn419  Zn    0.16667   0.16666   0.55104   0.00000  Uiso   1.00
Zn420  Zn    0.16667   0.16667   0.44896   0.00000  Uiso   1.00
C421   C     0.50105   0.08670   0.49986   0.00000  Uiso   1.00
C422   C     0.47280   0.02282   0.52925   0.00000  Uiso   1.00
C423   C     0.49871   0.29079   0.50057   0.00000  Uiso   1.00
C424   C     0.50129   0.04255   0.49943   0.00000  Uiso   1.00
C425   C     0.53004   0.19399   0.36163   0.00000  Uiso   1.00
C426   C     0.46996   0.13934   0.63837   0.00000  Uiso   1.00
C427   C     0.53004   0.19397   0.64698   0.00000  Uiso   1.00
C428   C     0.46996   0.13937   0.35302   0.00000  Uiso   1.00
C429   C     0.65677   0.14787   0.43666   0.00000  Uiso   1.00
C430   C     0.34323   0.18546   0.56334   0.00000  Uiso   1.00
C431   C     0.56017   0.03923   0.43975   0.00000  Uiso   1.00
C432   C     0.49895   0.24664   0.50014   0.00000  Uiso   1.00
C433   C     0.43983   0.29411   0.56025   0.00000  Uiso   1.00
C434   C     0.40061   0.16669   0.48819   0.00000  Uiso   1.00
C435   C     0.59939   0.16664   0.51181   0.00000  Uiso   1.00
C436   C     0.34635   0.16294   0.48203   0.00000  Uiso   1.00
C437   C     0.65365   0.17040   0.51797   0.00000  Uiso   1.00
C438   C     0.52884   0.01989   0.46994   0.00000  Uiso   1.00
C439   C     0.47116   0.31344   0.53006   0.00000  Uiso   1.00
C440   C     0.52720   0.31051   0.47075   0.00000  Uiso   1.00
H441   H     0.54884   0.29251   0.44863   0.00000  Uiso   1.00
H442   H     0.45116   0.04082   0.55137   0.00000  Uiso   1.00
H443   H     0.55411   0.21578   0.38329   0.00000  Uiso   1.00
H444   H     0.44589   0.11755   0.61671   0.00000  Uiso   1.00
H445   H     0.55408   0.21575   0.63221   0.00000  Uiso   1.00
H446   H     0.44592   0.11758   0.36779   0.00000  Uiso   1.00
N447   N     0.49999   0.16666   0.61907   0.00000  Uiso   1.00
N448   N     0.50001   0.16668   0.38093   0.00000  Uiso   1.00
N449   N     0.63905   0.13613   0.40050   0.00000  Uiso   1.00
N450   N     0.36095   0.19720   0.59950   0.00000  Uiso   1.00
N451   N     0.58523   0.05449   0.41545   0.00000  Uiso   1.00
N452   N     0.41477   0.27884   0.58455   0.00000  Uiso   1.00
O453   O     0.50000   0.10558   0.53821   0.00000  Uiso   1.00
O454   O     0.50000   0.22775   0.46179   0.00000  Uiso   1.00
O455   O     0.50000   0.10559   0.46176   0.00000  Uiso   1.00
O456   O     0.50000   0.22774   0.53824   0.00000  Uiso   1.00
O457   O     0.42392   0.16666   0.52928   0.00000  Uiso   1.00
O458   O     0.57608   0.16667   0.47072   0.00000  Uiso   1.00
O459   O     0.42392   0.16667   0.45284   0.00000  Uiso   1.00
O460   O     0.57608   0.16666   0.54716   0.00000  Uiso   1.00
Zn461  Zn    0.50000   0.16666   0.55104   0.00000  Uiso   1.00
Zn462  Zn    0.50000   0.16667   0.44896   0.00000  Uiso   1.00
C463   C     0.83439   0.08670   0.49986   0.00000  Uiso   1.00
C464   C     0.80613   0.02282   0.52925   0.00000  Uiso   1.00
C465   C     0.83204   0.29079   0.50057   0.00000  Uiso   1.00
C466   C     0.83462   0.04255   0.49943   0.00000  Uiso   1.00
C467   C     0.86337   0.19399   0.36163   0.00000  Uiso   1.00
C468   C     0.80329   0.13934   0.63837   0.00000  Uiso   1.00
C469   C     0.86338   0.19397   0.64698   0.00000  Uiso   1.00
C470   C     0.80329   0.13937   0.35302   0.00000  Uiso   1.00
C471   C     0.99010   0.14787   0.43666   0.00000  Uiso   1.00
C472   C     0.67657   0.18546   0.56334   0.00000  Uiso   1.00
C473   C     0.89350   0.03923   0.43975   0.00000  Uiso   1.00
C474   C     0.83228   0.24664   0.50014   0.00000  Uiso   1.00
C475   C     0.77316   0.29411   0.56025   0.00000  Uiso   1.00
C476   C     0.73394   0.16669   0.48819   0.00000  Uiso   1.00
C477   C     0.93273   0.16664   0.51181   0.00000  Uiso   1.00
C478   C     0.67968   0.16294   0.48203   0.00000  Uiso   1.00
C479   C     0.98698   0.17040   0.51797   0.00000  Uiso   1.00
C480   C     0.86217   0.01989   0.46994   0.00000  Uiso   1.00
C481   C     0.80449   0.31344   0.53006   0.00000  Uiso   1.00
C482   C     0.86053   0.31051   0.47075   0.00000  Uiso   1.00
H483   H     0.88217   0.29251   0.44863   0.00000  Uiso   1.00
H484   H     0.78450   0.04082   0.55137   0.00000  Uiso   1.00
H485   H     0.88744   0.21578   0.38329   0.00000  Uiso   1.00
H486   H     0.77923   0.11755   0.61671   0.00000  Uiso   1.00
H487   H     0.88742   0.21575   0.63221   0.00000  Uiso   1.00
H488   H     0.77925   0.11758   0.36779   0.00000  Uiso   1.00
N489   N     0.83332   0.16666   0.61907   0.00000  Uiso   1.00
N490   N     0.83335   0.16668   0.38093   0.00000  Uiso   1.00
N491   N     0.97239   0.13613   0.40050   0.00000  Uiso   1.00
N492   N     0.69428   0.19720   0.59950   0.00000  Uiso   1.00
N493   N     0.91857   0.05449   0.41545   0.00000  Uiso   1.00
N494   N     0.74810   0.27884   0.58455   0.00000  Uiso   1.00
O495   O     0.83333   0.10558   0.53821   0.00000  Uiso   1.00
O496   O     0.83334   0.22775   0.46179   0.00000  Uiso   1.00
O497   O     0.83333   0.10559   0.46176   0.00000  Uiso   1.00
O498   O     0.83334   0.22774   0.53824   0.00000  Uiso   1.00
O499   O     0.75725   0.16666   0.52928   0.00000  Uiso   1.00
O500   O     0.90942   0.16667   0.47072   0.00000  Uiso   1.00
O501   O     0.75725   0.16667   0.45284   0.00000  Uiso   1.00
O502   O     0.90942   0.16666   0.54716   0.00000  Uiso   1.00
Zn503  Zn    0.83333   0.16666   0.55104   0.00000  Uiso   1.00
Zn504  Zn    0.83333   0.16667   0.44896   0.00000  Uiso   1.00
C505   C     0.16772   0.42003   0.49986   0.00000  Uiso   1.00
C506   C     0.13947   0.35616   0.52925   0.00000  Uiso   1.00
C507   C     0.16538   0.62412   0.50057   0.00000  Uiso   1.00
C508   C     0.16796   0.37588   0.49943   0.00000  Uiso   1.00
C509   C     0.19671   0.52732   0.36163   0.00000  Uiso   1.00
C510   C     0.13663   0.47268   0.63837   0.00000  Uiso   1.00
C511   C     0.19671   0.52730   0.64698   0.00000  Uiso   1.00
C512   C     0.13662   0.47270   0.35302   0.00000  Uiso   1.00
C513   C     0.32343   0.48120   0.43666   0.00000  Uiso   1.00
C514   C     0.00990   0.51880   0.56334   0.00000  Uiso   1.00
C515   C     0.22684   0.37256   0.43975   0.00000  Uiso   1.00
C516   C     0.16561   0.57997   0.50014   0.00000  Uiso   1.00
C517   C     0.10650   0.62744   0.56025   0.00000  Uiso   1.00
C518   C     0.06727   0.50003   0.48819   0.00000  Uiso   1.00
C519   C     0.26606   0.49997   0.51181   0.00000  Uiso   1.00
C520   C     0.01302   0.49627   0.48203   0.00000  Uiso   1.00
C521   C     0.32031   0.50373   0.51797   0.00000  Uiso   1.00
C522   C     0.19551   0.35322   0.46994   0.00000  Uiso   1.00
C523   C     0.13783   0.64678   0.53006   0.00000  Uiso   1.00
C524   C     0.19387   0.64384   0.47075   0.00000  Uiso   1.00
H525   H     0.21550   0.62584   0.44863   0.00000  Uiso   1.00
H526   H     0.11783   0.37416   0.55137   0.00000  Uiso   1.00
H527   H     0.22077   0.54911   0.38329   0.00000  Uiso   1.00
H528   H     0.11256   0.45089   0.61671   0.00000  Uiso   1.00
H529   H     0.22075   0.54909   0.63221   0.00000  Uiso   1.00
H530   H     0.11258   0.45091   0.36779   0.00000  Uiso   1.00
N531   N     0.16665   0.49999   0.61907   0.00000  Uiso   1.00
N532   N     0.16668   0.50001   0.38093   0.00000  Uiso   1.00
N533   N     0.30572   0.46946   0.40050   0.00000  Uiso   1.00
N534   N     0.02761   0.53054   0.59950   0.00000  Uiso   1.00
N535   N     0.25190   0.38783   0.41545   0.00000  Uiso   1.00
N536   N     0.08143   0.61217   0.58455   0.00000  Uiso   1.00
O537   O     0.16666   0.43892   0.53821   0.00000  Uiso   1.00
O538   O     0.16667   0.56108   0.46179   0.00000  Uiso   1.00
O539   O     0.16666   0.43893   0.46176   0.00000  Uiso   1.00
O540   O     0.16667   0.56107   0.53824   0.00000  Uiso   1.00
O541   O     0.09058   0.50000   0.52928   0.00000  Uiso   1.00
O542   O     0.24275   0.50000   0.47072   0.00000  Uiso   1.00
O543   O     0.09058   0.50000   0.45284   0.00000  Uiso   1.00
O544   O     0.24275   0.50000   0.54716   0.00000  Uiso   1.00
Zn545  Zn    0.16667   0.49999   0.55104   0.00000  Uiso   1.00
Zn546  Zn    0.16667   0.50001   0.44896   0.00000  Uiso   1.00
C547   C     0.50105   0.42003   0.49986   0.00000  Uiso   1.00
C548   C     0.47280   0.35616   0.52925   0.00000  Uiso   1.00
C549   C     0.49871   0.62412   0.50057   0.00000  Uiso   1.00
C550   C     0.50129   0.37588   0.49943   0.00000  Uiso   1.00
C551   C     0.53004   0.52732   0.36163   0.00000  Uiso   1.00
C552   C     0.46996   0.47268   0.63837   0.00000  Uiso   1.00
C553   C     0.53004   0.52730   0.64698   0.00000  Uiso   1.00
C554   C     0.46996   0.47270   0.35302   0.00000  Uiso   1.00
C555   C     0.65677   0.48120   0.43666   0.00000  Uiso   1.00
C556   C     0.34323   0.51880   0.56334   0.00000  Uiso   1.00
C557   C     0.56017   0.37256   0.43975   0.00000  Uiso   1.00
C558   C     0.49895   0.57997   0.50014   0.00000  Uiso   1.00
C559   C     0.43983   0.62744   0.56025   0.00000  Uiso   1.00
C560   C     0.40061   0.50003   0.48819   0.00000  Uiso   1.00
C561   C     0.59939   0.49997   0.51181   0.00000  Uiso   1.00
C562   C     0.34635   0.49627   0.48203   0.00000  Uiso   1.00
C563   C     0.65365   0.50373   0.51797   0.00000  Uiso   1.00
C564   C     0.52884   0.35322   0.46994   0.00000  Uiso   1.00
C565   C     0.47116   0.64678   0.53006   0.00000  Uiso   1.00
C566   C     0.52720   0.64384   0.47075   0.00000  Uiso   1.00
H567   H     0.54884   0.62584   0.44863   0.00000  Uiso   1.00
H568   H     0.45116   0.37416   0.55137   0.00000  Uiso   1.00
H569   H     0.55411   0.54911   0.38329   0.00000  Uiso   1.00
H570   H     0.44589   0.45089   0.61671   0.00000  Uiso   1.00
H571   H     0.55408   0.54909   0.63221   0.00000  Uiso   1.00
H572   H     0.44592   0.45091   0.36779   0.00000  Uiso   1.00
N573   N     0.49999   0.49999   0.61907   0.00000  Uiso   1.00
N574   N     0.50001   0.50001   0.38093   0.00000  Uiso   1.00
N575   N     0.63905   0.46946   0.40050   0.00000  Uiso   1.00
N576   N     0.36095   0.53054   0.59950   0.00000  Uiso   1.00
N577   N     0.58523   0.38783   0.41545   0.00000  Uiso   1.00
N578   N     0.41477   0.61217   0.58455   0.00000  Uiso   1.00
O579   O     0.50000   0.43892   0.53821   0.00000  Uiso   1.00
O580   O     0.50000   0.56108   0.46179   0.00000  Uiso   1.00
O581   O     0.50000   0.43893   0.46176   0.00000  Uiso   1.00
O582   O     0.50000   0.56107   0.53824   0.00000  Uiso   1.00
O583   O     0.42392   0.50000   0.52928   0.00000  Uiso   1.00
O584   O     0.57608   0.50000   0.47072   0.00000  Uiso   1.00
O585   O     0.42392   0.50000   0.45284   0.00000  Uiso   1.00
O586   O     0.57608   0.50000   0.54716   0.00000  Uiso   1.00
Zn587  Zn    0.50000   0.49999   0.55104   0.00000  Uiso   1.00
Zn588  Zn    0.50000   0.50001   0.44896   0.00000  Uiso   1.00
C589   C     0.83439   0.42003   0.49986   0.00000  Uiso   1.00
C590   C     0.80613   0.35616   0.52925   0.00000  Uiso   1.00
C591   C     0.83204   0.62412   0.50057   0.00000  Uiso   1.00
C592   C     0.83462   0.37588   0.49943   0.00000  Uiso   1.00
C593   C     0.86337   0.52732   0.36163   0.00000  Uiso   1.00
C594   C     0.80329   0.47268   0.63837   0.00000  Uiso   1.00
C595   C     0.86338   0.52730   0.64698   0.00000  Uiso   1.00
C596   C     0.80329   0.47270   0.35302   0.00000  Uiso   1.00
C597   C     0.99010   0.48120   0.43666   0.00000  Uiso   1.00
C598   C     0.67657   0.51880   0.56334   0.00000  Uiso   1.00
C599   C     0.89350   0.37256   0.43975   0.00000  Uiso   1.00
C600   C     0.83228   0.57997   0.50014   0.00000  Uiso   1.00
C601   C     0.77316   0.62744   0.56025   0.00000  Uiso   1.00
C602   C     0.73394   0.50003   0.48819   0.00000  Uiso   1.00
C603   C     0.93273   0.49997   0.51181   0.00000  Uiso   1.00
C604   C     0.67968   0.49627   0.48203   0.00000  Uiso   1.00
C605   C     0.98698   0.50373   0.51797   0.00000  Uiso   1.00
C606   C     0.86217   0.35322   0.46994   0.00000  Uiso   1.00
C607   C     0.80449   0.64678   0.53006   0.00000  Uiso   1.00
C608   C     0.86053   0.64384   0.47075   0.00000  Uiso   1.00
H609   H     0.88217   0.62584   0.44863   0.00000  Uiso   1.00
H610   H     0.78450   0.37416   0.55137   0.00000  Uiso   1.00
H611   H     0.88744   0.54911   0.38329   0.00000  Uiso   1.00
H612   H     0.77923   0.45089   0.61671   0.00000  Uiso   1.00
H613   H     0.88742   0.54909   0.63221   0.00000  Uiso   1.00
H614   H     0.77925   0.45091   0.36779   0.00000  Uiso   1.00
N615   N     0.83332   0.49999   0.61907   0.00000  Uiso   1.00
N616   N     0.83335   0.50001   0.38093   0.00000  Uiso   1.00
N617   N     0.97239   0.46946   0.40050   0.00000  Uiso   1.00
N618   N     0.69428   0.53054   0.59950   0.00000  Uiso   1.00
N619   N     0.91857   0.38783   0.41545   0.00000  Uiso   1.00
N620   N     0.74810   0.61217   0.58455   0.00000  Uiso   1.00
O621   O     0.83333   0.43892   0.53821   0.00000  Uiso   1.00
O622   O     0.83334   0.56108   0.46179   0.00000  Uiso   1.00
O623   O     0.83333   0.43893   0.46176   0.00000  Uiso   1.00
O624   O     0.83334   0.56107   0.53824   0.00000  Uiso   1.00
O625   O     0.75725   0.50000   0.52928   0.00000  Uiso   1.00
O626   O     0.90942   0.50000   0.47072   0.00000  Uiso   1.00
O627   O     0.75725   0.50000   0.45284   0.00000  Uiso   1.00
O628   O     0.90942   0.50000   0.54716   0.00000  Uiso   1.00
Zn629  Zn    0.83333   0.49999   0.55104   0.00000  Uiso   1.00
Zn630  Zn    0.83333   0.50001   0.44896   0.00000  Uiso   1.00
C631   C     0.16772   0.75336   0.49986   0.00000  Uiso   1.00
C632   C     0.13947   0.68949   0.52925   0.00000  Uiso   1.00
C633   C     0.16538   0.95745   0.50057   0.00000  Uiso   1.00
C634   C     0.16796   0.70921   0.49943   0.00000  Uiso   1.00
C635   C     0.19671   0.86066   0.36163   0.00000  Uiso   1.00
C636   C     0.13663   0.80601   0.63837   0.00000  Uiso   1.00
C637   C     0.19671   0.86063   0.64698   0.00000  Uiso   1.00
C638   C     0.13662   0.80603   0.35302   0.00000  Uiso   1.00
C639   C     0.32343   0.81454   0.43666   0.00000  Uiso   1.00
C640   C     0.00990   0.85213   0.56334   0.00000  Uiso   1.00
C641   C     0.22684   0.70589   0.43975   0.00000  Uiso   1.00
C642   C     0.16561   0.91330   0.50014   0.00000  Uiso   1.00
C643   C     0.10650   0.96077   0.56025   0.00000  Uiso   1.00
C644   C     0.06727   0.83336   0.48819   0.00000  Uiso   1.00
C645   C     0.26606   0.83331   0.51181   0.00000  Uiso   1.00
C646   C     0.01302   0.82960   0.48203   0.00000  Uiso   1.00
C647   C     0.32031   0.83706   0.51797   0.00000  Uiso   1.00
C648   C     0.19551   0.68656   0.46994   0.00000  Uiso   1.00
C649   C     0.13783   0.98011   0.53006   0.00000  Uiso   1.00
C650   C     0.19387   0.97718   0.47075   0.00000  Uiso   1.00
H651   H     0.21550   0.95918   0.44863   0.00000  Uiso   1.00
H652   H     0.11783   0.70749   0.55137   0.00000  Uiso   1.00
H653   H     0.22077   0.88245   0.38329   0.00000  Uiso   1.00
H654   H     0.11256   0.78422   0.61671   0.00000  Uiso   1.00
H655   H     0.22075   0.88242   0.63221   0.00000  Uiso   1.00
H656   H     0.11258   0.78425   0.36779   0.00000  Uiso   1.00
N657   N     0.16665   0.83332   0.61907   0.00000  Uiso   1.00
N658   N     0.16668   0.83334   0.38093   0.00000  Uiso   1.00
N659   N     0.30572   0.80280   0.40050   0.00000  Uiso   1.00
N660   N     0.02761   0.86387   0.59950   0.00000  Uiso   1.00
N661   N     0.25190   0.72116   0.41545   0.00000  Uiso   1.00
N662   N     0.08143   0.94551   0.58455   0.00000  Uiso   1.00
O663   O     0.16666   0.77225   0.53821   0.00000  Uiso   1.00
O664   O     0.16667   0.89442   0.46179   0.00000  Uiso   1.00
O665   O     0.16666   0.77226   0.46176   0.00000  Uiso   1.00
O666   O     0.16667   0.89441   0.53824   0.00000  Uiso   1.00
O667   O     0.09058   0.83333   0.52928   0.00000  Uiso   1.00
O668   O     0.24275   0.83334   0.47072   0.00000  Uiso   1.00
O669   O     0.09058   0.83334   0.45284   0.00000  Uiso   1.00
O670   O     0.24275   0.83333   0.54716   0.00000  Uiso   1.00
Zn671  Zn    0.16667   0.83333   0.55104   0.00000  Uiso   1.00
Zn672  Zn    0.16667   0.83334   0.44896   0.00000  Uiso   1.00
C673   C     0.50105   0.75336   0.49986   0.00000  Uiso   1.00
C674   C     0.47280   0.68949   0.52925   0.00000  Uiso   1.00
C675   C     0.49871   0.95745   0.50057   0.00000  Uiso   1.00
C676   C     0.50129   0.70921   0.49943   0.00000  Uiso   1.00
C677   C     0.53004   0.86066   0.36163   0.00000  Uiso   1.00
C678   C     0.46996   0.80601   0.63837   0.00000  Uiso   1.00
C679   C     0.53004   0.86063   0.64698   0.00000  Uiso   1.00
C680   C     0.46996   0.80603   0.35302   0.00000  Uiso   1.00
C681   C     0.65677   0.81454   0.43666   0.00000  Uiso   1.00
C682   C     0.34323   0.85213   0.56334   0.00000  Uiso   1.00
C683   C     0.56017   0.70589   0.43975   0.00000  Uiso   1.00
C684   C     0.49895   0.91330   0.50014   0.00000  Uiso   1.00
C685   C     0.43983   0.96077   0.56025   0.00000  Uiso   1.00
C686   C     0.40061   0.83336   0.48819   0.00000  Uiso   1.00
C687   C     0.59939   0.83331   0.51181   0.00000  Uiso   1.00
C688   C     0.34635   0.82960   0.48203   0.00000  Uiso   1.00
C689   C     0.65365   0.83706   0.51797   0.00000  Uiso   1.00
C690   C     0.52884   0.68656   0.46994   0.00000  Uiso   1.00
C691   C     0.47116   0.98011   0.53006   0.00000  Uiso   1.00
C692   C     0.52720   0.97718   0.47075   0.00000  Uiso   1.00
H693   H     0.54884   0.95918   0.44863   0.00000  Uiso   1.00
H694   H     0.45116   0.70749   0.55137   0.00000  Uiso   1.00
H695   H     0.55411   0.88245   0.38329   0.00000  Uiso   1.00
H696   H     0.44589   0.78422   0.61671   0.00000  Uiso   1.00
H697   H     0.55408   0.88242   0.63221   0.00000  Uiso   1.00
H698   H     0.44592   0.78425   0.36779   0.00000  Uiso   1.00
N699   N     0.49999   0.83332   0.61907   0.00000  Uiso   1.00
N700   N     0.50001   0.83334   0.38093   0.00000  Uiso   1.00
N701   N     0.63905   0.80280   0.40050   0.00000  Uiso   1.00
N702   N     0.36095   0.86387   0.59950   0.00000  Uiso   1.00
N703   N     0.58523   0.72116   0.41545   0.00000  Uiso   1.00
N704   N     0.41477   0.94551   0.58455   0.00000  Uiso   1.00
O705   O     0.50000   0.77225   0.53821   0.00000  Uiso   1.00
O706   O     0.50000   0.89442   0.46179   0.00000  Uiso   1.00
O707   O     0.50000   0.77226   0.46176   0.00000  Uiso   1.00
O708   O     0.50000   0.89441   0.53824   0.00000  Uiso   1.00
O709   O     0.42392   0.83333   0.52928   0.00000  Uiso   1.00
O710   O     0.57608   0.83334   0.47072   0.00000  Uiso   1.00
O711   O     0.42392   0.83334   0.45284   0.00000  Uiso   1.00
O712   O     0.57608   0.83333   0.54716   0.00000  Uiso   1.00
Zn713  Zn    0.50000   0.83333   0.55104   0.00000  Uiso   1.00
Zn714  Zn    0.50000   0.83334   0.44896   0.00000  Uiso   1.00
C715   C     0.83439   0.75336   0.49986   0.00000  Uiso   1.00
C716   C     0.80613   0.68949   0.52925   0.00000  Uiso   1.00
C717   C     0.83204   0.95745   0.50057   0.00000  Uiso   1.00
C718   C     0.83462   0.70921   0.49943   0.00000  Uiso   1.00
C719   C     0.86337   0.86066   0.36163   0.00000  Uiso   1.00
C720   C     0.80329   0.80601   0.63837   0.00000  Uiso   1.00
C721   C     0.86338   0.86063   0.64698   0.00000  Uiso   1.00
C722   C     0.80329   0.80603   0.35302   0.00000  Uiso   1.00
C723   C     0.99010   0.81454   0.43666   0.00000  Uiso   1.00
C724   C     0.67657   0.85213   0.56334   0.00000  Uiso   1.00
C725   C     0.89350   0.70589   0.43975   0.00000  Uiso   1.00
C726   C     0.83228   0.91330   0.50014   0.00000  Uiso   1.00
C727   C     0.77316   0.96077   0.56025   0.00000  Uiso   1.00
C728   C     0.73394   0.83336   0.48819   0.00000  Uiso   1.00
C729   C     0.93273   0.83331   0.51181   0.00000  Uiso   1.00
C730   C     0.67968   0.82960   0.48203   0.00000  Uiso   1.00
C731   C     0.98698   0.83706   0.51797   0.00000  Uiso   1.00
C732   C     0.86217   0.68656   0.46994   0.00000  Uiso   1.00
C733   C     0.80449   0.98011   0.53006   0.00000  Uiso   1.00
C734   C     0.86053   0.97718   0.47075   0.00000  Uiso   1.00
H735   H     0.88217   0.95918   0.44863   0.00000  Uiso   1.00
H736   H     0.78450   0.70749   0.55137   0.00000  Uiso   1.00
H737   H     0.88744   0.88245   0.38329   0.00000  Uiso   1.00
H738   H     0.77923   0.78422   0.61671   0.00000  Uiso   1.00
H739   H     0.88742   0.88242   0.63221   0.00000  Uiso   1.00
H740   H     0.77925   0.78425   0.36779   0.00000  Uiso   1.00
N741   N     0.83332   0.83332   0.61907   0.00000  Uiso   1.00
N742   N     0.83335   0.83334   0.38093   0.00000  Uiso   1.00
N743   N     0.97239   0.80280   0.40050   0.00000  Uiso   1.00
N744   N     0.69428   0.86387   0.59950   0.00000  Uiso   1.00
N745   N     0.91857   0.72116   0.41545   0.00000  Uiso   1.00
N746   N     0.74810   0.94551   0.58455   0.00000  Uiso   1.00
O747   O     0.83333   0.77225   0.53821   0.00000  Uiso   1.00
O748   O     0.83334   0.89442   0.46179   0.00000  Uiso   1.00
O749   O     0.83333   0.77226   0.46176   0.00000  Uiso   1.00
O750   O     0.83334   0.89441   0.53824   0.00000  Uiso   1.00
O751   O     0.75725   0.83333   0.52928   0.00000  Uiso   1.00
O752   O     0.90942   0.83334   0.47072   0.00000  Uiso   1.00
O753   O     0.75725   0.83334   0.45284   0.00000  Uiso   1.00
O754   O     0.90942   0.83333   0.54716   0.00000  Uiso   1.00
Zn755  Zn    0.83333   0.83333   0.55104   0.00000  Uiso   1.00
Zn756  Zn    0.83333   0.83334   0.44896   0.00000  Uiso   1.00
C757   C     0.16772   0.08670   0.83319   0.00000  Uiso   1.00
C758   C     0.13947   0.02282   0.86259   0.00000  Uiso   1.00
C759   C     0.16538   0.29079   0.83391   0.00000  Uiso   1.00
C760   C     0.16796   0.04255   0.83276   0.00000  Uiso   1.00
C761   C     0.19671   0.19399   0.69497   0.00000  Uiso   1.00
C762   C     0.13663   0.13934   0.97170   0.00000  Uiso   1.00
C763   C     0.19671   0.19397   0.98031   0.00000  Uiso   1.00
C764   C     0.13662   0.13937   0.68636   0.00000  Uiso   1.00
C765   C     0.32343   0.14787   0.76999   0.00000  Uiso   1.00
C766   C     0.00990   0.18546   0.89667   0.00000  Uiso   1.00
C767   C     0.22684   0.03923   0.77308   0.00000  Uiso   1.00
C768   C     0.16561   0.24664   0.83348   0.00000  Uiso   1.00
C769   C     0.10650   0.29411   0.89358   0.00000  Uiso   1.00
C770   C     0.06727   0.16669   0.82152   0.00000  Uiso   1.00
C771   C     0.26606   0.16664   0.84514   0.00000  Uiso   1.00
C772   C     0.01302   0.16294   0.81536   0.00000  Uiso   1.00
C773   C     0.32031   0.17040   0.85130   0.00000  Uiso   1.00
C774   C     0.19551   0.01989   0.80327   0.00000  Uiso   1.00
C775   C     0.13783   0.31344   0.86340   0.00000  Uiso   1.00
C776   C     0.19387   0.31051   0.80408   0.00000  Uiso   1.00
H777   H     0.21550   0.29251   0.78196   0.00000  Uiso   1.00
H778   H     0.11783   0.04082   0.88470   0.00000  Uiso   1.00
H779   H     0.22077   0.21578   0.71663   0.00000  Uiso   1.00
H780   H     0.11256   0.11755   0.95004   0.00000  Uiso   1.00
H781   H     0.22075   0.21575   0.96554   0.00000  Uiso   1.00
H782   H     0.11258   0.11758   0.70113   0.00000  Uiso   1.00
N783   N     0.16665   0.16666   0.95240   0.00000  Uiso   1.00
N784   N     0.16668   0.16668   0.71427   0.00000  Uiso   1.00
N785   N     0.30572   0.13613   0.73383   0.00000  Uiso   1.00
N786   N     0.02761   0.19720   0.93284   0.00000  Uiso   1.00
N787   N     0.25190   0.05449   0.74878   0.00000  Uiso   1.00
N788   N     0.08143   0.27884   0.91788   0.00000  Uiso   1.00
O789   O     0.16666   0.10558   0.87154   0.00000  Uiso   1.00
O790   O     0.16667   0.22775   0.79513   0.00000  Uiso   1.00
O791   O     0.16666   0.10559   0.79510   0.00000  Uiso   1.00
O792   O     0.16667   0.22774   0.87157   0.00000  Uiso   1.00
O793   O     0.09058   0.16666   0.86261   0.00000  Uiso   1.00
O794   O     0.24275   0.16667   0.80405   0.00000  Uiso   1.00
O795   O     0.09058   0.16667   0.78617   0.00000  Uiso   1.00
O796   O     0.24275   0.16666   0.88050   0.00000  Uiso   1.00
Zn797  Zn    0.16667   0.16666   0.88437   0.00000  Uiso   1.00
Zn798  Zn    0.16667   0.16667   0.78229   0.00000  Uiso   1.00
C799   C     0.50105   0.08670   0.83319   0.00000  Uiso   1.00
C800   C     0.47280   0.02282   0.86259   0.00000  Uiso   1.00
C801   C     0.49871   0.29079   0.83391   0.00000  Uiso   1.00
C802   C     0.50129   0.04255   0.83276   0.00000  Uiso   1.00
C803   C     0.53004   0.19399   0.69497   0.00000  Uiso   1.00
C804   C     0.46996   0.13934   0.97170   0.00000  Uiso   1.00
C805   C     0.53004   0.19397   0.98031   0.00000  Uiso   1.00
C806   C     0.46996   0.13937   0.68636   0.00000  Uiso   1.00
C807   C     0.65677   0.14787   0.76999   0.00000  Uiso   1.00
C808   C     0.34323   0.18546   0.89667   0.00000  Uiso   1.00
C809   C     0.56017   0.03923   0.77308   0.00000  Uiso   1.00
C810   C     0.49895   0.24664   0.83348   0.00000  Uiso   1.00
C811   C     0.43983   0.29411   0.89358   0.00000  Uiso   1.00
C812   C     0.40061   0.16669   0.82152   0.00000  Uiso   1.00
C813   C     0.59939   0.16664   0.84514   0.00000  Uiso   1.00
C814   C     0.34635   0.16294   0.81536   0.00000  Uiso   1.00
C815   C     0.65365   0.17040   0.85130   0.00000  Uiso   1.00
C816   C     0.52884   0.01989   0.80327   0.00000  Uiso   1.00
C817   C     0.47116   0.31344   0.86340   0.00000  Uiso   1.00
C818   C     0.52720   0.31051   0.80408   0.00000  Uiso   1.00
H819   H     0.54884   0.29251   0.78196   0.00000  Uiso   1.00
H820   H     0.45116   0.04082   0.88470   0.00000  Uiso   1.00
H821   H     0.55411   0.21578   0.71663   0.00000  Uiso   1.00
H822   H     0.44589   0.11755   0.95004   0.00000  Uiso   1.00
H823   H     0.55408   0.21575   0.96554   0.00000  Uiso   1.00
H824   H     0.44592   0.11758   0.70113   0.00000  Uiso   1.00
N825   N     0.49999   0.16666   0.95240   0.00000  Uiso   1.00
N826   N     0.50001   0.16668   0.71427   0.00000  Uiso   1.00
N827   N     0.63905   0.13613   0.73383   0.00000  Uiso   1.00
N828   N     0.36095   0.19720   0.93284   0.00000  Uiso   1.00
N829   N     0.58523   0.05449   0.74878   0.00000  Uiso   1.00
N830   N     0.41477   0.27884   0.91788   0.00000  Uiso   1.00
O831   O     0.50000   0.10558   0.87154   0.00000  Uiso   1.00
O832   O     0.50000   0.22775   0.79513   0.00000  Uiso   1.00
O833   O     0.50000   0.10559   0.79510   0.00000  Uiso   1.00
O834   O     0.50000   0.22774   0.87157   0.00000  Uiso   1.00
O835   O     0.42392   0.16666   0.86261   0.00000  Uiso   1.00
O836   O     0.57608   0.16667   0.80405   0.00000  Uiso   1.00
O837   O     0.42392   0.16667   0.78617   0.00000  Uiso   1.00
O838   O     0.57608   0.16666   0.88050   0.00000  Uiso   1.00
Zn839  Zn    0.50000   0.16666   0.88437   0.00000  Uiso   1.00
Zn840  Zn    0.50000   0.16667   0.78229   0.00000  Uiso   1.00
C841   C     0.83439   0.08670   0.83319   0.00000  Uiso   1.00
C842   C     0.80613   0.02282   0.86259   0.00000  Uiso   1.00
C843   C     0.83204   0.29079   0.83391   0.00000  Uiso   1.00
C844   C     0.83462   0.04255   0.83276   0.00000  Uiso   1.00
C845   C     0.86337   0.19399   0.69497   0.00000  Uiso   1.00
C846   C     0.80329   0.13934   0.97170   0.00000  Uiso   1.00
C847   C     0.86338   0.19397   0.98031   0.00000  Uiso   1.00
C848   C     0.80329   0.13937   0.68636   0.00000  Uiso   1.00
C849   C     0.99010   0.14787   0.76999   0.00000  Uiso   1.00
C850   C     0.67657   0.18546   0.89667   0.00000  Uiso   1.00
C851   C     0.89350   0.03923   0.77308   0.00000  Uiso   1.00
C852   C     0.83228   0.24664   0.83348   0.00000  Uiso   1.00
C853   C     0.77316   0.29411   0.89358   0.00000  Uiso   1.00
C854   C     0.73394   0.16669   0.82152   0.00000  Uiso   1.00
C855   C     0.93273   0.16664   0.84514   0.00000  Uiso   1.00
C856   C     0.67968   0.16294   0.81536   0.00000  Uiso   1.00
C857   C     0.98698   0.17040   0.85130   0.00000  Uiso   1.00
C858   C     0.86217   0.01989   0.80327   0.00000  Uiso   1.00
C859   C     0.80449   0.31344   0.86340   0.00000  Uiso   1.00
C860   C     0.86053   0.31051   0.80408   0.00000  Uiso   1.00
H861   H     0.88217   0.29251   0.78196   0.00000  Uiso   1.00
H862   H     0.78450   0.04082   0.88470   0.00000  Uiso   1.00
H863   H     0.88744   0.21578   0.71663   0.00000  Uiso   1.00
H864   H     0.77923   0.11755   0.95004   0.00000  Uiso   1.00
H865   H     0.88742   0.21575   0.96554   0.00000  Uiso   1.00
H866   H     0.77925   0.11758   0.70113   0.00000  Uiso   1.00
N867   N     0.83332   0.16666   0.95240   0.00000  Uiso   1.00
N868   N     0.83335   0.16668   0.71427   0.00000  Uiso   1.00
N869   N     0.97239   0.13613   0.73383   0.00000  Uiso   1.00
N870   N     0.69428   0.19720   0.93284   0.00000  Uiso   1.00
N871   N     0.91857   0.05449   0.74878   0.00000  Uiso   1.00
N872   N     0.74810   0.27884   0.91788   0.00000  Uiso   1.00
O873   O     0.83333   0.10558   0.87154   0.00000  Uiso   1.00
O874   O     0.83334   0.22775   0.79513   0.00000  Uiso   1.00
O875   O     0.83333   0.10559   0.79510   0.00000  Uiso   1.00
O876   O     0.83334   0.22774   0.87157   0.00000  Uiso   1.00
O877   O     0.75725   0.16666   0.86261   0.00000  Uiso   1.00
O878   O     0.90942   0.16667   0.80405   0.00000  Uiso   1.00
O879   O     0.75725   0.16667   0.78617   0.00000  Uiso   1.00
O880   O     0.90942   0.16666   0.88050   0.00000  Uiso   1.00
Zn881  Zn    0.83333   0.16666   0.88437   0.00000  Uiso   1.00
Zn882  Zn    0.83333   0.16667   0.78229   0.00000  Uiso   1.00
C883   C     0.16772   0.42003   0.83319   0.00000  Uiso   1.00
C884   C     0.13947   0.35616   0.86259   0.00000  Uiso   1.00
C885   C     0.16538   0.62412   0.83391   0.00000  Uiso   1.00
C886   C     0.16796   0.37588   0.83276   0.00000  Uiso   1.00
C887   C     0.19671   0.52732   0.69497   0.00000  Uiso   1.00
C888   C     0.13663   0.47268   0.97170   0.00000  Uiso   1.00
C889   C     0.19671   0.52730   0.98031   0.00000  Uiso   1.00
C890   C     0.13662   0.47270   0.68636   0.00000  Uiso   1.00
C891   C     0.32343   0.48120   0.76999   0.00000  Uiso   1.00
C892   C     0.00990   0.51880   0.89667   0.00000  Uiso   1.00
C893   C     0.22684   0.37256   0.77308   0.00000  Uiso   1.00
C894   C     0.16561   0.57997   0.83348   0.00000  Uiso   1.00
C895   C     0.10650   0.62744   0.89358   0.00000  Uiso   1.00
C896   C     0.06727   0.50003   0.82152   0.00000  Uiso   1.00
C897   C     0.26606   0.49997   0.84514   0.00000  Uiso   1.00
C898   C     0.01302   0.49627   0.81536   0.00000  Uiso   1.00
C899   C     0.32031   0.50373   0.85130   0.00000  Uiso   1.00
C900   C     0.19551   0.35322   0.80327   0.00000  Uiso   1.00
C901   C     0.13783   0.64678   0.86340   0.00000  Uiso   1.00
C902   C     0.19387   0.64384   0.80408   0.00000  Uiso   1.00
H903   H     0.21550   0.62584   0.78196   0.00000  Uiso   1.00
H904   H     0.11783   0.37416   0.88470   0.00000  Uiso   1.00
H905   H     0.22077   0.54911   0.71663   0.00000  Uiso   1.00
H906   H     0.11256   0.45089   0.95004   0.00000  Uiso   1.00
H907   H     0.22075   0.54909   0.96554   0.00000  Uiso   1.00
H908   H     0.11258   0.45091   0.70113   0.00000  Uiso   1.00
N909   N     0.16665   0.49999   0.95240   0.00000  Uiso   1.00
N910   N     0.16668   0.50001   0.71427   0.00000  Uiso   1.00
N911   N     0.30572   0.46946   0.73383   0.00000  Uiso   1.00
N912   N     0.02761   0.53054   0.93284   0.00000  Uiso   1.00
N913   N     0.25190   0.38783   0.74878   0.00000  Uiso   1.00
N914   N     0.08143   0.61217   0.91788   0.00000  Uiso   1.00
O915   O     0.16666   0.43892   0.87154   0.00000  Uiso   1.00
O916   O     0.16667   0.56108   0.79513   0.00000  Uiso   1.00
O917   O     0.16666   0.43893   0.79510   0.00000  Uiso   1.00
O918   O     0.16667   0.56107   0.87157   0.00000  Uiso   1.00
O919   O     0.09058   0.50000   0.86261   0.00000  Uiso   1.00
O920   O     0.24275   0.50000   0.80405   0.00000  Uiso   1.00
O921   O     0.09058   0.50000   0.78617   0.00000  Uiso   1.00
O922   O     0.24275   0.50000   0.88050   0.00000  Uiso   1.00
Zn923  Zn    0.16667   0.49999   0.88437   0.00000  Uiso   1.00
Zn924  Zn    0.16667   0.50001   0.78229   0.00000  Uiso   1.00
C925   C     0.50105   0.42003   0.83319   0.00000  Uiso   1.00
C926   C     0.47280   0.35616   0.86259   0.00000  Uiso   1.00
C927   C     0.49871   0.62412   0.83391   0.00000  Uiso   1.00
C928   C     0.50129   0.37588   0.83276   0.00000  Uiso   1.00
C929   C     0.53004   0.52732   0.69497   0.00000  Uiso   1.00
C930   C     0.46996   0.47268   0.97170   0.00000  Uiso   1.00
C931   C     0.53004   0.52730   0.98031   0.00000  Uiso   1.00
C932   C     0.46996   0.47270   0.68636   0.00000  Uiso   1.00
C933   C     0.65677   0.48120   0.76999   0.00000  Uiso   1.00
C934   C     0.34323   0.51880   0.89667   0.00000  Uiso   1.00
C935   C     0.56017   0.37256   0.77308   0.00000  Uiso   1.00
C936   C     0.49895   0.57997   0.83348   0.00000  Uiso   1.00
C937   C     0.43983   0.62744   0.89358   0.00000  Uiso   1.00
C938   C     0.40061   0.50003   0.82152   0.00000  Uiso   1.00
C939   C     0.59939   0.49997   0.84514   0.00000  Uiso   1.00
C940   C     0.34635   0.49627   0.81536   0.00000  Uiso   1.00
C941   C     0.65365   0.50373   0.85130   0.00000  Uiso   1.00
C942   C     0.52884   0.35322   0.80327   0.00000  Uiso   1.00
C943   C     0.47116   0.64678   0.86340   0.00000  Uiso   1.00
C944   C     0.52720   0.64384   0.80408   0.00000  Uiso   1.00
H945   H     0.54884   0.62584   0.78196   0.00000  Uiso   1.00
H946   H     0.45116   0.37416   0.88470   0.00000  Uiso   1.00
H947   H     0.55411   0.54911   0.71663   0.00000  Uiso   1.00
H948   H     0.44589   0.45089   0.95004   0.00000  Uiso   1.00
H949   H     0.55408   0.54909   0.96554   0.00000  Uiso   1.00
H950   H     0.44592   0.45091   0.70113   0.00000  Uiso   1.00
N951   N     0.49999   0.49999   0.95240   0.00000  Uiso   1.00
N952   N     0.50001   0.50001   0.71427   0.00000  Uiso   1.00
N953   N     0.63905   0.46946   0.73383   0.00000  Uiso   1.00
N954   N     0.36095   0.53054   0.93284   0.00000  Uiso   1.00
N955   N     0.58523   0.38783   0.74878   0.00000  Uiso   1.00
N956   N     0.41477   0.61217   0.91788   0.00000  Uiso   1.00
O957   O     0.50000   0.43892   0.87154   0.00000  Uiso   1.00
O958   O     0.50000   0.56108   0.79513   0.00000  Uiso   1.00
O959   O     0.50000   0.43893   0.79510   0.00000  Uiso   1.00
O960   O     0.50000   0.56107   0.87157   0.00000  Uiso   1.00
O961   O     0.42392   0.50000   0.86261   0.00000  Uiso   1.00
O962   O     0.57608   0.50000   0.80405   0.00000  Uiso   1.00
O963   O     0.42392   0.50000   0.78617   0.00000  Uiso   1.00
O964   O     0.57608   0.50000   0.88050   0.00000  Uiso   1.00
Zn965  Zn    0.50000   0.49999   0.88437   0.00000  Uiso   1.00
Zn966  Zn    0.50000   0.50001   0.78229   0.00000  Uiso   1.00
C967   C     0.83439   0.42003   0.83319   0.00000  Uiso   1.00
C968   C     0.80613   0.35616   0.86259   0.00000  Uiso   1.00
C969   C     0.83204   0.62412   0.83391   0.00000  Uiso   1.00
C970   C     0.83462   0.37588   0.83276   0.00000  Uiso   1.00
C971   C     0.86337   0.52732   0.69497   0.00000  Uiso   1.00
C972   C     0.80329   0.47268   0.97170   0.00000  Uiso   1.00
C973   C     0.86338   0.52730   0.98031   0.00000  Uiso   1.00
C974   C     0.80329   0.47270   0.68636   0.00000  Uiso   1.00
C975   C     0.99010   0.48120   0.76999   0.00000  Uiso   1.00
C976   C     0.67657   0.51880   0.89667   0.00000  Uiso   1.00
C977   C     0.89350   0.37256   0.77308   0.00000  Uiso   1.00
C978   C     0.83228   0.57997   0.83348   0.00000  Uiso   1.00
C979   C     0.77316   0.62744   0.89358   0.00000  Uiso   1.00
C980   C     0.73394   0.50003   0.82152   0.00000  Uiso   1.00
C981   C     0.93273   0.49997   0.84514   0.00000  Uiso   1.00
C982   C     0.67968   0.49627   0.81536   0.00000  Uiso   1.00
C983   C     0.98698   0.50373   0.85130   0.00000  Uiso   1.00
C984   C     0.86217   0.35322   0.80327   0.00000  Uiso   1.00
C985   C     0.80449   0.64678   0.86340   0.00000  Uiso   1.00
C986   C     0.86053   0.64384   0.80408   0.00000  Uiso   1.00
H987   H     0.88217   0.62584   0.78196   0.00000  Uiso   1.00
H988   H     0.78450   0.37416   0.88470   0.00000  Uiso   1.00
H989   H     0.88744   0.54911   0.71663   0.00000  Uiso   1.00
H990   H     0.77923   0.45089   0.95004   0.00000  Uiso   1.00
H991   H     0.88742   0.54909   0.96554   0.00000  Uiso   1.00
H992   H     0.77925   0.45091   0.70113   0.00000  Uiso   1.00
N993   N     0.83332   0.49999   0.95240   0.00000  Uiso   1.00
N994   N     0.83335   0.50001   0.71427   0.00000  Uiso   1.00
N995   N     0.97239   0.46946   0.73383   0.00000  Uiso   1.00
N996   N     0.69428   0.53054   0.93284   0.00000  Uiso   1.00
N997   N     0.91857   0.38783   0.74878   0.00000  Uiso   1.00
N998   N     0.74810   0.61217   0.91788   0.00000  Uiso   1.00
O999   O     0.83333   0.43892   0.87154   0.00000  Uiso   1.00
O1000  O     0.83334   0.56108   0.79513   0.00000  Uiso   1.00
O1001  O     0.83333   0.43893   0.79510   0.00000  Uiso   1.00
O1002  O     0.83334   0.56107   0.87157   0.00000  Uiso   1.00
O1003  O     0.75725   0.50000   0.86261   0.00000  Uiso   1.00
O1004  O     0.90942   0.50000   0.80405   0.00000  Uiso   1.00
O1005  O     0.75725   0.50000   0.78617   0.00000  Uiso   1.00
O1006  O     0.90942   0.50000   0.88050   0.00000  Uiso   1.00
Zn1007 Zn    0.83333   0.49999   0.88437   0.00000  Uiso   1.00
Zn1008 Zn    0.83333   0.50001   0.78229   0.00000  Uiso   1.00
C1009  C     0.16772   0.75336   0.83319   0.00000  Uiso   1.00
C1010  C     0.13947   0.68949   0.86259   0.00000  Uiso   1.00
C1011  C     0.16538   0.95745   0.83391   0.00000  Uiso   1.00
C1012  C     0.16796   0.70921   0.83276   0.00000  Uiso   1.00
C1013  C     0.19671   0.86066   0.69497   0.00000  Uiso   1.00
C1014  C     0.13663   0.80601   0.97170   0.00000  Uiso   1.00
C1015  C     0.19671   0.86063   0.98031   0.00000  Uiso   1.00
C1016  C     0.13662   0.80603   0.68636   0.00000  Uiso   1.00
C1017  C     0.32343   0.81454   0.76999   0.00000  Uiso   1.00
C1018  C     0.00990   0.85213   0.89667   0.00000  Uiso   1.00
C1019  C     0.22684   0.70589   0.77308   0.00000  Uiso   1.00
C1020  C     0.16561   0.91330   0.83348   0.00000  Uiso   1.00
C1021  C     0.10650   0.96077   0.89358   0.00000  Uiso   1.00
C1022  C     0.06727   0.83336   0.82152   0.00000  Uiso   1.00
C1023  C     0.26606   0.83331   0.84514   0.00000  Uiso   1.00
C1024  C     0.01302   0.82960   0.81536   0.00000  Uiso   1.00
C1025  C     0.32031   0.83706   0.85130   0.00000  Uiso   1.00
C1026  C     0.19551   0.68656   0.80327   0.00000  Uiso   1.00
C1027  C     0.13783   0.98011   0.86340   0.00000  Uiso   1.00
C1028  C     0.19387   0.97718   0.80408   0.00000  Uiso   1.00
H1029  H     0.21550   0.95918   0.78196   0.00000  Uiso   1.00
H1030  H     0.11783   0.70749   0.88470   0.00000  Uiso   1.00
H1031  H     0.22077   0.88245   0.71663   0.00000  Uiso   1.00
H1032  H     0.11256   0.78422   0.95004   0.00000  Uiso   1.00
H1033  H     0.22075   0.88242   0.96554   0.00000  Uiso   1.00
H1034  H     0.11258   0.78425   0.70113   0.00000  Uiso   1.00
N1035  N     0.16665   0.83332   0.95240   0.00000  Uiso   1.00
N1036  N     0.16668   0.83334   0.71427   0.00000  Uiso   1.00
N1037  N     0.30572   0.80280   0.73383   0.00000  Uiso   1.00
N1038  N     0.02761   0.86387   0.93284   0.00000  Uiso   1.00
N1039  N     0.25190   0.72116   0.74878   0.00000  Uiso   1.00
N1040  N     0.08143   0.94551   0.91788   0.00000  Uiso   1.00
O1041  O     0.16666   0.77225   0.87154   0.00000  Uiso   1.00
O1042  O     0.16667   0.89442   0.79513   0.00000  Uiso   1.00
O1043  O     0.16666   0.77226   0.79510   0.00000  Uiso   1.00
O1044  O     0.16667   0.89441   0.87157   0.00000  Uiso   1.00
O1045  O     0.09058   0.83333   0.86261   0.00000  Uiso   1.00
O1046  O     0.24275   0.83334   0.80405   0.00000  Uiso   1.00
O1047  O     0.09058   0.83334   0.78617   0.00000  Uiso   1.00
O1048  O     0.24275   0.83333   0.88050   0.00000  Uiso   1.00
Zn1049 Zn    0.16667   0.83333   0.88437   0.00000  Uiso   1.00
Zn1050 Zn    0.16667   0.83334   0.78229   0.00000  Uiso   1.00
C1051  C     0.50105   0.75336   0.83319   0.00000  Uiso   1.00
C1052  C     0.47280   0.68949   0.86259   0.00000  Uiso   1.00
C1053  C     0.49871   0.95745   0.83391   0.00000  Uiso   1.00
C1054  C     0.50129   0.70921   0.83276   0.00000  Uiso   1.00
C1055  C     0.53004   0.86066   0.69497   0.00000  Uiso   1.00
C1056  C     0.46996   0.80601   0.97170   0.00000  Uiso   1.00
C1057  C     0.53004   0.86063   0.98031   0.00000  Uiso   1.00
C1058  C     0.46996   0.80603   0.68636   0.00000  Uiso   1.00
C1059  C     0.65677   0.81454   0.76999   0.00000  Uiso   1.00
C1060  C     0.34323   0.85213   0.89667   0.00000  Uiso   1.00
C1061  C     0.56017   0.70589   0.77308   0.00000  Uiso   1.00
C1062  C     0.49895   0.91330   0.83348   0.00000  Uiso   1.00
C1063  C     0.43983   0.96077   0.89358   0.00000  Uiso   1.00
C1064  C     0.40061   0.83336   0.82152   0.00000  Uiso   1.00
C1065  C     0.59939   0.83331   0.84514   0.00000  Uiso   1.00
C1066  C     0.34635   0.82960   0.81536   0.00000  Uiso   1.00
C1067  C     0.65365   0.83706   0.85130   0.00000  Uiso   1.00
C1068  C     0.52884   0.68656   0.80327   0.00000  Uiso   1.00
C1069  C     0.47116   0.98011   0.86340   0.00000  Uiso   1.00
C1070  C     0.52720   0.97718   0.80408   0.00000  Uiso   1.00
H1071  H     0.54884   0.95918   0.78196   0.00000  Uiso   1.00
H1072  H     0.45116   0.70749   0.88470   0.00000  Uiso   1.00
H1073  H     0.55411   0.88245   0.71663   0.00000  Uiso   1.00
H1074  H     0.44589   0.78422   0.95004   0.00000  Uiso   1.00
H1075  H     0.55408   0.88242   0.96554   0.00000  Uiso   1.00
H1076  H     0.44592   0.78425   0.70113   0.00000  Uiso   1.00
N1077  N     0.49999   0.83332   0.95240   0.00000  Uiso   1.00
N1078  N     0.50001   0.83334   0.71427   0.00000  Uiso   1.00
N1079  N     0.63905   0.80280   0.73383   0.00000  Uiso   1.00
N1080  N     0.36095   0.86387   0.93284   0.00000  Uiso   1.00
N1081  N     0.58523   0.72116   0.74878   0.00000  Uiso   1.00
N1082  N     0.41477   0.94551   0.91788   0.00000  Uiso   1.00
O1083  O     0.50000   0.77225   0.87154   0.00000  Uiso   1.00
O1084  O     0.50000   0.89442   0.79513   0.00000  Uiso   1.00
O1085  O     0.50000   0.77226   0.79510   0.00000  Uiso   1.00
O1086  O     0.50000   0.89441   0.87157   0.00000  Uiso   1.00
O1087  O     0.42392   0.83333   0.86261   0.00000  Uiso   1.00
O1088  O     0.57608   0.83334   0.80405   0.00000  Uiso   1.00
O1089  O     0.42392   0.83334   0.78617   0.00000  Uiso   1.00
O1090  O     0.57608   0.83333   0.88050   0.00000  Uiso   1.00
Zn1091 Zn    0.50000   0.83333   0.88437   0.00000  Uiso   1.00
Zn1092 Zn    0.50000   0.83334   0.78229   0.00000  Uiso   1.00
C1093  C     0.83439   0.75336   0.83319   0.00000  Uiso   1.00
C1094  C     0.80613   0.68949   0.86259   0.00000  Uiso   1.00
C1095  C     0.83204   0.95745   0.83391   0.00000  Uiso   1.00
C1096  C     0.83462   0.70921   0.83276   0.00000  Uiso   1.00
C1097  C     0.86337   0.86066   0.69497   0.00000  Uiso   1.00
C1098  C     0.80329   0.80601   0.97170   0.00000  Uiso   1.00
C1099  C     0.86338   0.86063   0.98031   0.00000  Uiso   1.00
C1100  C     0.80329   0.80603   0.68636   0.00000  Uiso   1.00
C1101  C     0.99010   0.81454   0.76999   0.00000  Uiso   1.00
C1102  C     0.67657   0.85213   0.89667   0.00000  Uiso   1.00
C1103  C     0.89350   0.70589   0.77308   0.00000  Uiso   1.00
C1104  C     0.83228   0.91330   0.83348   0.00000  Uiso   1.00
C1105  C     0.77316   0.96077   0.89358   0.00000  Uiso   1.00
C1106  C     0.73394   0.83336   0.82152   0.00000  Uiso   1.00
C1107  C     0.93273   0.83331   0.84514   0.00000  Uiso   1.00
C1108  C     0.67968   0.82960   0.81536   0.00000  Uiso   1.00
C1109  C     0.98698   0.83706   0.85130   0.00000  Uiso   1.00
C1110  C     0.86217   0.68656   0.80327   0.00000  Uiso   1.00
C1111  C     0.80449   0.98011   0.86340   0.00000  Uiso   1.00
C1112  C     0.86053   0.97718   0.80408   0.00000  Uiso   1.00
H1113  H     0.88217   0.95918   0.78196   0.00000  Uiso   1.00
H1114  H     0.78450   0.70749   0.88470   0.00000  Uiso   1.00
H1115  H     0.88744   0.88245   0.71663   0.00000  Uiso   1.00
H1116  H     0.77923   0.78422   0.95004   0.00000  Uiso   1.00
H1117  H     0.88742   0.88242   0.96554   0.00000  Uiso   1.00
H1118  H     0.77925   0.78425   0.70113   0.00000  Uiso   1.00
N1119  N     0.83332   0.83332   0.95240   0.00000  Uiso   1.00
N1120  N     0.83335   0.83334   0.71427   0.00000  Uiso   1.00
N1121  N     0.97239   0.80280   0.73383   0.00000  Uiso   1.00
N1122  N     0.69428   0.86387   0.93284   0.00000  Uiso   1.00
N1123  N     0.91857   0.72116   0.74878   0.00000  Uiso   1.00
N1124  N     0.74810   0.94551   0.91788   0.00000  Uiso   1.00
O1125  O     0.83333   0.77225   0.87154   0.00000  Uiso   1.00
O1126  O     0.83334   0.89442   0.79513   0.00000  Uiso   1.00
O1127  O     0.83333   0.77226   0.79510   0.00000  Uiso   1.00
O1128  O     0.83334   0.89441   0.87157   0.00000  Uiso   1.00
O1129  O     0.75725   0.83333   0.86261   0.00000  Uiso   1.00
O1130  O     0.90942   0.83334   0.80405   0.00000  Uiso   1.00
O1131  O     0.75725   0.83334   0.78617   0.00000  Uiso   1.00
O1132  O     0.90942   0.83333   0.88050   0.00000  Uiso   1.00
Zn1133 Zn    0.83333   0.83333   0.88437   0.00000  Uiso   1.00
Zn1134 Zn    0.83333   0.83334   0.78229   0.00000  Uiso   1.00
loop_
_geom_bond_atom_site_label_1
_geom_bond_atom_site_label_2
_geom_bond_distance
_geom_bond_site_symmetry_2
_ccdc_geom_bond_type
C1     C4      1.418   .     S
C1     O35     1.279   .     A
C1     O33     1.282   .     A
C2     H22     1.086   .     S
C2     C4      1.395   .     A
C2     C271    1.373   1_545 S
C3     C19     1.405   .     A
C3     C20     1.395   .     A
C3     C12     1.418   .     S
C4     C18     1.405   .     A
C5     N28     1.366   .     A
C5     H23     1.082   .     S
C5     C763    1.415   1_554 S
C6     N27     1.366   .     A
C6     H24     1.082   .     S
C6     C386    1.415   .     S
C7     N27     1.366   .     A
C7     H25     1.082   .     S
C7     C383    1.415   .     S
C8     H26     1.082   .     S
C8     N28     1.366   .     A
C8     C762    1.415   1_554 S
C9     N29     1.158   .     T
C9     C58     1.461   .     S
C10    N30     1.158   .     T
C10    C101    1.461   1_455 S
C11    C18     1.446   .     S
C11    N31     1.157   .     T
C12    O36     1.279   .     A
C12    O34     1.282   .     A
C13    N32     1.157   .     T
C13    C19     1.446   .     S
C14    O39     1.285   .     A
C14    O37     1.272   .     A
C14    C16     1.411   .     S
C15    O38     1.272   .     A
C15    O40     1.285   .     A
C15    C17     1.411   .     S
C16    C93     1.461   1_455 S
C16    C101    1.362   1_455 S
C17    C58     1.362   .     S
C17    C52     1.461   .     S
C18    C272    1.373   1_545 S
C19    C128    1.373   .     S
C20    H21     1.086   .     S
C20    C144    1.373   .     S
N27    Zn41    2.006   .     S
N28    Zn42    2.006   .     S
O33    Zn41    1.994   .     S
O34    Zn42    1.994   .     S
O35    Zn42    2.002   .     S
O36    Zn41    2.002   .     S
O37    Zn41    2.000   .     S
O38    Zn42    2.000   .     S
O39    Zn42    2.013   .     S
O40    Zn41    2.013   .     S
C43    C46     1.418   .     S
C43    O77     1.279   .     A
C43    O75     1.282   .     A
C44    H64     1.086   .     S
C44    C46     1.395   .     A
C44    C313    1.373   1_545 S
C45    C61     1.405   .     A
C45    C62     1.395   .     A
C45    C54     1.418   .     S
C46    C60     1.405   .     A
C47    N70     1.366   .     A
C47    H65     1.082   .     S
C47    C805    1.415   1_554 S
C48    N69     1.366   .     A
C48    H66     1.082   .     S
C48    C428    1.415   .     S
C49    N69     1.366   .     A
C49    H67     1.082   .     S
C49    C425    1.415   .     S
C50    H68     1.082   .     S
C50    N70     1.366   .     A
C50    C804    1.415   1_554 S
C51    N71     1.158   .     T
C51    C100    1.461   .     S
C52    N72     1.158   .     T
C53    C60     1.446   .     S
C53    N73     1.157   .     T
C54    O78     1.279   .     A
C54    O76     1.282   .     A
C55    N74     1.157   .     T
C55    C61     1.446   .     S
C56    O81     1.285   .     A
C56    O79     1.272   .     A
C56    C58     1.411   .     S
C57    O80     1.272   .     A
C57    O82     1.285   .     A
C57    C59     1.411   .     S
C59    C100    1.362   .     S
C59    C94     1.461   .     S
C60    C314    1.373   1_545 S
C61    C170    1.373   .     S
C62    H63     1.086   .     S
C62    C186    1.373   .     S
N69    Zn83    2.006   .     S
N70    Zn84    2.006   .     S
O75    Zn83    1.994   .     S
O76    Zn84    1.994   .     S
O77    Zn84    2.002   .     S
O78    Zn83    2.002   .     S
O79    Zn83    2.000   .     S
O80    Zn84    2.000   .     S
O81    Zn84    2.013   .     S
O82    Zn83    2.013   .     S
C85    C88     1.418   .     S
C85    O119    1.279   .     A
C85    O117    1.282   .     A
C86    H106    1.086   .     S
C86    C88     1.395   .     A
C86    C355    1.373   1_545 S
C87    C103    1.405   .     A
C87    C104    1.395   .     A
C87    C96     1.418   .     S
C88    C102    1.405   .     A
C89    N112    1.366   .     A
C89    H107    1.082   .     S
C89    C847    1.415   1_554 S
C90    N111    1.366   .     A
C90    H108    1.082   .     S
C90    C470    1.415   .     S
C91    N111    1.366   .     A
C91    H109    1.082   .     S
C91    C467    1.415   .     S
C92    H110    1.082   .     S
C92    N112    1.366   .     A
C92    C846    1.415   1_554 S
C93    N113    1.158   .     T
C93    C16     1.461   1_655 S
C94    N114    1.158   .     T
C95    C102    1.446   .     S
C95    N115    1.157   .     T
C96    O120    1.279   .     A
C96    O118    1.282   .     A
C97    N116    1.157   .     T
C97    C103    1.446   .     S
C98    O123    1.285   .     A
C98    O121    1.272   .     A
C98    C100    1.411   .     S
C99    O122    1.272   .     A
C99    O124    1.285   .     A
C99    C101    1.411   .     S
C101   C16     1.362   1_655 S
C101   C10     1.461   1_655 S
C102   C356    1.373   1_545 S
C103   C212    1.373   .     S
C104   H105    1.086   .     S
C104   C228    1.373   .     S
N111   Zn125   2.006   .     S
N112   Zn126   2.006   .     S
O117   Zn125   1.994   .     S
O118   Zn126   1.994   .     S
O119   Zn126   2.002   .     S
O120   Zn125   2.002   .     S
O121   Zn125   2.000   .     S
O122   Zn126   2.000   .     S
O123   Zn126   2.013   .     S
O124   Zn125   2.013   .     S
C127   C130    1.418   .     S
C127   O161    1.279   .     A
C127   O159    1.282   .     A
C128   H148    1.086   .     S
C128   C130    1.395   .     A
C129   C145    1.405   .     A
C129   C146    1.395   .     A
C129   C138    1.418   .     S
C130   C144    1.405   .     A
C131   N154    1.366   .     A
C131   H149    1.082   .     S
C131   C889    1.415   1_554 S
C132   N153    1.366   .     A
C132   H150    1.082   .     S
C132   C512    1.415   .     S
C133   N153    1.366   .     A
C133   H151    1.082   .     S
C133   C509    1.415   .     S
C134   H152    1.082   .     S
C134   N154    1.366   .     A
C134   C888    1.415   1_554 S
C135   N155    1.158   .     T
C135   C184    1.461   .     S
C136   N156    1.158   .     T
C136   C227    1.461   1_455 S
C137   C144    1.446   .     S
C137   N157    1.157   .     T
C138   O162    1.279   .     A
C138   O160    1.282   .     A
C139   N158    1.157   .     T
C139   C145    1.446   .     S
C140   O165    1.285   .     A
C140   O163    1.272   .     A
C140   C142    1.411   .     S
C141   O164    1.272   .     A
C141   O166    1.285   .     A
C141   C143    1.411   .     S
C142   C219    1.461   1_455 S
C142   C227    1.362   1_455 S
C143   C184    1.362   .     S
C143   C178    1.461   .     S
C145   C254    1.373   .     S
C146   H147    1.086   .     S
C146   C270    1.373   .     S
N153   Zn167   2.006   .     S
N154   Zn168   2.006   .     S
O159   Zn167   1.994   .     S
O160   Zn168   1.994   .     S
O161   Zn168   2.002   .     S
O162   Zn167   2.002   .     S
O163   Zn167   2.000   .     S
O164   Zn168   2.000   .     S
O165   Zn168   2.013   .     S
O166   Zn167   2.013   .     S
C169   C172    1.418   .     S
C169   O203    1.279   .     A
C169   O201    1.282   .     A
C170   H190    1.086   .     S
C170   C172    1.395   .     A
C171   C187    1.405   .     A
C171   C188    1.395   .     A
C171   C180    1.418   .     S
C172   C186    1.405   .     A
C173   N196    1.366   .     A
C173   H191    1.082   .     S
C173   C931    1.415   1_554 S
C174   N195    1.366   .     A
C174   H192    1.082   .     S
C174   C554    1.415   .     S
C175   N195    1.366   .     A
C175   H193    1.082   .     S
C175   C551    1.415   .     S
C176   H194    1.082   .     S
C176   N196    1.366   .     A
C176   C930    1.415   1_554 S
C177   N197    1.158   .     T
C177   C226    1.461   .     S
C178   N198    1.158   .     T
C179   C186    1.446   .     S
C179   N199    1.157   .     T
C180   O204    1.279   .     A
C180   O202    1.282   .     A
C181   N200    1.157   .     T
C181   C187    1.446   .     S
C182   O207    1.285   .     A
C182   O205    1.272   .     A
C182   C184    1.411   .     S
C183   O206    1.272   .     A
C183   O208    1.285   .     A
C183   C185    1.411   .     S
C185   C226    1.362   .     S
C185   C220    1.461   .     S
C187   C296    1.373   .     S
C188   H189    1.086   .     S
C188   C312    1.373   .     S
N195   Zn209   2.006   .     S
N196   Zn210   2.006   .     S
O201   Zn209   1.994   .     S
O202   Zn210   1.994   .     S
O203   Zn210   2.002   .     S
O204   Zn209   2.002   .     S
O205   Zn209   2.000   .     S
O206   Zn210   2.000   .     S
O207   Zn210   2.013   .     S
O208   Zn209   2.013   .     S
C211   C214    1.418   .     S
C211   O245    1.279   .     A
C211   O243    1.282   .     A
C212   H232    1.086   .     S
C212   C214    1.395   .     A
C213   C229    1.405   .     A
C213   C230    1.395   .     A
C213   C222    1.418   .     S
C214   C228    1.405   .     A
C215   N238    1.366   .     A
C215   H233    1.082   .     S
C215   C973    1.415   1_554 S
C216   N237    1.366   .     A
C216   H234    1.082   .     S
C216   C596    1.415   .     S
C217   N237    1.366   .     A
C217   H235    1.082   .     S
C217   C593    1.415   .     S
C218   H236    1.082   .     S
C218   N238    1.366   .     A
C218   C972    1.415   1_554 S
C219   N239    1.158   .     T
C219   C142    1.461   1_655 S
C220   N240    1.158   .     T
C221   C228    1.446   .     S
C221   N241    1.157   .     T
C222   O246    1.279   .     A
C222   O244    1.282   .     A
C223   N242    1.157   .     T
C223   C229    1.446   .     S
C224   O249    1.285   .     A
C224   O247    1.272   .     A
C224   C226    1.411   .     S
C225   O248    1.272   .     A
C225   O250    1.285   .     A
C225   C227    1.411   .     S
C227   C142    1.362   1_655 S
C227   C136    1.461   1_655 S
C229   C338    1.373   .     S
C230   H231    1.086   .     S
C230   C354    1.373   .     S
N237   Zn251   2.006   .     S
N238   Zn252   2.006   .     S
O243   Zn251   1.994   .     S
O244   Zn252   1.994   .     S
O245   Zn252   2.002   .     S
O246   Zn251   2.002   .     S
O247   Zn251   2.000   .     S
O248   Zn252   2.000   .     S
O249   Zn252   2.013   .     S
O250   Zn251   2.013   .     S
C253   C256    1.418   .     S
C253   O287    1.279   .     A
C253   O285    1.282   .     A
C254   H274    1.086   .     S
C254   C256    1.395   .     A
C255   C271    1.405   .     A
C255   C272    1.395   .     A
C255   C264    1.418   .     S
C256   C270    1.405   .     A
C257   N280    1.366   .     A
C257   H275    1.082   .     S
C257   C1015   1.415   1_554 S
C258   N279    1.366   .     A
C258   H276    1.082   .     S
C258   C638    1.415   .     S
C259   N279    1.366   .     A
C259   H277    1.082   .     S
C259   C635    1.415   .     S
C260   H278    1.082   .     S
C260   N280    1.366   .     A
C260   C1014   1.415   1_554 S
C261   N281    1.158   .     T
C261   C310    1.461   .     S
C262   N282    1.158   .     T
C262   C353    1.461   1_455 S
C263   C270    1.446   .     S
C263   N283    1.157   .     T
C264   O288    1.279   .     A
C264   O286    1.282   .     A
C265   N284    1.157   .     T
C265   C271    1.446   .     S
C266   O291    1.285   .     A
C266   O289    1.272   .     A
C266   C268    1.411   .     S
C267   O290    1.272   .     A
C267   O292    1.285   .     A
C267   C269    1.411   .     S
C268   C345    1.461   1_455 S
C268   C353    1.362   1_455 S
C269   C310    1.362   .     S
C269   C304    1.461   .     S
C271   C2      1.373   1_565 S
C272   H273    1.086   .     S
C272   C18     1.373   1_565 S
N279   Zn293   2.006   .     S
N280   Zn294   2.006   .     S
O285   Zn293   1.994   .     S
O286   Zn294   1.994   .     S
O287   Zn294   2.002   .     S
O288   Zn293   2.002   .     S
O289   Zn293   2.000   .     S
O290   Zn294   2.000   .     S
O291   Zn294   2.013   .     S
O292   Zn293   2.013   .     S
C295   C298    1.418   .     S
C295   O329    1.279   .     A
C295   O327    1.282   .     A
C296   H316    1.086   .     S
C296   C298    1.395   .     A
C297   C313    1.405   .     A
C297   C314    1.395   .     A
C297   C306    1.418   .     S
C298   C312    1.405   .     A
C299   N322    1.366   .     A
C299   H317    1.082   .     S
C299   C1057   1.415   1_554 S
C300   N321    1.366   .     A
C300   H318    1.082   .     S
C300   C680    1.415   .     S
C301   N321    1.366   .     A
C301   H319    1.082   .     S
C301   C677    1.415   .     S
C302   H320    1.082   .     S
C302   N322    1.366   .     A
C302   C1056   1.415   1_554 S
C303   N323    1.158   .     T
C303   C352    1.461   .     S
C304   N324    1.158   .     T
C305   C312    1.446   .     S
C305   N325    1.157   .     T
C306   O330    1.279   .     A
C306   O328    1.282   .     A
C307   N326    1.157   .     T
C307   C313    1.446   .     S
C308   O333    1.285   .     A
C308   O331    1.272   .     A
C308   C310    1.411   .     S
C309   O332    1.272   .     A
C309   O334    1.285   .     A
C309   C311    1.411   .     S
C311   C352    1.362   .     S
C311   C346    1.461   .     S
C313   C44     1.373   1_565 S
C314   H315    1.086   .     S
C314   C60     1.373   1_565 S
N321   Zn335   2.006   .     S
N322   Zn336   2.006   .     S
O327   Zn335   1.994   .     S
O328   Zn336   1.994   .     S
O329   Zn336   2.002   .     S
O330   Zn335   2.002   .     S
O331   Zn335   2.000   .     S
O332   Zn336   2.000   .     S
O333   Zn336   2.013   .     S
O334   Zn335   2.013   .     S
C337   C340    1.418   .     S
C337   O371    1.279   .     A
C337   O369    1.282   .     A
C338   H358    1.086   .     S
C338   C340    1.395   .     A
C339   C355    1.405   .     A
C339   C356    1.395   .     A
C339   C348    1.418   .     S
C340   C354    1.405   .     A
C341   N364    1.366   .     A
C341   H359    1.082   .     S
C341   C1099   1.415   1_554 S
C342   N363    1.366   .     A
C342   H360    1.082   .     S
C342   C722    1.415   .     S
C343   N363    1.366   .     A
C343   H361    1.082   .     S
C343   C719    1.415   .     S
C344   H362    1.082   .     S
C344   N364    1.366   .     A
C344   C1098   1.415   1_554 S
C345   N365    1.158   .     T
C345   C268    1.461   1_655 S
C346   N366    1.158   .     T
C347   C354    1.446   .     S
C347   N367    1.157   .     T
C348   O372    1.279   .     A
C348   O370    1.282   .     A
C349   N368    1.157   .     T
C349   C355    1.446   .     S
C350   O375    1.285   .     A
C350   O373    1.272   .     A
C350   C352    1.411   .     S
C351   O374    1.272   .     A
C351   O376    1.285   .     A
C351   C353    1.411   .     S
C353   C268    1.362   1_655 S
C353   C262    1.461   1_655 S
C355   C86     1.373   1_565 S
C356   H357    1.086   .     S
C356   C102    1.373   1_565 S
N363   Zn377   2.006   .     S
N364   Zn378   2.006   .     S
O369   Zn377   1.994   .     S
O370   Zn378   1.994   .     S
O371   Zn378   2.002   .     S
O372   Zn377   2.002   .     S
O373   Zn377   2.000   .     S
O374   Zn378   2.000   .     S
O375   Zn378   2.013   .     S
O376   Zn377   2.013   .     S
C379   C382    1.418   .     S
C379   O413    1.279   .     A
C379   O411    1.282   .     A
C380   H400    1.086   .     S
C380   C382    1.395   .     A
C380   C649    1.373   1_545 S
C381   C397    1.405   .     A
C381   C398    1.395   .     A
C381   C390    1.418   .     S
C382   C396    1.405   .     A
C383   N406    1.366   .     A
C383   H401    1.082   .     S
C384   N405    1.366   .     A
C384   H402    1.082   .     S
C384   C764    1.415   .     S
C385   N405    1.366   .     A
C385   H403    1.082   .     S
C385   C761    1.415   .     S
C386   H404    1.082   .     S
C386   N406    1.366   .     A
C387   N407    1.158   .     T
C387   C436    1.461   .     S
C388   N408    1.158   .     T
C388   C479    1.461   1_455 S
C389   C396    1.446   .     S
C389   N409    1.157   .     T
C390   O414    1.279   .     A
C390   O412    1.282   .     A
C391   N410    1.157   .     T
C391   C397    1.446   .     S
C392   O417    1.285   .     A
C392   O415    1.272   .     A
C392   C394    1.411   .     S
C393   O416    1.272   .     A
C393   O418    1.285   .     A
C393   C395    1.411   .     S
C394   C471    1.461   1_455 S
C394   C479    1.362   1_455 S
C395   C436    1.362   .     S
C395   C430    1.461   .     S
C396   C650    1.373   1_545 S
C397   C506    1.373   .     S
C398   H399    1.086   .     S
C398   C522    1.373   .     S
N405   Zn419   2.006   .     S
N406   Zn420   2.006   .     S
O411   Zn419   1.994   .     S
O412   Zn420   1.994   .     S
O413   Zn420   2.002   .     S
O414   Zn419   2.002   .     S
O415   Zn419   2.000   .     S
O416   Zn420   2.000   .     S
O417   Zn420   2.013   .     S
O418   Zn419   2.013   .     S
C421   C424    1.418   .     S
C421   O455    1.279   .     A
C421   O453    1.282   .     A
C422   H442    1.086   .     S
C422   C424    1.395   .     A
C422   C691    1.373   1_545 S
C423   C439    1.405   .     A
C423   C440    1.395   .     A
C423   C432    1.418   .     S
C424   C438    1.405   .     A
C425   N448    1.366   .     A
C425   H443    1.082   .     S
C426   N447    1.366   .     A
C426   H444    1.082   .     S
C426   C806    1.415   .     S
C427   N447    1.366   .     A
C427   H445    1.082   .     S
C427   C803    1.415   .     S
C428   H446    1.082   .     S
C428   N448    1.366   .     A
C429   N449    1.158   .     T
C429   C478    1.461   .     S
C430   N450    1.158   .     T
C431   C438    1.446   .     S
C431   N451    1.157   .     T
C432   O456    1.279   .     A
C432   O454    1.282   .     A
C433   N452    1.157   .     T
C433   C439    1.446   .     S
C434   O459    1.285   .     A
C434   O457    1.272   .     A
C434   C436    1.411   .     S
C435   O458    1.272   .     A
C435   O460    1.285   .     A
C435   C437    1.411   .     S
C437   C478    1.362   .     S
C437   C472    1.461   .     S
C438   C692    1.373   1_545 S
C439   C548    1.373   .     S
C440   H441    1.086   .     S
C440   C564    1.373   .     S
N447   Zn461   2.006   .     S
N448   Zn462   2.006   .     S
O453   Zn461   1.994   .     S
O454   Zn462   1.994   .     S
O455   Zn462   2.002   .     S
O456   Zn461   2.002   .     S
O457   Zn461   2.000   .     S
O458   Zn462   2.000   .     S
O459   Zn462   2.013   .     S
O460   Zn461   2.013   .     S
C463   C466    1.418   .     S
C463   O497    1.279   .     A
C463   O495    1.282   .     A
C464   H484    1.086   .     S
C464   C466    1.395   .     A
C464   C733    1.373   1_545 S
C465   C481    1.405   .     A
C465   C482    1.395   .     A
C465   C474    1.418   .     S
C466   C480    1.405   .     A
C467   N490    1.366   .     A
C467   H485    1.082   .     S
C468   N489    1.366   .     A
C468   H486    1.082   .     S
C468   C848    1.415   .     S
C469   N489    1.366   .     A
C469   H487    1.082   .     S
C469   C845    1.415   .     S
C470   H488    1.082   .     S
C470   N490    1.366   .     A
C471   N491    1.158   .     T
C471   C394    1.461   1_655 S
C472   N492    1.158   .     T
C473   C480    1.446   .     S
C473   N493    1.157   .     T
C474   O498    1.279   .     A
C474   O496    1.282   .     A
C475   N494    1.157   .     T
C475   C481    1.446   .     S
C476   O501    1.285   .     A
C476   O499    1.272   .     A
C476   C478    1.411   .     S
C477   O500    1.272   .     A
C477   O502    1.285   .     A
C477   C479    1.411   .     S
C479   C394    1.362   1_655 S
C479   C388    1.461   1_655 S
C480   C734    1.373   1_545 S
C481   C590    1.373   .     S
C482   H483    1.086   .     S
C482   C606    1.373   .     S
N489   Zn503   2.006   .     S
N490   Zn504   2.006   .     S
O495   Zn503   1.994   .     S
O496   Zn504   1.994   .     S
O497   Zn504   2.002   .     S
O498   Zn503   2.002   .     S
O499   Zn503   2.000   .     S
O500   Zn504   2.000   .     S
O501   Zn504   2.013   .     S
O502   Zn503   2.013   .     S
C505   C508    1.418   .     S
C505   O539    1.279   .     A
C505   O537    1.282   .     A
C506   H526    1.086   .     S
C506   C508    1.395   .     A
C507   C523    1.405   .     A
C507   C524    1.395   .     A
C507   C516    1.418   .     S
C508   C522    1.405   .     A
C509   N532    1.366   .     A
C509   H527    1.082   .     S
C510   N531    1.366   .     A
C510   H528    1.082   .     S
C510   C890    1.415   .     S
C511   N531    1.366   .     A
C511   H529    1.082   .     S
C511   C887    1.415   .     S
C512   H530    1.082   .     S
C512   N532    1.366   .     A
C513   N533    1.158   .     T
C513   C562    1.461   .     S
C514   N534    1.158   .     T
C514   C605    1.461   1_455 S
C515   C522    1.446   .     S
C515   N535    1.157   .     T
C516   O540    1.279   .     A
C516   O538    1.282   .     A
C517   N536    1.157   .     T
C517   C523    1.446   .     S
C518   O543    1.285   .     A
C518   O541    1.272   .     A
C518   C520    1.411   .     S
C519   O542    1.272   .     A
C519   O544    1.285   .     A
C519   C521    1.411   .     S
C520   C597    1.461   1_455 S
C520   C605    1.362   1_455 S
C521   C562    1.362   .     S
C521   C556    1.461   .     S
C523   C632    1.373   .     S
C524   H525    1.086   .     S
C524   C648    1.373   .     S
N531   Zn545   2.006   .     S
N532   Zn546   2.006   .     S
O537   Zn545   1.994   .     S
O538   Zn546   1.994   .     S
O539   Zn546   2.002   .     S
O540   Zn545   2.002   .     S
O541   Zn545   2.000   .     S
O542   Zn546   2.000   .     S
O543   Zn546   2.013   .     S
O544   Zn545   2.013   .     S
C547   C550    1.418   .     S
C547   O581    1.279   .     A
C547   O579    1.282   .     A
C548   H568    1.086   .     S
C548   C550    1.395   .     A
C549   C565    1.405   .     A
C549   C566    1.395   .     A
C549   C558    1.418   .     S
C550   C564    1.405   .     A
C551   N574    1.366   .     A
C551   H569    1.082   .     S
C552   N573    1.366   .     A
C552   H570    1.082   .     S
C552   C932    1.415   .     S
C553   N573    1.366   .     A
C553   H571    1.082   .     S
C553   C929    1.415   .     S
C554   H572    1.082   .     S
C554   N574    1.366   .     A
C555   N575    1.158   .     T
C555   C604    1.461   .     S
C556   N576    1.158   .     T
C557   C564    1.446   .     S
C557   N577    1.157   .     T
C558   O582    1.279   .     A
C558   O580    1.282   .     A
C559   N578    1.157   .     T
C559   C565    1.446   .     S
C560   O585    1.285   .     A
C560   O583    1.272   .     A
C560   C562    1.411   .     S
C561   O584    1.272   .     A
C561   O586    1.285   .     A
C561   C563    1.411   .     S
C563   C604    1.362   .     S
C563   C598    1.461   .     S
C565   C674    1.373   .     S
C566   H567    1.086   .     S
C566   C690    1.373   .     S
N573   Zn587   2.006   .     S
N574   Zn588   2.006   .     S
O579   Zn587   1.994   .     S
O580   Zn588   1.994   .     S
O581   Zn588   2.002   .     S
O582   Zn587   2.002   .     S
O583   Zn587   2.000   .     S
O584   Zn588   2.000   .     S
O585   Zn588   2.013   .     S
O586   Zn587   2.013   .     S
C589   C592    1.418   .     S
C589   O623    1.279   .     A
C589   O621    1.282   .     A
C590   H610    1.086   .     S
C590   C592    1.395   .     A
C591   C607    1.405   .     A
C591   C608    1.395   .     A
C591   C600    1.418   .     S
C592   C606    1.405   .     A
C593   N616    1.366   .     A
C593   H611    1.082   .     S
C594   N615    1.366   .     A
C594   H612    1.082   .     S
C594   C974    1.415   .     S
C595   N615    1.366   .     A
C595   H613    1.082   .     S
C595   C971    1.415   .     S
C596   H614    1.082   .     S
C596   N616    1.366   .     A
C597   N617    1.158   .     T
C597   C520    1.461   1_655 S
C598   N618    1.158   .     T
C599   C606    1.446   .     S
C599   N619    1.157   .     T
C600   O624    1.279   .     A
C600   O622    1.282   .     A
C601   N620    1.157   .     T
C601   C607    1.446   .     S
C602   O627    1.285   .     A
C602   O625    1.272   .     A
C602   C604    1.411   .     S
C603   O626    1.272   .     A
C603   O628    1.285   .     A
C603   C605    1.411   .     S
C605   C520    1.362   1_655 S
C605   C514    1.461   1_655 S
C607   C716    1.373   .     S
C608   H609    1.086   .     S
C608   C732    1.373   .     S
N615   Zn629   2.006   .     S
N616   Zn630   2.006   .     S
O621   Zn629   1.994   .     S
O622   Zn630   1.994   .     S
O623   Zn630   2.002   .     S
O624   Zn629   2.002   .     S
O625   Zn629   2.000   .     S
O626   Zn630   2.000   .     S
O627   Zn630   2.013   .     S
O628   Zn629   2.013   .     S
C631   C634    1.418   .     S
C631   O665    1.279   .     A
C631   O663    1.282   .     A
C632   H652    1.086   .     S
C632   C634    1.395   .     A
C633   C649    1.405   .     A
C633   C650    1.395   .     A
C633   C642    1.418   .     S
C634   C648    1.405   .     A
C635   N658    1.366   .     A
C635   H653    1.082   .     S
C636   N657    1.366   .     A
C636   H654    1.082   .     S
C636   C1016   1.415   .     S
C637   N657    1.366   .     A
C637   H655    1.082   .     S
C637   C1013   1.415   .     S
C638   H656    1.082   .     S
C638   N658    1.366   .     A
C639   N659    1.158   .     T
C639   C688    1.461   .     S
C640   N660    1.158   .     T
C640   C731    1.461   1_455 S
C641   C648    1.446   .     S
C641   N661    1.157   .     T
C642   O666    1.279   .     A
C642   O664    1.282   .     A
C643   N662    1.157   .     T
C643   C649    1.446   .     S
C644   O669    1.285   .     A
C644   O667    1.272   .     A
C644   C646    1.411   .     S
C645   O668    1.272   .     A
C645   O670    1.285   .     A
C645   C647    1.411   .     S
C646   C723    1.461   1_455 S
C646   C731    1.362   1_455 S
C647   C688    1.362   .     S
C647   C682    1.461   .     S
C649   C380    1.373   1_565 S
C650   H651    1.086   .     S
C650   C396    1.373   1_565 S
N657   Zn671   2.006   .     S
N658   Zn672   2.006   .     S
O663   Zn671   1.994   .     S
O664   Zn672   1.994   .     S
O665   Zn672   2.002   .     S
O666   Zn671   2.002   .     S
O667   Zn671   2.000   .     S
O668   Zn672   2.000   .     S
O669   Zn672   2.013   .     S
O670   Zn671   2.013   .     S
C673   C676    1.418   .     S
C673   O707    1.279   .     A
C673   O705    1.282   .     A
C674   H694    1.086   .     S
C674   C676    1.395   .     A
C675   C691    1.405   .     A
C675   C692    1.395   .     A
C675   C684    1.418   .     S
C676   C690    1.405   .     A
C677   N700    1.366   .     A
C677   H695    1.082   .     S
C678   N699    1.366   .     A
C678   H696    1.082   .     S
C678   C1058   1.415   .     S
C679   N699    1.366   .     A
C679   H697    1.082   .     S
C679   C1055   1.415   .     S
C680   H698    1.082   .     S
C680   N700    1.366   .     A
C681   N701    1.158   .     T
C681   C730    1.461   .     S
C682   N702    1.158   .     T
C683   C690    1.446   .     S
C683   N703    1.157   .     T
C684   O708    1.279   .     A
C684   O706    1.282   .     A
C685   N704    1.157   .     T
C685   C691    1.446   .     S
C686   O711    1.285   .     A
C686   O709    1.272   .     A
C686   C688    1.411   .     S
C687   O710    1.272   .     A
C687   O712    1.285   .     A
C687   C689    1.411   .     S
C689   C730    1.362   .     S
C689   C724    1.461   .     S
C691   C422    1.373   1_565 S
C692   H693    1.086   .     S
C692   C438    1.373   1_565 S
N699   Zn713   2.006   .     S
N700   Zn714   2.006   .     S
O705   Zn713   1.994   .     S
O706   Zn714   1.994   .     S
O707   Zn714   2.002   .     S
O708   Zn713   2.002   .     S
O709   Zn713   2.000   .     S
O710   Zn714   2.000   .     S
O711   Zn714   2.013   .     S
O712   Zn713   2.013   .     S
C715   C718    1.418   .     S
C715   O749    1.279   .     A
C715   O747    1.282   .     A
C716   H736    1.086   .     S
C716   C718    1.395   .     A
C717   C733    1.405   .     A
C717   C734    1.395   .     A
C717   C726    1.418   .     S
C718   C732    1.405   .     A
C719   N742    1.366   .     A
C719   H737    1.082   .     S
C720   N741    1.366   .     A
C720   H738    1.082   .     S
C720   C1100   1.415   .     S
C721   N741    1.366   .     A
C721   H739    1.082   .     S
C721   C1097   1.415   .     S
C722   H740    1.082   .     S
C722   N742    1.366   .     A
C723   N743    1.158   .     T
C723   C646    1.461   1_655 S
C724   N744    1.158   .     T
C725   C732    1.446   .     S
C725   N745    1.157   .     T
C726   O750    1.279   .     A
C726   O748    1.282   .     A
C727   N746    1.157   .     T
C727   C733    1.446   .     S
C728   O753    1.285   .     A
C728   O751    1.272   .     A
C728   C730    1.411   .     S
C729   O752    1.272   .     A
C729   O754    1.285   .     A
C729   C731    1.411   .     S
C731   C646    1.362   1_655 S
C731   C640    1.461   1_655 S
C733   C464    1.373   1_565 S
C734   H735    1.086   .     S
C734   C480    1.373   1_565 S
N741   Zn755   2.006   .     S
N742   Zn756   2.006   .     S
O747   Zn755   1.994   .     S
O748   Zn756   1.994   .     S
O749   Zn756   2.002   .     S
O750   Zn755   2.002   .     S
O751   Zn755   2.000   .     S
O752   Zn756   2.000   .     S
O753   Zn756   2.013   .     S
O754   Zn755   2.013   .     S
C757   C760    1.418   .     S
C757   O791    1.279   .     A
C757   O789    1.282   .     A
C758   H778    1.086   .     S
C758   C760    1.395   .     A
C758   C1027   1.373   1_545 S
C759   C775    1.405   .     A
C759   C776    1.395   .     A
C759   C768    1.418   .     S
C760   C774    1.405   .     A
C761   N784    1.366   .     A
C761   H779    1.082   .     S
C762   N783    1.366   .     A
C762   H780    1.082   .     S
C762   C8      1.415   1_556 S
C763   N783    1.366   .     A
C763   H781    1.082   .     S
C763   C5      1.415   1_556 S
C764   H782    1.082   .     S
C764   N784    1.366   .     A
C765   N785    1.158   .     T
C765   C814    1.461   .     S
C766   N786    1.158   .     T
C766   C857    1.461   1_455 S
C767   C774    1.446   .     S
C767   N787    1.157   .     T
C768   O792    1.279   .     A
C768   O790    1.282   .     A
C769   N788    1.157   .     T
C769   C775    1.446   .     S
C770   O795    1.285   .     A
C770   O793    1.272   .     A
C770   C772    1.411   .     S
C771   O794    1.272   .     A
C771   O796    1.285   .     A
C771   C773    1.411   .     S
C772   C849    1.461   1_455 S
C772   C857    1.362   1_455 S
C773   C814    1.362   .     S
C773   C808    1.461   .     S
C774   C1028   1.373   1_545 S
C775   C884    1.373   .     S
C776   H777    1.086   .     S
C776   C900    1.373   .     S
N783   Zn797   2.006   .     S
N784   Zn798   2.006   .     S
O789   Zn797   1.994   .     S
O790   Zn798   1.994   .     S
O791   Zn798   2.002   .     S
O792   Zn797   2.002   .     S
O793   Zn797   2.000   .     S
O794   Zn798   2.000   .     S
O795   Zn798   2.013   .     S
O796   Zn797   2.013   .     S
C799   C802    1.418   .     S
C799   O833    1.279   .     A
C799   O831    1.282   .     A
C800   H820    1.086   .     S
C800   C802    1.395   .     A
C800   C1069   1.373   1_545 S
C801   C817    1.405   .     A
C801   C818    1.395   .     A
C801   C810    1.418   .     S
C802   C816    1.405   .     A
C803   N826    1.366   .     A
C803   H821    1.082   .     S
C804   N825    1.366   .     A
C804   H822    1.082   .     S
C804   C50     1.415   1_556 S
C805   N825    1.366   .     A
C805   H823    1.082   .     S
C805   C47     1.415   1_556 S
C806   H824    1.082   .     S
C806   N826    1.366   .     A
C807   N827    1.158   .     T
C807   C856    1.461   .     S
C808   N828    1.158   .     T
C809   C816    1.446   .     S
C809   N829    1.157   .     T
C810   O834    1.279   .     A
C810   O832    1.282   .     A
C811   N830    1.157   .     T
C811   C817    1.446   .     S
C812   O837    1.285   .     A
C812   O835    1.272   .     A
C812   C814    1.411   .     S
C813   O836    1.272   .     A
C813   O838    1.285   .     A
C813   C815    1.411   .     S
C815   C856    1.362   .     S
C815   C850    1.461   .     S
C816   C1070   1.373   1_545 S
C817   C926    1.373   .     S
C818   H819    1.086   .     S
C818   C942    1.373   .     S
N825   Zn839   2.006   .     S
N826   Zn840   2.006   .     S
O831   Zn839   1.994   .     S
O832   Zn840   1.994   .     S
O833   Zn840   2.002   .     S
O834   Zn839   2.002   .     S
O835   Zn839   2.000   .     S
O836   Zn840   2.000   .     S
O837   Zn840   2.013   .     S
O838   Zn839   2.013   .     S
C841   C844    1.418   .     S
C841   O875    1.279   .     A
C841   O873    1.282   .     A
C842   H862    1.086   .     S
C842   C844    1.395   .     A
C842   C1111   1.373   1_545 S
C843   C859    1.405   .     A
C843   C860    1.395   .     A
C843   C852    1.418   .     S
C844   C858    1.405   .     A
C845   N868    1.366   .     A
C845   H863    1.082   .     S
C846   N867    1.366   .     A
C846   H864    1.082   .     S
C846   C92     1.415   1_556 S
C847   N867    1.366   .     A
C847   H865    1.082   .     S
C847   C89     1.415   1_556 S
C848   H866    1.082   .     S
C848   N868    1.366   .     A
C849   N869    1.158   .     T
C849   C772    1.461   1_655 S
C850   N870    1.158   .     T
C851   C858    1.446   .     S
C851   N871    1.157   .     T
C852   O876    1.279   .     A
C852   O874    1.282   .     A
C853   N872    1.157   .     T
C853   C859    1.446   .     S
C854   O879    1.285   .     A
C854   O877    1.272   .     A
C854   C856    1.411   .     S
C855   O878    1.272   .     A
C855   O880    1.285   .     A
C855   C857    1.411   .     S
C857   C772    1.362   1_655 S
C857   C766    1.461   1_655 S
C858   C1112   1.373   1_545 S
C859   C968    1.373   .     S
C860   H861    1.086   .     S
C860   C984    1.373   .     S
N867   Zn881   2.006   .     S
N868   Zn882   2.006   .     S
O873   Zn881   1.994   .     S
O874   Zn882   1.994   .     S
O875   Zn882   2.002   .     S
O876   Zn881   2.002   .     S
O877   Zn881   2.000   .     S
O878   Zn882   2.000   .     S
O879   Zn882   2.013   .     S
O880   Zn881   2.013   .     S
C883   C886    1.418   .     S
C883   O917    1.279   .     A
C883   O915    1.282   .     A
C884   H904    1.086   .     S
C884   C886    1.395   .     A
C885   C901    1.405   .     A
C885   C902    1.395   .     A
C885   C894    1.418   .     S
C886   C900    1.405   .     A
C887   N910    1.366   .     A
C887   H905    1.082   .     S
C888   N909    1.366   .     A
C888   H906    1.082   .     S
C888   C134    1.415   1_556 S
C889   N909    1.366   .     A
C889   H907    1.082   .     S
C889   C131    1.415   1_556 S
C890   H908    1.082   .     S
C890   N910    1.366   .     A
C891   N911    1.158   .     T
C891   C940    1.461   .     S
C892   N912    1.158   .     T
C892   C983    1.461   1_455 S
C893   C900    1.446   .     S
C893   N913    1.157   .     T
C894   O918    1.279   .     A
C894   O916    1.282   .     A
C895   N914    1.157   .     T
C895   C901    1.446   .     S
C896   O921    1.285   .     A
C896   O919    1.272   .     A
C896   C898    1.411   .     S
C897   O920    1.272   .     A
C897   O922    1.285   .     A
C897   C899    1.411   .     S
C898   C975    1.461   1_455 S
C898   C983    1.362   1_455 S
C899   C940    1.362   .     S
C899   C934    1.461   .     S
C901   C1010   1.373   .     S
C902   H903    1.086   .     S
C902   C1026   1.373   .     S
N909   Zn923   2.006   .     S
N910   Zn924   2.006   .     S
O915   Zn923   1.994   .     S
O916   Zn924   1.994   .     S
O917   Zn924   2.002   .     S
O918   Zn923   2.002   .     S
O919   Zn923   2.000   .     S
O920   Zn924   2.000   .     S
O921   Zn924   2.013   .     S
O922   Zn923   2.013   .     S
C925   C928    1.418   .     S
C925   O959    1.279   .     A
C925   O957    1.282   .     A
C926   H946    1.086   .     S
C926   C928    1.395   .     A
C927   C943    1.405   .     A
C927   C944    1.395   .     A
C927   C936    1.418   .     S
C928   C942    1.405   .     A
C929   N952    1.366   .     A
C929   H947    1.082   .     S
C930   N951    1.366   .     A
C930   H948    1.082   .     S
C930   C176    1.415   1_556 S
C931   N951    1.366   .     A
C931   H949    1.082   .     S
C931   C173    1.415   1_556 S
C932   H950    1.082   .     S
C932   N952    1.366   .     A
C933   N953    1.158   .     T
C933   C982    1.461   .     S
C934   N954    1.158   .     T
C935   C942    1.446   .     S
C935   N955    1.157   .     T
C936   O960    1.279   .     A
C936   O958    1.282   .     A
C937   N956    1.157   .     T
C937   C943    1.446   .     S
C938   O963    1.285   .     A
C938   O961    1.272   .     A
C938   C940    1.411   .     S
C939   O962    1.272   .     A
C939   O964    1.285   .     A
C939   C941    1.411   .     S
C941   C982    1.362   .     S
C941   C976    1.461   .     S
C943   C1052   1.373   .     S
C944   H945    1.086   .     S
C944   C1068   1.373   .     S
N951   Zn965   2.006   .     S
N952   Zn966   2.006   .     S
O957   Zn965   1.994   .     S
O958   Zn966   1.994   .     S
O959   Zn966   2.002   .     S
O960   Zn965   2.002   .     S
O961   Zn965   2.000   .     S
O962   Zn966   2.000   .     S
O963   Zn966   2.013   .     S
O964   Zn965   2.013   .     S
C967   C970    1.418   .     S
C967   O1001   1.279   .     A
C967   O999    1.282   .     A
C968   H988    1.086   .     S
C968   C970    1.395   .     A
C969   C985    1.405   .     A
C969   C986    1.395   .     A
C969   C978    1.418   .     S
C970   C984    1.405   .     A
C971   N994    1.366   .     A
C971   H989    1.082   .     S
C972   N993    1.366   .     A
C972   H990    1.082   .     S
C972   C218    1.415   1_556 S
C973   N993    1.366   .     A
C973   H991    1.082   .     S
C973   C215    1.415   1_556 S
C974   H992    1.082   .     S
C974   N994    1.366   .     A
C975   N995    1.158   .     T
C975   C898    1.461   1_655 S
C976   N996    1.158   .     T
C977   C984    1.446   .     S
C977   N997    1.157   .     T
C978   O1002   1.279   .     A
C978   O1000   1.282   .     A
C979   N998    1.157   .     T
C979   C985    1.446   .     S
C980   O1005   1.285   .     A
C980   O1003   1.272   .     A
C980   C982    1.411   .     S
C981   O1004   1.272   .     A
C981   O1006   1.285   .     A
C981   C983    1.411   .     S
C983   C898    1.362   1_655 S
C983   C892    1.461   1_655 S
C985   C1094   1.373   .     S
C986   H987    1.086   .     S
C986   C1110   1.373   .     S
N993   Zn1007  2.006   .     S
N994   Zn1008  2.006   .     S
O999   Zn1007  1.994   .     S
O1000  Zn1008  1.994   .     S
O1001  Zn1008  2.002   .     S
O1002  Zn1007  2.002   .     S
O1003  Zn1007  2.000   .     S
O1004  Zn1008  2.000   .     S
O1005  Zn1008  2.013   .     S
O1006  Zn1007  2.013   .     S
C1009  C1012   1.418   .     S
C1009  O1043   1.279   .     A
C1009  O1041   1.282   .     A
C1010  H1030   1.086   .     S
C1010  C1012   1.395   .     A
C1011  C1027   1.405   .     A
C1011  C1028   1.395   .     A
C1011  C1020   1.418   .     S
C1012  C1026   1.405   .     A
C1013  N1036   1.366   .     A
C1013  H1031   1.082   .     S
C1014  N1035   1.366   .     A
C1014  H1032   1.082   .     S
C1014  C260    1.415   1_556 S
C1015  N1035   1.366   .     A
C1015  H1033   1.082   .     S
C1015  C257    1.415   1_556 S
C1016  H1034   1.082   .     S
C1016  N1036   1.366   .     A
C1017  N1037   1.158   .     T
C1017  C1066   1.461   .     S
C1018  N1038   1.158   .     T
C1018  C1109   1.461   1_455 S
C1019  C1026   1.446   .     S
C1019  N1039   1.157   .     T
C1020  O1044   1.279   .     A
C1020  O1042   1.282   .     A
C1021  N1040   1.157   .     T
C1021  C1027   1.446   .     S
C1022  O1047   1.285   .     A
C1022  O1045   1.272   .     A
C1022  C1024   1.411   .     S
C1023  O1046   1.272   .     A
C1023  O1048   1.285   .     A
C1023  C1025   1.411   .     S
C1024  C1101   1.461   1_455 S
C1024  C1109   1.362   1_455 S
C1025  C1066   1.362   .     S
C1025  C1060   1.461   .     S
C1027  C758    1.373   1_565 S
C1028  H1029   1.086   .     S
C1028  C774    1.373   1_565 S
N1035  Zn1049  2.006   .     S
N1036  Zn1050  2.006   .     S
O1041  Zn1049  1.994   .     S
O1042  Zn1050  1.994   .     S
O1043  Zn1050  2.002   .     S
O1044  Zn1049  2.002   .     S
O1045  Zn1049  2.000   .     S
O1046  Zn1050  2.000   .     S
O1047  Zn1050  2.013   .     S
O1048  Zn1049  2.013   .     S
C1051  C1054   1.418   .     S
C1051  O1085   1.279   .     A
C1051  O1083   1.282   .     A
C1052  H1072   1.086   .     S
C1052  C1054   1.395   .     A
C1053  C1069   1.405   .     A
C1053  C1070   1.395   .     A
C1053  C1062   1.418   .     S
C1054  C1068   1.405   .     A
C1055  N1078   1.366   .     A
C1055  H1073   1.082   .     S
C1056  N1077   1.366   .     A
C1056  H1074   1.082   .     S
C1056  C302    1.415   1_556 S
C1057  N1077   1.366   .     A
C1057  H1075   1.082   .     S
C1057  C299    1.415   1_556 S
C1058  H1076   1.082   .     S
C1058  N1078   1.366   .     A
C1059  N1079   1.158   .     T
C1059  C1108   1.461   .     S
C1060  N1080   1.158   .     T
C1061  C1068   1.446   .     S
C1061  N1081   1.157   .     T
C1062  O1086   1.279   .     A
C1062  O1084   1.282   .     A
C1063  N1082   1.157   .     T
C1063  C1069   1.446   .     S
C1064  O1089   1.285   .     A
C1064  O1087   1.272   .     A
C1064  C1066   1.411   .     S
C1065  O1088   1.272   .     A
C1065  O1090   1.285   .     A
C1065  C1067   1.411   .     S
C1067  C1108   1.362   .     S
C1067  C1102   1.461   .     S
C1069  C800    1.373   1_565 S
C1070  H1071   1.086   .     S
C1070  C816    1.373   1_565 S
N1077  Zn1091  2.006   .     S
N1078  Zn1092  2.006   .     S
O1083  Zn1091  1.994   .     S
O1084  Zn1092  1.994   .     S
O1085  Zn1092  2.002   .     S
O1086  Zn1091  2.002   .     S
O1087  Zn1091  2.000   .     S
O1088  Zn1092  2.000   .     S
O1089  Zn1092  2.013   .     S
O1090  Zn1091  2.013   .     S
C1093  C1096   1.418   .     S
C1093  O1127   1.279   .     A
C1093  O1125   1.282   .     A
C1094  H1114   1.086   .     S
C1094  C1096   1.395   .     A
C1095  C1111   1.405   .     A
C1095  C1112   1.395   .     A
C1095  C1104   1.418   .     S
C1096  C1110   1.405   .     A
C1097  N1120   1.366   .     A
C1097  H1115   1.082   .     S
C1098  N1119   1.366   .     A
C1098  H1116   1.082   .     S
C1098  C344    1.415   1_556 S
C1099  N1119   1.366   .     A
C1099  H1117   1.082   .     S
C1099  C341    1.415   1_556 S
C1100  H1118   1.082   .     S
C1100  N1120   1.366   .     A
C1101  N1121   1.158   .     T
C1101  C1024   1.461   1_655 S
C1102  N1122   1.158   .     T
C1103  C1110   1.446   .     S
C1103  N1123   1.157   .     T
C1104  O1128   1.279   .     A
C1104  O1126   1.282   .     A
C1105  N1124   1.157   .     T
C1105  C1111   1.446   .     S
C1106  O1131   1.285   .     A
C1106  O1129   1.272   .     A
C1106  C1108   1.411   .     S
C1107  O1130   1.272   .     A
C1107  O1132   1.285   .     A
C1107  C1109   1.411   .     S
C1109  C1024   1.362   1_655 S
C1109  C1018   1.461   1_655 S
C1111  C842    1.373   1_565 S
C1112  H1113   1.086   .     S
C1112  C858    1.373   1_565 S
N1119  Zn1133  2.006   .     S
N1120  Zn1134  2.006   .     S
O1125  Zn1133  1.994   .     S
O1126  Zn1134  1.994   .     S
O1127  Zn1134  2.002   .     S
O1128  Zn1133  2.002   .     S
O1129  Zn1133  2.000   .     S
O1130  Zn1134  2.000   .     S
O1131  Zn1134  2.013   .     S
O1132  Zn1133  2.013   .     S
