data_str_m3_o10_o17_pcu_sym.92
_audit_creation_date              2020-01-03
_audit_creation_method            'Materials Studio'
_symmetry_space_group_name_H-M    'P1'
_symmetry_Int_Tables_number       1
_symmetry_cell_setting            triclinic
loop_
_symmetry_equiv_pos_as_xyz
  x,y,z
_cell_length_a                    23.3069
_cell_length_b                    25.5681
_cell_length_c                    29.8518
_cell_angle_alpha                 91.4147
_cell_angle_beta                  86.3511
_cell_angle_gamma                 93.9888
loop_
_atom_site_label
_atom_site_type_symbol
_atom_site_fract_x
_atom_site_fract_y
_atom_site_fract_z
_atom_site_U_iso_or_equiv
_atom_site_adp_type
_atom_site_occupancy
C1     C     0.18206   0.26493   0.25004   0.00000  Uiso   1.00
C2     C     0.19764   0.21473   0.40719   0.00000  Uiso   1.00
C3     C     0.16325   0.16484   0.11609   0.00000  Uiso   1.00
C4     C     0.17016   0.17206   0.38411   0.00000  Uiso   1.00
C5     C     0.18999   0.20776   0.09412   0.00000  Uiso   1.00
C6     C     0.13887   0.13163   0.40657   0.00000  Uiso   1.00
C7     C     0.18951   0.21040   0.04815   0.00000  Uiso   1.00
C8     C     0.13540   0.13118   0.45272   0.00000  Uiso   1.00
C9     C     0.16178   0.16925   0.02379   0.00000  Uiso   1.00
C10    C     0.16373   0.17197   0.47704   0.00000  Uiso   1.00
C11    C     0.13302   0.12515   0.04617   0.00000  Uiso   1.00
C12    C     0.15147   0.06850   0.25275   0.00000  Uiso   1.00
C13    C     0.19380   0.21528   0.45455   0.00000  Uiso   1.00
C14    C     0.21696   0.25390   0.02672   0.00000  Uiso   1.00
C15    C     0.10352   0.09012   0.47446   0.00000  Uiso   1.00
C16    C     0.15378   0.04631   0.12620   0.00000  Uiso   1.00
C17    C     0.12566   0.32929   0.14629   0.00000  Uiso   1.00
C18    C     0.27281   0.24882   0.35981   0.00000  Uiso   1.00
C19    C     0.31936   0.29215   0.36815   0.00000  Uiso   1.00
C20    C     0.24418   0.01504   0.47980   0.00000  Uiso   1.00
C21    C     0.26145   0.05843   0.44667   0.00000  Uiso   1.00
C22    C     0.08733   0.32871   0.02796   0.00000  Uiso   1.00
C23    C     0.21883   0.25778   0.47991   0.00000  Uiso   1.00
C24    C     0.04059   0.28622   0.04066   0.00000  Uiso   1.00
C25    C     0.10352   0.08513   0.02093   0.00000  Uiso   1.00
C26    C     0.19030   0.31961   0.25161   0.00000  Uiso   1.00
C27    C     0.14374   0.01403   0.25661   0.00000  Uiso   1.00
C28    C     0.16830   0.17042   0.33633   0.00000  Uiso   1.00
C29    C     0.16539   0.16517   0.16366   0.00000  Uiso   1.00
C30    C     0.13573   0.12253   0.09306   0.00000  Uiso   1.00
H31    H     0.23803   0.28431   0.04691   0.00000  Uiso   1.00
H32    H     0.15914   0.30556   0.15877   0.00000  Uiso   1.00
H33    H     0.09445   0.00529   0.17448   0.00000  Uiso   1.00
H34    H     0.26456   0.25007   0.32384   0.00000  Uiso   1.00
H35    H     0.29013   0.21043   0.36701   0.00000  Uiso   1.00
H36    H     0.00097   0.28982   0.40255   0.00000  Uiso   1.00
H37    H     0.02363   0.28751   0.34395   0.00000  Uiso   1.00
H38    H     0.30269   0.33112   0.36338   0.00000  Uiso   1.00
H39    H     0.21139   0.23928   0.11319   0.00000  Uiso   1.00
H40    H     0.11719   0.10008   0.38767   0.00000  Uiso   1.00
H41    H     0.27335   0.02014   0.00780   0.00000  Uiso   1.00
H42    H     0.07843   0.06161   0.45498   0.00000  Uiso   1.00
H43    H     0.19913   0.01996   0.49252   0.00000  Uiso   1.00
H44    H     0.23318   0.05502   0.41801   0.00000  Uiso   1.00
H45    H     0.25719   0.09726   0.46359   0.00000  Uiso   1.00
H46    H     0.30694   0.05572   0.43389   0.00000  Uiso   1.00
H47    H     0.12655   0.32100   0.04505   0.00000  Uiso   1.00
H48    H     0.09729   0.32450   0.49120   0.00000  Uiso   1.00
H49    H     0.02231   0.29271   0.07544   0.00000  Uiso   1.00
H50    H     0.00575   0.28640   0.01714   0.00000  Uiso   1.00
H51    H     0.05885   0.24718   0.03813   0.00000  Uiso   1.00
H52    H     0.23424   0.00345   0.24686   0.00000  Uiso   1.00
H53    H     0.09985   0.33016   0.26169   0.00000  Uiso   1.00
H54    H     0.00426   0.12681   0.21656   0.00000  Uiso   1.00
H55    H     0.32943   0.20691   0.28297   0.00000  Uiso   1.00
H56    H     0.18241   0.06486   0.15125   0.00000  Uiso   1.00
H57    H     0.18088   0.03610   0.09555   0.00000  Uiso   1.00
H58    H     0.10239   0.30555   0.12090   0.00000  Uiso   1.00
N59    N     0.31678   0.15265   0.23783   0.00000  Uiso   1.00
N60    N     0.01656   0.18068   0.26217   0.00000  Uiso   1.00
O61    O     0.12975   0.24619   0.25299   0.00000  Uiso   1.00
O62    O     0.22069   0.25890   0.38443   0.00000  Uiso   1.00
O63    O     0.25006   0.29914   0.45790   0.00000  Uiso   1.00
O64    O     0.06877   0.04529   0.04179   0.00000  Uiso   1.00
O65    O     0.20358   0.08714   0.24702   0.00000  Uiso   1.00
O66    O     0.22613   0.23721   0.24519   0.00000  Uiso   1.00
O67    O     0.10720   0.09613   0.25482   0.00000  Uiso   1.00
O68    O     0.11847   0.17117   0.31998   0.00000  Uiso   1.00
O69    O     0.21486   0.16216   0.18003   0.00000  Uiso   1.00
O70    O     0.21485   0.16219   0.31218   0.00000  Uiso   1.00
O71    O     0.11848   0.17115   0.18783   0.00000  Uiso   1.00
O72    O     0.11051   0.07978   0.11645   0.00000  Uiso   1.00
Zn73   Zn    0.10231   0.17266   0.25521   0.00000  Uiso   1.00
Zn74   Zn    0.23102   0.16067   0.24479   0.00000  Uiso   1.00
C75    C     0.51539   0.26493   0.25004   0.00000  Uiso   1.00
C76    C     0.53097   0.21473   0.40719   0.00000  Uiso   1.00
C77    C     0.49659   0.16484   0.11609   0.00000  Uiso   1.00
C78    C     0.50349   0.17206   0.38411   0.00000  Uiso   1.00
C79    C     0.52333   0.20776   0.09412   0.00000  Uiso   1.00
C80    C     0.47220   0.13163   0.40657   0.00000  Uiso   1.00
C81    C     0.52284   0.21040   0.04815   0.00000  Uiso   1.00
C82    C     0.46873   0.13118   0.45272   0.00000  Uiso   1.00
C83    C     0.49511   0.16925   0.02379   0.00000  Uiso   1.00
C84    C     0.49706   0.17197   0.47704   0.00000  Uiso   1.00
C85    C     0.46636   0.12515   0.04617   0.00000  Uiso   1.00
C86    C     0.48480   0.06850   0.25275   0.00000  Uiso   1.00
C87    C     0.52713   0.21528   0.45455   0.00000  Uiso   1.00
C88    C     0.55029   0.25390   0.02672   0.00000  Uiso   1.00
C89    C     0.43686   0.09012   0.47446   0.00000  Uiso   1.00
C90    C     0.48712   0.04631   0.12620   0.00000  Uiso   1.00
C91    C     0.45900   0.32929   0.14629   0.00000  Uiso   1.00
C92    C     0.60614   0.24882   0.35981   0.00000  Uiso   1.00
C93    C     0.65269   0.29215   0.36815   0.00000  Uiso   1.00
C94    C     0.57751   0.01504   0.47980   0.00000  Uiso   1.00
C95    C     0.59478   0.05843   0.44667   0.00000  Uiso   1.00
C96    C     0.42067   0.32871   0.02796   0.00000  Uiso   1.00
C97    C     0.55216   0.25778   0.47991   0.00000  Uiso   1.00
C98    C     0.37393   0.28622   0.04066   0.00000  Uiso   1.00
C99    C     0.43685   0.08513   0.02093   0.00000  Uiso   1.00
C100   C     0.52364   0.31961   0.25161   0.00000  Uiso   1.00
C101   C     0.47707   0.01403   0.25661   0.00000  Uiso   1.00
C102   C     0.50163   0.17042   0.33633   0.00000  Uiso   1.00
C103   C     0.49872   0.16517   0.16366   0.00000  Uiso   1.00
C104   C     0.46906   0.12253   0.09306   0.00000  Uiso   1.00
H105   H     0.57136   0.28431   0.04691   0.00000  Uiso   1.00
H106   H     0.49248   0.30556   0.15877   0.00000  Uiso   1.00
H107   H     0.42778   0.00529   0.17448   0.00000  Uiso   1.00
H108   H     0.59789   0.25007   0.32384   0.00000  Uiso   1.00
H109   H     0.62346   0.21043   0.36701   0.00000  Uiso   1.00
H110   H     0.33430   0.28982   0.40255   0.00000  Uiso   1.00
H111   H     0.35696   0.28751   0.34395   0.00000  Uiso   1.00
H112   H     0.63602   0.33112   0.36338   0.00000  Uiso   1.00
H113   H     0.54472   0.23928   0.11319   0.00000  Uiso   1.00
H114   H     0.45053   0.10008   0.38767   0.00000  Uiso   1.00
H115   H     0.60669   0.02014   0.00780   0.00000  Uiso   1.00
H116   H     0.41176   0.06161   0.45498   0.00000  Uiso   1.00
H117   H     0.53246   0.01996   0.49252   0.00000  Uiso   1.00
H118   H     0.56651   0.05502   0.41801   0.00000  Uiso   1.00
H119   H     0.59052   0.09726   0.46359   0.00000  Uiso   1.00
H120   H     0.64028   0.05572   0.43389   0.00000  Uiso   1.00
H121   H     0.45988   0.32100   0.04505   0.00000  Uiso   1.00
H122   H     0.43062   0.32450   0.49120   0.00000  Uiso   1.00
H123   H     0.35564   0.29271   0.07544   0.00000  Uiso   1.00
H124   H     0.33908   0.28640   0.01714   0.00000  Uiso   1.00
H125   H     0.39218   0.24718   0.03813   0.00000  Uiso   1.00
H126   H     0.56757   0.00345   0.24686   0.00000  Uiso   1.00
H127   H     0.43319   0.33016   0.26169   0.00000  Uiso   1.00
H128   H     0.33759   0.12681   0.21656   0.00000  Uiso   1.00
H129   H     0.66277   0.20691   0.28297   0.00000  Uiso   1.00
H130   H     0.51574   0.06486   0.15125   0.00000  Uiso   1.00
H131   H     0.51421   0.03610   0.09555   0.00000  Uiso   1.00
H132   H     0.43573   0.30555   0.12090   0.00000  Uiso   1.00
N133   N     0.65011   0.15265   0.23783   0.00000  Uiso   1.00
N134   N     0.34989   0.18068   0.26217   0.00000  Uiso   1.00
O135   O     0.46308   0.24619   0.25299   0.00000  Uiso   1.00
O136   O     0.55402   0.25890   0.38443   0.00000  Uiso   1.00
O137   O     0.58339   0.29914   0.45790   0.00000  Uiso   1.00
O138   O     0.40210   0.04529   0.04179   0.00000  Uiso   1.00
O139   O     0.53692   0.08714   0.24702   0.00000  Uiso   1.00
O140   O     0.55946   0.23721   0.24519   0.00000  Uiso   1.00
O141   O     0.44054   0.09613   0.25482   0.00000  Uiso   1.00
O142   O     0.45181   0.17117   0.31998   0.00000  Uiso   1.00
O143   O     0.54819   0.16216   0.18003   0.00000  Uiso   1.00
O144   O     0.54819   0.16219   0.31218   0.00000  Uiso   1.00
O145   O     0.45181   0.17115   0.18783   0.00000  Uiso   1.00
O146   O     0.44385   0.07978   0.11645   0.00000  Uiso   1.00
Zn147  Zn    0.43565   0.17266   0.25521   0.00000  Uiso   1.00
Zn148  Zn    0.56435   0.16067   0.24479   0.00000  Uiso   1.00
C149   C     0.84872   0.26493   0.25004   0.00000  Uiso   1.00
C150   C     0.86430   0.21473   0.40719   0.00000  Uiso   1.00
C151   C     0.82992   0.16484   0.11609   0.00000  Uiso   1.00
C152   C     0.83683   0.17206   0.38411   0.00000  Uiso   1.00
C153   C     0.85666   0.20776   0.09412   0.00000  Uiso   1.00
C154   C     0.80554   0.13163   0.40657   0.00000  Uiso   1.00
C155   C     0.85617   0.21040   0.04815   0.00000  Uiso   1.00
C156   C     0.80206   0.13118   0.45272   0.00000  Uiso   1.00
C157   C     0.82844   0.16925   0.02379   0.00000  Uiso   1.00
C158   C     0.83039   0.17197   0.47704   0.00000  Uiso   1.00
C159   C     0.79969   0.12515   0.04617   0.00000  Uiso   1.00
C160   C     0.81813   0.06850   0.25275   0.00000  Uiso   1.00
C161   C     0.86047   0.21528   0.45455   0.00000  Uiso   1.00
C162   C     0.88363   0.25390   0.02672   0.00000  Uiso   1.00
C163   C     0.77019   0.09012   0.47446   0.00000  Uiso   1.00
C164   C     0.82045   0.04631   0.12620   0.00000  Uiso   1.00
C165   C     0.79233   0.32929   0.14629   0.00000  Uiso   1.00
C166   C     0.93948   0.24882   0.35981   0.00000  Uiso   1.00
C167   C     0.98603   0.29215   0.36815   0.00000  Uiso   1.00
C168   C     0.91085   0.01504   0.47980   0.00000  Uiso   1.00
C169   C     0.92811   0.05843   0.44667   0.00000  Uiso   1.00
C170   C     0.75400   0.32871   0.02796   0.00000  Uiso   1.00
C171   C     0.88549   0.25778   0.47991   0.00000  Uiso   1.00
C172   C     0.70726   0.28622   0.04066   0.00000  Uiso   1.00
C173   C     0.77018   0.08513   0.02093   0.00000  Uiso   1.00
C174   C     0.85697   0.31961   0.25161   0.00000  Uiso   1.00
C175   C     0.81041   0.01403   0.25661   0.00000  Uiso   1.00
C176   C     0.83496   0.17042   0.33633   0.00000  Uiso   1.00
C177   C     0.83205   0.16517   0.16366   0.00000  Uiso   1.00
C178   C     0.80239   0.12253   0.09306   0.00000  Uiso   1.00
H179   H     0.90470   0.28431   0.04691   0.00000  Uiso   1.00
H180   H     0.82581   0.30556   0.15877   0.00000  Uiso   1.00
H181   H     0.76111   0.00529   0.17448   0.00000  Uiso   1.00
H182   H     0.93123   0.25007   0.32384   0.00000  Uiso   1.00
H183   H     0.95680   0.21043   0.36701   0.00000  Uiso   1.00
H184   H     0.66763   0.28982   0.40255   0.00000  Uiso   1.00
H185   H     0.69030   0.28751   0.34395   0.00000  Uiso   1.00
H186   H     0.96935   0.33112   0.36338   0.00000  Uiso   1.00
H187   H     0.87805   0.23928   0.11319   0.00000  Uiso   1.00
H188   H     0.78386   0.10008   0.38767   0.00000  Uiso   1.00
H189   H     0.94002   0.02014   0.00780   0.00000  Uiso   1.00
H190   H     0.74510   0.06161   0.45498   0.00000  Uiso   1.00
H191   H     0.86579   0.01996   0.49252   0.00000  Uiso   1.00
H192   H     0.89985   0.05502   0.41801   0.00000  Uiso   1.00
H193   H     0.92386   0.09726   0.46359   0.00000  Uiso   1.00
H194   H     0.97361   0.05572   0.43389   0.00000  Uiso   1.00
H195   H     0.79322   0.32100   0.04505   0.00000  Uiso   1.00
H196   H     0.76395   0.32450   0.49120   0.00000  Uiso   1.00
H197   H     0.68898   0.29271   0.07544   0.00000  Uiso   1.00
H198   H     0.67241   0.28640   0.01714   0.00000  Uiso   1.00
H199   H     0.72551   0.24718   0.03813   0.00000  Uiso   1.00
H200   H     0.90090   0.00345   0.24686   0.00000  Uiso   1.00
H201   H     0.76652   0.33016   0.26169   0.00000  Uiso   1.00
H202   H     0.67092   0.12681   0.21656   0.00000  Uiso   1.00
H203   H     0.99610   0.20691   0.28297   0.00000  Uiso   1.00
H204   H     0.84908   0.06486   0.15125   0.00000  Uiso   1.00
H205   H     0.84755   0.03610   0.09555   0.00000  Uiso   1.00
H206   H     0.76906   0.30555   0.12090   0.00000  Uiso   1.00
N207   N     0.98344   0.15265   0.23783   0.00000  Uiso   1.00
N208   N     0.68322   0.18068   0.26217   0.00000  Uiso   1.00
O209   O     0.79642   0.24619   0.25299   0.00000  Uiso   1.00
O210   O     0.88735   0.25890   0.38443   0.00000  Uiso   1.00
O211   O     0.91672   0.29914   0.45790   0.00000  Uiso   1.00
O212   O     0.73544   0.04529   0.04179   0.00000  Uiso   1.00
O213   O     0.87025   0.08714   0.24702   0.00000  Uiso   1.00
O214   O     0.89280   0.23721   0.24519   0.00000  Uiso   1.00
O215   O     0.77387   0.09613   0.25482   0.00000  Uiso   1.00
O216   O     0.78514   0.17117   0.31998   0.00000  Uiso   1.00
O217   O     0.88153   0.16216   0.18003   0.00000  Uiso   1.00
O218   O     0.88152   0.16219   0.31218   0.00000  Uiso   1.00
O219   O     0.78515   0.17115   0.18783   0.00000  Uiso   1.00
O220   O     0.77718   0.07978   0.11645   0.00000  Uiso   1.00
Zn221  Zn    0.76898   0.17266   0.25521   0.00000  Uiso   1.00
Zn222  Zn    0.89769   0.16067   0.24479   0.00000  Uiso   1.00
C223   C     0.18206   0.59827   0.25004   0.00000  Uiso   1.00
C224   C     0.19764   0.54807   0.40719   0.00000  Uiso   1.00
C225   C     0.16325   0.49817   0.11609   0.00000  Uiso   1.00
C226   C     0.17016   0.50540   0.38411   0.00000  Uiso   1.00
C227   C     0.18999   0.54109   0.09412   0.00000  Uiso   1.00
C228   C     0.13887   0.46496   0.40657   0.00000  Uiso   1.00
C229   C     0.18951   0.54373   0.04815   0.00000  Uiso   1.00
C230   C     0.13540   0.46451   0.45272   0.00000  Uiso   1.00
C231   C     0.16178   0.50259   0.02379   0.00000  Uiso   1.00
C232   C     0.16373   0.50530   0.47704   0.00000  Uiso   1.00
C233   C     0.13302   0.45848   0.04617   0.00000  Uiso   1.00
C234   C     0.15147   0.40184   0.25275   0.00000  Uiso   1.00
C235   C     0.19380   0.54862   0.45455   0.00000  Uiso   1.00
C236   C     0.21696   0.58723   0.02672   0.00000  Uiso   1.00
C237   C     0.10352   0.42346   0.47446   0.00000  Uiso   1.00
C238   C     0.15378   0.37964   0.12620   0.00000  Uiso   1.00
C239   C     0.12566   0.66263   0.14629   0.00000  Uiso   1.00
C240   C     0.27281   0.58215   0.35981   0.00000  Uiso   1.00
C241   C     0.31936   0.62548   0.36815   0.00000  Uiso   1.00
C242   C     0.24418   0.34837   0.47980   0.00000  Uiso   1.00
C243   C     0.26145   0.39177   0.44667   0.00000  Uiso   1.00
C244   C     0.08733   0.66204   0.02796   0.00000  Uiso   1.00
C245   C     0.21883   0.59111   0.47991   0.00000  Uiso   1.00
C246   C     0.04059   0.61955   0.04066   0.00000  Uiso   1.00
C247   C     0.10352   0.41847   0.02093   0.00000  Uiso   1.00
C248   C     0.19030   0.65294   0.25161   0.00000  Uiso   1.00
C249   C     0.14374   0.34737   0.25661   0.00000  Uiso   1.00
C250   C     0.16830   0.50375   0.33633   0.00000  Uiso   1.00
C251   C     0.16539   0.49851   0.16366   0.00000  Uiso   1.00
C252   C     0.13573   0.45586   0.09306   0.00000  Uiso   1.00
H253   H     0.23803   0.61765   0.04691   0.00000  Uiso   1.00
H254   H     0.15914   0.63889   0.15877   0.00000  Uiso   1.00
H255   H     0.09445   0.33863   0.17448   0.00000  Uiso   1.00
H256   H     0.26456   0.58340   0.32384   0.00000  Uiso   1.00
H257   H     0.29013   0.54377   0.36701   0.00000  Uiso   1.00
H258   H     0.00097   0.62315   0.40255   0.00000  Uiso   1.00
H259   H     0.02363   0.62084   0.34395   0.00000  Uiso   1.00
H260   H     0.30269   0.66446   0.36338   0.00000  Uiso   1.00
H261   H     0.21139   0.57261   0.11319   0.00000  Uiso   1.00
H262   H     0.11719   0.43341   0.38767   0.00000  Uiso   1.00
H263   H     0.27335   0.35347   0.00780   0.00000  Uiso   1.00
H264   H     0.07843   0.39495   0.45498   0.00000  Uiso   1.00
H265   H     0.19913   0.35329   0.49252   0.00000  Uiso   1.00
H266   H     0.23318   0.38835   0.41801   0.00000  Uiso   1.00
H267   H     0.25719   0.43059   0.46359   0.00000  Uiso   1.00
H268   H     0.30694   0.38905   0.43389   0.00000  Uiso   1.00
H269   H     0.12655   0.65434   0.04505   0.00000  Uiso   1.00
H270   H     0.09729   0.65784   0.49120   0.00000  Uiso   1.00
H271   H     0.02231   0.62604   0.07544   0.00000  Uiso   1.00
H272   H     0.00575   0.61973   0.01714   0.00000  Uiso   1.00
H273   H     0.05885   0.58051   0.03813   0.00000  Uiso   1.00
H274   H     0.23424   0.33678   0.24686   0.00000  Uiso   1.00
H275   H     0.09985   0.66349   0.26169   0.00000  Uiso   1.00
H276   H     0.00426   0.46014   0.21656   0.00000  Uiso   1.00
H277   H     0.32943   0.54024   0.28297   0.00000  Uiso   1.00
H278   H     0.18241   0.39819   0.15125   0.00000  Uiso   1.00
H279   H     0.18088   0.36944   0.09555   0.00000  Uiso   1.00
H280   H     0.10239   0.63889   0.12090   0.00000  Uiso   1.00
N281   N     0.31678   0.48598   0.23783   0.00000  Uiso   1.00
N282   N     0.01656   0.51402   0.26217   0.00000  Uiso   1.00
O283   O     0.12975   0.57952   0.25299   0.00000  Uiso   1.00
O284   O     0.22069   0.59224   0.38443   0.00000  Uiso   1.00
O285   O     0.25006   0.63248   0.45790   0.00000  Uiso   1.00
O286   O     0.06877   0.37862   0.04179   0.00000  Uiso   1.00
O287   O     0.20358   0.42048   0.24702   0.00000  Uiso   1.00
O288   O     0.22613   0.57054   0.24519   0.00000  Uiso   1.00
O289   O     0.10720   0.42946   0.25482   0.00000  Uiso   1.00
O290   O     0.11847   0.50450   0.31998   0.00000  Uiso   1.00
O291   O     0.21486   0.49550   0.18003   0.00000  Uiso   1.00
O292   O     0.21485   0.49552   0.31218   0.00000  Uiso   1.00
O293   O     0.11848   0.50448   0.18783   0.00000  Uiso   1.00
O294   O     0.11051   0.41312   0.11645   0.00000  Uiso   1.00
Zn295  Zn    0.10231   0.50600   0.25521   0.00000  Uiso   1.00
Zn296  Zn    0.23102   0.49400   0.24479   0.00000  Uiso   1.00
C297   C     0.51539   0.59827   0.25004   0.00000  Uiso   1.00
C298   C     0.53097   0.54807   0.40719   0.00000  Uiso   1.00
C299   C     0.49659   0.49817   0.11609   0.00000  Uiso   1.00
C300   C     0.50349   0.50540   0.38411   0.00000  Uiso   1.00
C301   C     0.52333   0.54109   0.09412   0.00000  Uiso   1.00
C302   C     0.47220   0.46496   0.40657   0.00000  Uiso   1.00
C303   C     0.52284   0.54373   0.04815   0.00000  Uiso   1.00
C304   C     0.46873   0.46451   0.45272   0.00000  Uiso   1.00
C305   C     0.49511   0.50259   0.02379   0.00000  Uiso   1.00
C306   C     0.49706   0.50530   0.47704   0.00000  Uiso   1.00
C307   C     0.46636   0.45848   0.04617   0.00000  Uiso   1.00
C308   C     0.48480   0.40184   0.25275   0.00000  Uiso   1.00
C309   C     0.52713   0.54862   0.45455   0.00000  Uiso   1.00
C310   C     0.55029   0.58723   0.02672   0.00000  Uiso   1.00
C311   C     0.43686   0.42346   0.47446   0.00000  Uiso   1.00
C312   C     0.48712   0.37964   0.12620   0.00000  Uiso   1.00
C313   C     0.45900   0.66263   0.14629   0.00000  Uiso   1.00
C314   C     0.60614   0.58215   0.35981   0.00000  Uiso   1.00
C315   C     0.65269   0.62548   0.36815   0.00000  Uiso   1.00
C316   C     0.57751   0.34837   0.47980   0.00000  Uiso   1.00
C317   C     0.59478   0.39177   0.44667   0.00000  Uiso   1.00
C318   C     0.42067   0.66204   0.02796   0.00000  Uiso   1.00
C319   C     0.55216   0.59111   0.47991   0.00000  Uiso   1.00
C320   C     0.37393   0.61955   0.04066   0.00000  Uiso   1.00
C321   C     0.43685   0.41847   0.02093   0.00000  Uiso   1.00
C322   C     0.52364   0.65294   0.25161   0.00000  Uiso   1.00
C323   C     0.47707   0.34737   0.25661   0.00000  Uiso   1.00
C324   C     0.50163   0.50375   0.33633   0.00000  Uiso   1.00
C325   C     0.49872   0.49851   0.16366   0.00000  Uiso   1.00
C326   C     0.46906   0.45586   0.09306   0.00000  Uiso   1.00
H327   H     0.57136   0.61765   0.04691   0.00000  Uiso   1.00
H328   H     0.49248   0.63889   0.15877   0.00000  Uiso   1.00
H329   H     0.42778   0.33863   0.17448   0.00000  Uiso   1.00
H330   H     0.59789   0.58340   0.32384   0.00000  Uiso   1.00
H331   H     0.62346   0.54377   0.36701   0.00000  Uiso   1.00
H332   H     0.33430   0.62315   0.40255   0.00000  Uiso   1.00
H333   H     0.35696   0.62084   0.34395   0.00000  Uiso   1.00
H334   H     0.63602   0.66446   0.36338   0.00000  Uiso   1.00
H335   H     0.54472   0.57261   0.11319   0.00000  Uiso   1.00
H336   H     0.45053   0.43341   0.38767   0.00000  Uiso   1.00
H337   H     0.60669   0.35347   0.00780   0.00000  Uiso   1.00
H338   H     0.41176   0.39495   0.45498   0.00000  Uiso   1.00
H339   H     0.53246   0.35329   0.49252   0.00000  Uiso   1.00
H340   H     0.56651   0.38835   0.41801   0.00000  Uiso   1.00
H341   H     0.59052   0.43059   0.46359   0.00000  Uiso   1.00
H342   H     0.64028   0.38905   0.43389   0.00000  Uiso   1.00
H343   H     0.45988   0.65434   0.04505   0.00000  Uiso   1.00
H344   H     0.43062   0.65784   0.49120   0.00000  Uiso   1.00
H345   H     0.35564   0.62604   0.07544   0.00000  Uiso   1.00
H346   H     0.33908   0.61973   0.01714   0.00000  Uiso   1.00
H347   H     0.39218   0.58051   0.03813   0.00000  Uiso   1.00
H348   H     0.56757   0.33678   0.24686   0.00000  Uiso   1.00
H349   H     0.43319   0.66349   0.26169   0.00000  Uiso   1.00
H350   H     0.33759   0.46014   0.21656   0.00000  Uiso   1.00
H351   H     0.66277   0.54024   0.28297   0.00000  Uiso   1.00
H352   H     0.51574   0.39819   0.15125   0.00000  Uiso   1.00
H353   H     0.51421   0.36944   0.09555   0.00000  Uiso   1.00
H354   H     0.43573   0.63889   0.12090   0.00000  Uiso   1.00
N355   N     0.65011   0.48598   0.23783   0.00000  Uiso   1.00
N356   N     0.34989   0.51402   0.26217   0.00000  Uiso   1.00
O357   O     0.46308   0.57952   0.25299   0.00000  Uiso   1.00
O358   O     0.55402   0.59224   0.38443   0.00000  Uiso   1.00
O359   O     0.58339   0.63248   0.45790   0.00000  Uiso   1.00
O360   O     0.40210   0.37862   0.04179   0.00000  Uiso   1.00
O361   O     0.53692   0.42048   0.24702   0.00000  Uiso   1.00
O362   O     0.55946   0.57054   0.24519   0.00000  Uiso   1.00
O363   O     0.44054   0.42946   0.25482   0.00000  Uiso   1.00
O364   O     0.45181   0.50450   0.31998   0.00000  Uiso   1.00
O365   O     0.54819   0.49550   0.18003   0.00000  Uiso   1.00
O366   O     0.54819   0.49552   0.31218   0.00000  Uiso   1.00
O367   O     0.45181   0.50448   0.18783   0.00000  Uiso   1.00
O368   O     0.44385   0.41312   0.11645   0.00000  Uiso   1.00
Zn369  Zn    0.43565   0.50600   0.25521   0.00000  Uiso   1.00
Zn370  Zn    0.56435   0.49400   0.24479   0.00000  Uiso   1.00
C371   C     0.84872   0.59827   0.25004   0.00000  Uiso   1.00
C372   C     0.86430   0.54807   0.40719   0.00000  Uiso   1.00
C373   C     0.82992   0.49817   0.11609   0.00000  Uiso   1.00
C374   C     0.83683   0.50540   0.38411   0.00000  Uiso   1.00
C375   C     0.85666   0.54109   0.09412   0.00000  Uiso   1.00
C376   C     0.80554   0.46496   0.40657   0.00000  Uiso   1.00
C377   C     0.85617   0.54373   0.04815   0.00000  Uiso   1.00
C378   C     0.80206   0.46451   0.45272   0.00000  Uiso   1.00
C379   C     0.82844   0.50259   0.02379   0.00000  Uiso   1.00
C380   C     0.83039   0.50530   0.47704   0.00000  Uiso   1.00
C381   C     0.79969   0.45848   0.04617   0.00000  Uiso   1.00
C382   C     0.81813   0.40184   0.25275   0.00000  Uiso   1.00
C383   C     0.86047   0.54862   0.45455   0.00000  Uiso   1.00
C384   C     0.88363   0.58723   0.02672   0.00000  Uiso   1.00
C385   C     0.77019   0.42346   0.47446   0.00000  Uiso   1.00
C386   C     0.82045   0.37964   0.12620   0.00000  Uiso   1.00
C387   C     0.79233   0.66263   0.14629   0.00000  Uiso   1.00
C388   C     0.93948   0.58215   0.35981   0.00000  Uiso   1.00
C389   C     0.98603   0.62548   0.36815   0.00000  Uiso   1.00
C390   C     0.91085   0.34837   0.47980   0.00000  Uiso   1.00
C391   C     0.92811   0.39177   0.44667   0.00000  Uiso   1.00
C392   C     0.75400   0.66204   0.02796   0.00000  Uiso   1.00
C393   C     0.88549   0.59111   0.47991   0.00000  Uiso   1.00
C394   C     0.70726   0.61955   0.04066   0.00000  Uiso   1.00
C395   C     0.77018   0.41847   0.02093   0.00000  Uiso   1.00
C396   C     0.85697   0.65294   0.25161   0.00000  Uiso   1.00
C397   C     0.81041   0.34737   0.25661   0.00000  Uiso   1.00
C398   C     0.83496   0.50375   0.33633   0.00000  Uiso   1.00
C399   C     0.83205   0.49851   0.16366   0.00000  Uiso   1.00
C400   C     0.80239   0.45586   0.09306   0.00000  Uiso   1.00
H401   H     0.90470   0.61765   0.04691   0.00000  Uiso   1.00
H402   H     0.82581   0.63889   0.15877   0.00000  Uiso   1.00
H403   H     0.76111   0.33863   0.17448   0.00000  Uiso   1.00
H404   H     0.93123   0.58340   0.32384   0.00000  Uiso   1.00
H405   H     0.95680   0.54377   0.36701   0.00000  Uiso   1.00
H406   H     0.66763   0.62315   0.40255   0.00000  Uiso   1.00
H407   H     0.69030   0.62084   0.34395   0.00000  Uiso   1.00
H408   H     0.96935   0.66446   0.36338   0.00000  Uiso   1.00
H409   H     0.87805   0.57261   0.11319   0.00000  Uiso   1.00
H410   H     0.78386   0.43341   0.38767   0.00000  Uiso   1.00
H411   H     0.94002   0.35347   0.00780   0.00000  Uiso   1.00
H412   H     0.74510   0.39495   0.45498   0.00000  Uiso   1.00
H413   H     0.86579   0.35329   0.49252   0.00000  Uiso   1.00
H414   H     0.89985   0.38835   0.41801   0.00000  Uiso   1.00
H415   H     0.92386   0.43059   0.46359   0.00000  Uiso   1.00
H416   H     0.97361   0.38905   0.43389   0.00000  Uiso   1.00
H417   H     0.79322   0.65434   0.04505   0.00000  Uiso   1.00
H418   H     0.76395   0.65784   0.49120   0.00000  Uiso   1.00
H419   H     0.68898   0.62604   0.07544   0.00000  Uiso   1.00
H420   H     0.67241   0.61973   0.01714   0.00000  Uiso   1.00
H421   H     0.72551   0.58051   0.03813   0.00000  Uiso   1.00
H422   H     0.90090   0.33678   0.24686   0.00000  Uiso   1.00
H423   H     0.76652   0.66349   0.26169   0.00000  Uiso   1.00
H424   H     0.67092   0.46014   0.21656   0.00000  Uiso   1.00
H425   H     0.99610   0.54024   0.28297   0.00000  Uiso   1.00
H426   H     0.84908   0.39819   0.15125   0.00000  Uiso   1.00
H427   H     0.84755   0.36944   0.09555   0.00000  Uiso   1.00
H428   H     0.76906   0.63889   0.12090   0.00000  Uiso   1.00
N429   N     0.98344   0.48598   0.23783   0.00000  Uiso   1.00
N430   N     0.68322   0.51402   0.26217   0.00000  Uiso   1.00
O431   O     0.79642   0.57952   0.25299   0.00000  Uiso   1.00
O432   O     0.88735   0.59224   0.38443   0.00000  Uiso   1.00
O433   O     0.91672   0.63248   0.45790   0.00000  Uiso   1.00
O434   O     0.73544   0.37862   0.04179   0.00000  Uiso   1.00
O435   O     0.87025   0.42048   0.24702   0.00000  Uiso   1.00
O436   O     0.89280   0.57054   0.24519   0.00000  Uiso   1.00
O437   O     0.77387   0.42946   0.25482   0.00000  Uiso   1.00
O438   O     0.78514   0.50450   0.31998   0.00000  Uiso   1.00
O439   O     0.88153   0.49550   0.18003   0.00000  Uiso   1.00
O440   O     0.88152   0.49552   0.31218   0.00000  Uiso   1.00
O441   O     0.78515   0.50448   0.18783   0.00000  Uiso   1.00
O442   O     0.77718   0.41312   0.11645   0.00000  Uiso   1.00
Zn443  Zn    0.76898   0.50600   0.25521   0.00000  Uiso   1.00
Zn444  Zn    0.89769   0.49400   0.24479   0.00000  Uiso   1.00
C445   C     0.18206   0.93160   0.25004   0.00000  Uiso   1.00
C446   C     0.19764   0.88140   0.40719   0.00000  Uiso   1.00
C447   C     0.16325   0.83150   0.11609   0.00000  Uiso   1.00
C448   C     0.17016   0.83873   0.38411   0.00000  Uiso   1.00
C449   C     0.18999   0.87443   0.09412   0.00000  Uiso   1.00
C450   C     0.13887   0.79830   0.40657   0.00000  Uiso   1.00
C451   C     0.18951   0.87706   0.04815   0.00000  Uiso   1.00
C452   C     0.13540   0.79785   0.45272   0.00000  Uiso   1.00
C453   C     0.16178   0.83592   0.02379   0.00000  Uiso   1.00
C454   C     0.16373   0.83863   0.47704   0.00000  Uiso   1.00
C455   C     0.13302   0.79182   0.04617   0.00000  Uiso   1.00
C456   C     0.15147   0.73517   0.25275   0.00000  Uiso   1.00
C457   C     0.19380   0.88195   0.45455   0.00000  Uiso   1.00
C458   C     0.21696   0.92057   0.02672   0.00000  Uiso   1.00
C459   C     0.10352   0.75679   0.47446   0.00000  Uiso   1.00
C460   C     0.15378   0.71297   0.12620   0.00000  Uiso   1.00
C461   C     0.12566   0.99596   0.14629   0.00000  Uiso   1.00
C462   C     0.27281   0.91549   0.35981   0.00000  Uiso   1.00
C463   C     0.31936   0.95881   0.36815   0.00000  Uiso   1.00
C464   C     0.24418   0.68170   0.47980   0.00000  Uiso   1.00
C465   C     0.26145   0.72510   0.44667   0.00000  Uiso   1.00
C466   C     0.08733   0.99538   0.02796   0.00000  Uiso   1.00
C467   C     0.21883   0.92445   0.47991   0.00000  Uiso   1.00
C468   C     0.04059   0.95288   0.04066   0.00000  Uiso   1.00
C469   C     0.10352   0.75180   0.02093   0.00000  Uiso   1.00
C470   C     0.19030   0.98627   0.25161   0.00000  Uiso   1.00
C471   C     0.14374   0.68070   0.25661   0.00000  Uiso   1.00
C472   C     0.16830   0.83709   0.33633   0.00000  Uiso   1.00
C473   C     0.16539   0.83184   0.16366   0.00000  Uiso   1.00
C474   C     0.13573   0.78920   0.09306   0.00000  Uiso   1.00
H475   H     0.23803   0.95098   0.04691   0.00000  Uiso   1.00
H476   H     0.15914   0.97222   0.15877   0.00000  Uiso   1.00
H477   H     0.09445   0.67196   0.17448   0.00000  Uiso   1.00
H478   H     0.26456   0.91674   0.32384   0.00000  Uiso   1.00
H479   H     0.29013   0.87710   0.36701   0.00000  Uiso   1.00
H480   H     0.00097   0.95649   0.40255   0.00000  Uiso   1.00
H481   H     0.02363   0.95418   0.34395   0.00000  Uiso   1.00
H482   H     0.30269   0.99779   0.36338   0.00000  Uiso   1.00
H483   H     0.21139   0.90594   0.11319   0.00000  Uiso   1.00
H484   H     0.11719   0.76674   0.38767   0.00000  Uiso   1.00
H485   H     0.27335   0.68681   0.00780   0.00000  Uiso   1.00
H486   H     0.07843   0.72828   0.45498   0.00000  Uiso   1.00
H487   H     0.19913   0.68663   0.49252   0.00000  Uiso   1.00
H488   H     0.23318   0.72169   0.41801   0.00000  Uiso   1.00
H489   H     0.25719   0.76392   0.46359   0.00000  Uiso   1.00
H490   H     0.30694   0.72239   0.43389   0.00000  Uiso   1.00
H491   H     0.12655   0.98767   0.04505   0.00000  Uiso   1.00
H492   H     0.09729   0.99117   0.49120   0.00000  Uiso   1.00
H493   H     0.02231   0.95938   0.07544   0.00000  Uiso   1.00
H494   H     0.00575   0.95307   0.01714   0.00000  Uiso   1.00
H495   H     0.05885   0.91385   0.03813   0.00000  Uiso   1.00
H496   H     0.23424   0.67011   0.24686   0.00000  Uiso   1.00
H497   H     0.09985   0.99682   0.26169   0.00000  Uiso   1.00
H498   H     0.00426   0.79348   0.21656   0.00000  Uiso   1.00
H499   H     0.32943   0.87357   0.28297   0.00000  Uiso   1.00
H500   H     0.18241   0.73152   0.15125   0.00000  Uiso   1.00
H501   H     0.18088   0.70277   0.09555   0.00000  Uiso   1.00
H502   H     0.10239   0.97222   0.12090   0.00000  Uiso   1.00
N503   N     0.31678   0.81932   0.23783   0.00000  Uiso   1.00
N504   N     0.01656   0.84735   0.26217   0.00000  Uiso   1.00
O505   O     0.12975   0.91286   0.25299   0.00000  Uiso   1.00
O506   O     0.22069   0.92557   0.38443   0.00000  Uiso   1.00
O507   O     0.25006   0.96581   0.45790   0.00000  Uiso   1.00
O508   O     0.06877   0.71196   0.04179   0.00000  Uiso   1.00
O509   O     0.20358   0.75381   0.24702   0.00000  Uiso   1.00
O510   O     0.22613   0.90387   0.24519   0.00000  Uiso   1.00
O511   O     0.10720   0.76279   0.25482   0.00000  Uiso   1.00
O512   O     0.11847   0.83784   0.31998   0.00000  Uiso   1.00
O513   O     0.21486   0.82883   0.18003   0.00000  Uiso   1.00
O514   O     0.21485   0.82885   0.31218   0.00000  Uiso   1.00
O515   O     0.11848   0.83781   0.18783   0.00000  Uiso   1.00
O516   O     0.11051   0.74645   0.11645   0.00000  Uiso   1.00
Zn517  Zn    0.10231   0.83933   0.25521   0.00000  Uiso   1.00
Zn518  Zn    0.23102   0.82734   0.24479   0.00000  Uiso   1.00
C519   C     0.51539   0.93160   0.25004   0.00000  Uiso   1.00
C520   C     0.53097   0.88140   0.40719   0.00000  Uiso   1.00
C521   C     0.49659   0.83150   0.11609   0.00000  Uiso   1.00
C522   C     0.50349   0.83873   0.38411   0.00000  Uiso   1.00
C523   C     0.52333   0.87443   0.09412   0.00000  Uiso   1.00
C524   C     0.47220   0.79830   0.40657   0.00000  Uiso   1.00
C525   C     0.52284   0.87706   0.04815   0.00000  Uiso   1.00
C526   C     0.46873   0.79785   0.45272   0.00000  Uiso   1.00
C527   C     0.49511   0.83592   0.02379   0.00000  Uiso   1.00
C528   C     0.49706   0.83863   0.47704   0.00000  Uiso   1.00
C529   C     0.46636   0.79182   0.04617   0.00000  Uiso   1.00
C530   C     0.48480   0.73517   0.25275   0.00000  Uiso   1.00
C531   C     0.52713   0.88195   0.45455   0.00000  Uiso   1.00
C532   C     0.55029   0.92057   0.02672   0.00000  Uiso   1.00
C533   C     0.43686   0.75679   0.47446   0.00000  Uiso   1.00
C534   C     0.48712   0.71297   0.12620   0.00000  Uiso   1.00
C535   C     0.45900   0.99596   0.14629   0.00000  Uiso   1.00
C536   C     0.60614   0.91549   0.35981   0.00000  Uiso   1.00
C537   C     0.65269   0.95881   0.36815   0.00000  Uiso   1.00
C538   C     0.57751   0.68170   0.47980   0.00000  Uiso   1.00
C539   C     0.59478   0.72510   0.44667   0.00000  Uiso   1.00
C540   C     0.42067   0.99538   0.02796   0.00000  Uiso   1.00
C541   C     0.55216   0.92445   0.47991   0.00000  Uiso   1.00
C542   C     0.37393   0.95288   0.04066   0.00000  Uiso   1.00
C543   C     0.43685   0.75180   0.02093   0.00000  Uiso   1.00
C544   C     0.52364   0.98627   0.25161   0.00000  Uiso   1.00
C545   C     0.47707   0.68070   0.25661   0.00000  Uiso   1.00
C546   C     0.50163   0.83709   0.33633   0.00000  Uiso   1.00
C547   C     0.49872   0.83184   0.16366   0.00000  Uiso   1.00
C548   C     0.46906   0.78920   0.09306   0.00000  Uiso   1.00
H549   H     0.57136   0.95098   0.04691   0.00000  Uiso   1.00
H550   H     0.49248   0.97222   0.15877   0.00000  Uiso   1.00
H551   H     0.42778   0.67196   0.17448   0.00000  Uiso   1.00
H552   H     0.59789   0.91674   0.32384   0.00000  Uiso   1.00
H553   H     0.62346   0.87710   0.36701   0.00000  Uiso   1.00
H554   H     0.33430   0.95649   0.40255   0.00000  Uiso   1.00
H555   H     0.35696   0.95418   0.34395   0.00000  Uiso   1.00
H556   H     0.63602   0.99779   0.36338   0.00000  Uiso   1.00
H557   H     0.54472   0.90594   0.11319   0.00000  Uiso   1.00
H558   H     0.45053   0.76674   0.38767   0.00000  Uiso   1.00
H559   H     0.60669   0.68681   0.00780   0.00000  Uiso   1.00
H560   H     0.41176   0.72828   0.45498   0.00000  Uiso   1.00
H561   H     0.53246   0.68663   0.49252   0.00000  Uiso   1.00
H562   H     0.56651   0.72169   0.41801   0.00000  Uiso   1.00
H563   H     0.59052   0.76392   0.46359   0.00000  Uiso   1.00
H564   H     0.64028   0.72239   0.43389   0.00000  Uiso   1.00
H565   H     0.45988   0.98767   0.04505   0.00000  Uiso   1.00
H566   H     0.43062   0.99117   0.49120   0.00000  Uiso   1.00
H567   H     0.35564   0.95938   0.07544   0.00000  Uiso   1.00
H568   H     0.33908   0.95307   0.01714   0.00000  Uiso   1.00
H569   H     0.39218   0.91385   0.03813   0.00000  Uiso   1.00
H570   H     0.56757   0.67011   0.24686   0.00000  Uiso   1.00
H571   H     0.43319   0.99682   0.26169   0.00000  Uiso   1.00
H572   H     0.33759   0.79348   0.21656   0.00000  Uiso   1.00
H573   H     0.66277   0.87357   0.28297   0.00000  Uiso   1.00
H574   H     0.51574   0.73152   0.15125   0.00000  Uiso   1.00
H575   H     0.51421   0.70277   0.09555   0.00000  Uiso   1.00
H576   H     0.43573   0.97222   0.12090   0.00000  Uiso   1.00
N577   N     0.65011   0.81932   0.23783   0.00000  Uiso   1.00
N578   N     0.34989   0.84735   0.26217   0.00000  Uiso   1.00
O579   O     0.46308   0.91286   0.25299   0.00000  Uiso   1.00
O580   O     0.55402   0.92557   0.38443   0.00000  Uiso   1.00
O581   O     0.58339   0.96581   0.45790   0.00000  Uiso   1.00
O582   O     0.40210   0.71196   0.04179   0.00000  Uiso   1.00
O583   O     0.53692   0.75381   0.24702   0.00000  Uiso   1.00
O584   O     0.55946   0.90387   0.24519   0.00000  Uiso   1.00
O585   O     0.44054   0.76279   0.25482   0.00000  Uiso   1.00
O586   O     0.45181   0.83784   0.31998   0.00000  Uiso   1.00
O587   O     0.54819   0.82883   0.18003   0.00000  Uiso   1.00
O588   O     0.54819   0.82885   0.31218   0.00000  Uiso   1.00
O589   O     0.45181   0.83781   0.18783   0.00000  Uiso   1.00
O590   O     0.44385   0.74645   0.11645   0.00000  Uiso   1.00
Zn591  Zn    0.43565   0.83933   0.25521   0.00000  Uiso   1.00
Zn592  Zn    0.56435   0.82734   0.24479   0.00000  Uiso   1.00
C593   C     0.84872   0.93160   0.25004   0.00000  Uiso   1.00
C594   C     0.86430   0.88140   0.40719   0.00000  Uiso   1.00
C595   C     0.82992   0.83150   0.11609   0.00000  Uiso   1.00
C596   C     0.83683   0.83873   0.38411   0.00000  Uiso   1.00
C597   C     0.85666   0.87443   0.09412   0.00000  Uiso   1.00
C598   C     0.80554   0.79830   0.40657   0.00000  Uiso   1.00
C599   C     0.85617   0.87706   0.04815   0.00000  Uiso   1.00
C600   C     0.80206   0.79785   0.45272   0.00000  Uiso   1.00
C601   C     0.82844   0.83592   0.02379   0.00000  Uiso   1.00
C602   C     0.83039   0.83863   0.47704   0.00000  Uiso   1.00
C603   C     0.79969   0.79182   0.04617   0.00000  Uiso   1.00
C604   C     0.81813   0.73517   0.25275   0.00000  Uiso   1.00
C605   C     0.86047   0.88195   0.45455   0.00000  Uiso   1.00
C606   C     0.88363   0.92057   0.02672   0.00000  Uiso   1.00
C607   C     0.77019   0.75679   0.47446   0.00000  Uiso   1.00
C608   C     0.82045   0.71297   0.12620   0.00000  Uiso   1.00
C609   C     0.79233   0.99596   0.14629   0.00000  Uiso   1.00
C610   C     0.93948   0.91549   0.35981   0.00000  Uiso   1.00
C611   C     0.98603   0.95881   0.36815   0.00000  Uiso   1.00
C612   C     0.91085   0.68170   0.47980   0.00000  Uiso   1.00
C613   C     0.92811   0.72510   0.44667   0.00000  Uiso   1.00
C614   C     0.75400   0.99538   0.02796   0.00000  Uiso   1.00
C615   C     0.88549   0.92445   0.47991   0.00000  Uiso   1.00
C616   C     0.70726   0.95288   0.04066   0.00000  Uiso   1.00
C617   C     0.77018   0.75180   0.02093   0.00000  Uiso   1.00
C618   C     0.85697   0.98627   0.25161   0.00000  Uiso   1.00
C619   C     0.81041   0.68070   0.25661   0.00000  Uiso   1.00
C620   C     0.83496   0.83709   0.33633   0.00000  Uiso   1.00
C621   C     0.83205   0.83184   0.16366   0.00000  Uiso   1.00
C622   C     0.80239   0.78920   0.09306   0.00000  Uiso   1.00
H623   H     0.90470   0.95098   0.04691   0.00000  Uiso   1.00
H624   H     0.82581   0.97222   0.15877   0.00000  Uiso   1.00
H625   H     0.76111   0.67196   0.17448   0.00000  Uiso   1.00
H626   H     0.93123   0.91674   0.32384   0.00000  Uiso   1.00
H627   H     0.95680   0.87710   0.36701   0.00000  Uiso   1.00
H628   H     0.66763   0.95649   0.40255   0.00000  Uiso   1.00
H629   H     0.69030   0.95418   0.34395   0.00000  Uiso   1.00
H630   H     0.96935   0.99779   0.36338   0.00000  Uiso   1.00
H631   H     0.87805   0.90594   0.11319   0.00000  Uiso   1.00
H632   H     0.78386   0.76674   0.38767   0.00000  Uiso   1.00
H633   H     0.94002   0.68681   0.00780   0.00000  Uiso   1.00
H634   H     0.74510   0.72828   0.45498   0.00000  Uiso   1.00
H635   H     0.86579   0.68663   0.49252   0.00000  Uiso   1.00
H636   H     0.89985   0.72169   0.41801   0.00000  Uiso   1.00
H637   H     0.92386   0.76392   0.46359   0.00000  Uiso   1.00
H638   H     0.97361   0.72239   0.43389   0.00000  Uiso   1.00
H639   H     0.79322   0.98767   0.04505   0.00000  Uiso   1.00
H640   H     0.76395   0.99117   0.49120   0.00000  Uiso   1.00
H641   H     0.68898   0.95938   0.07544   0.00000  Uiso   1.00
H642   H     0.67241   0.95307   0.01714   0.00000  Uiso   1.00
H643   H     0.72551   0.91385   0.03813   0.00000  Uiso   1.00
H644   H     0.90090   0.67011   0.24686   0.00000  Uiso   1.00
H645   H     0.76652   0.99682   0.26169   0.00000  Uiso   1.00
H646   H     0.67092   0.79348   0.21656   0.00000  Uiso   1.00
H647   H     0.99610   0.87357   0.28297   0.00000  Uiso   1.00
H648   H     0.84908   0.73152   0.15125   0.00000  Uiso   1.00
H649   H     0.84755   0.70277   0.09555   0.00000  Uiso   1.00
H650   H     0.76906   0.97222   0.12090   0.00000  Uiso   1.00
N651   N     0.98344   0.81932   0.23783   0.00000  Uiso   1.00
N652   N     0.68322   0.84735   0.26217   0.00000  Uiso   1.00
O653   O     0.79642   0.91286   0.25299   0.00000  Uiso   1.00
O654   O     0.88735   0.92557   0.38443   0.00000  Uiso   1.00
O655   O     0.91672   0.96581   0.45790   0.00000  Uiso   1.00
O656   O     0.73544   0.71196   0.04179   0.00000  Uiso   1.00
O657   O     0.87025   0.75381   0.24702   0.00000  Uiso   1.00
O658   O     0.89280   0.90387   0.24519   0.00000  Uiso   1.00
O659   O     0.77387   0.76279   0.25482   0.00000  Uiso   1.00
O660   O     0.78514   0.83784   0.31998   0.00000  Uiso   1.00
O661   O     0.88153   0.82883   0.18003   0.00000  Uiso   1.00
O662   O     0.88152   0.82885   0.31218   0.00000  Uiso   1.00
O663   O     0.78515   0.83781   0.18783   0.00000  Uiso   1.00
O664   O     0.77718   0.74645   0.11645   0.00000  Uiso   1.00
Zn665  Zn    0.76898   0.83933   0.25521   0.00000  Uiso   1.00
Zn666  Zn    0.89769   0.82734   0.24479   0.00000  Uiso   1.00
C667   C     0.18206   0.26493   0.75004   0.00000  Uiso   1.00
C668   C     0.19764   0.21473   0.90719   0.00000  Uiso   1.00
C669   C     0.16325   0.16484   0.61609   0.00000  Uiso   1.00
C670   C     0.17016   0.17206   0.88411   0.00000  Uiso   1.00
C671   C     0.18999   0.20776   0.59412   0.00000  Uiso   1.00
C672   C     0.13887   0.13163   0.90657   0.00000  Uiso   1.00
C673   C     0.18951   0.21040   0.54815   0.00000  Uiso   1.00
C674   C     0.13540   0.13118   0.95272   0.00000  Uiso   1.00
C675   C     0.16178   0.16925   0.52379   0.00000  Uiso   1.00
C676   C     0.16373   0.17197   0.97704   0.00000  Uiso   1.00
C677   C     0.13302   0.12515   0.54617   0.00000  Uiso   1.00
C678   C     0.15147   0.06850   0.75275   0.00000  Uiso   1.00
C679   C     0.19380   0.21528   0.95455   0.00000  Uiso   1.00
C680   C     0.21696   0.25390   0.52672   0.00000  Uiso   1.00
C681   C     0.10352   0.09012   0.97446   0.00000  Uiso   1.00
C682   C     0.15378   0.04631   0.62620   0.00000  Uiso   1.00
C683   C     0.12566   0.32929   0.64629   0.00000  Uiso   1.00
C684   C     0.27281   0.24882   0.85981   0.00000  Uiso   1.00
C685   C     0.31936   0.29215   0.86815   0.00000  Uiso   1.00
C686   C     0.24418   0.01504   0.97980   0.00000  Uiso   1.00
C687   C     0.26145   0.05843   0.94667   0.00000  Uiso   1.00
C688   C     0.08733   0.32871   0.52796   0.00000  Uiso   1.00
C689   C     0.21883   0.25778   0.97991   0.00000  Uiso   1.00
C690   C     0.04059   0.28622   0.54066   0.00000  Uiso   1.00
C691   C     0.10352   0.08513   0.52093   0.00000  Uiso   1.00
C692   C     0.19030   0.31961   0.75161   0.00000  Uiso   1.00
C693   C     0.14374   0.01403   0.75661   0.00000  Uiso   1.00
C694   C     0.16830   0.17042   0.83633   0.00000  Uiso   1.00
C695   C     0.16539   0.16517   0.66366   0.00000  Uiso   1.00
C696   C     0.13573   0.12253   0.59306   0.00000  Uiso   1.00
H697   H     0.23803   0.28431   0.54691   0.00000  Uiso   1.00
H698   H     0.15914   0.30556   0.65877   0.00000  Uiso   1.00
H699   H     0.09445   0.00529   0.67448   0.00000  Uiso   1.00
H700   H     0.26456   0.25007   0.82384   0.00000  Uiso   1.00
H701   H     0.29013   0.21043   0.86701   0.00000  Uiso   1.00
H702   H     0.00097   0.28982   0.90255   0.00000  Uiso   1.00
H703   H     0.02363   0.28751   0.84395   0.00000  Uiso   1.00
H704   H     0.30269   0.33112   0.86338   0.00000  Uiso   1.00
H705   H     0.21139   0.23928   0.61319   0.00000  Uiso   1.00
H706   H     0.11719   0.10008   0.88767   0.00000  Uiso   1.00
H707   H     0.27335   0.02014   0.50780   0.00000  Uiso   1.00
H708   H     0.07843   0.06161   0.95498   0.00000  Uiso   1.00
H709   H     0.19913   0.01996   0.99252   0.00000  Uiso   1.00
H710   H     0.23318   0.05502   0.91801   0.00000  Uiso   1.00
H711   H     0.25719   0.09726   0.96359   0.00000  Uiso   1.00
H712   H     0.30694   0.05572   0.93389   0.00000  Uiso   1.00
H713   H     0.12655   0.32100   0.54505   0.00000  Uiso   1.00
H714   H     0.09729   0.32450   0.99120   0.00000  Uiso   1.00
H715   H     0.02231   0.29271   0.57544   0.00000  Uiso   1.00
H716   H     0.00575   0.28640   0.51714   0.00000  Uiso   1.00
H717   H     0.05885   0.24718   0.53813   0.00000  Uiso   1.00
H718   H     0.23424   0.00345   0.74686   0.00000  Uiso   1.00
H719   H     0.09985   0.33016   0.76169   0.00000  Uiso   1.00
H720   H     0.00426   0.12681   0.71656   0.00000  Uiso   1.00
H721   H     0.32943   0.20691   0.78297   0.00000  Uiso   1.00
H722   H     0.18241   0.06486   0.65125   0.00000  Uiso   1.00
H723   H     0.18088   0.03610   0.59555   0.00000  Uiso   1.00
H724   H     0.10239   0.30555   0.62090   0.00000  Uiso   1.00
N725   N     0.31678   0.15265   0.73783   0.00000  Uiso   1.00
N726   N     0.01656   0.18068   0.76217   0.00000  Uiso   1.00
O727   O     0.12975   0.24619   0.75299   0.00000  Uiso   1.00
O728   O     0.22069   0.25890   0.88443   0.00000  Uiso   1.00
O729   O     0.25006   0.29914   0.95790   0.00000  Uiso   1.00
O730   O     0.06877   0.04529   0.54179   0.00000  Uiso   1.00
O731   O     0.20358   0.08714   0.74702   0.00000  Uiso   1.00
O732   O     0.22613   0.23721   0.74519   0.00000  Uiso   1.00
O733   O     0.10720   0.09613   0.75482   0.00000  Uiso   1.00
O734   O     0.11847   0.17117   0.81998   0.00000  Uiso   1.00
O735   O     0.21486   0.16216   0.68003   0.00000  Uiso   1.00
O736   O     0.21485   0.16219   0.81218   0.00000  Uiso   1.00
O737   O     0.11848   0.17115   0.68783   0.00000  Uiso   1.00
O738   O     0.11051   0.07978   0.61645   0.00000  Uiso   1.00
Zn739  Zn    0.10231   0.17266   0.75521   0.00000  Uiso   1.00
Zn740  Zn    0.23102   0.16067   0.74479   0.00000  Uiso   1.00
C741   C     0.51539   0.26493   0.75004   0.00000  Uiso   1.00
C742   C     0.53097   0.21473   0.90719   0.00000  Uiso   1.00
C743   C     0.49659   0.16484   0.61609   0.00000  Uiso   1.00
C744   C     0.50349   0.17206   0.88411   0.00000  Uiso   1.00
C745   C     0.52333   0.20776   0.59412   0.00000  Uiso   1.00
C746   C     0.47220   0.13163   0.90657   0.00000  Uiso   1.00
C747   C     0.52284   0.21040   0.54815   0.00000  Uiso   1.00
C748   C     0.46873   0.13118   0.95272   0.00000  Uiso   1.00
C749   C     0.49511   0.16925   0.52379   0.00000  Uiso   1.00
C750   C     0.49706   0.17197   0.97704   0.00000  Uiso   1.00
C751   C     0.46636   0.12515   0.54617   0.00000  Uiso   1.00
C752   C     0.48480   0.06850   0.75275   0.00000  Uiso   1.00
C753   C     0.52713   0.21528   0.95455   0.00000  Uiso   1.00
C754   C     0.55029   0.25390   0.52672   0.00000  Uiso   1.00
C755   C     0.43686   0.09012   0.97446   0.00000  Uiso   1.00
C756   C     0.48712   0.04631   0.62620   0.00000  Uiso   1.00
C757   C     0.45900   0.32929   0.64629   0.00000  Uiso   1.00
C758   C     0.60614   0.24882   0.85981   0.00000  Uiso   1.00
C759   C     0.65269   0.29215   0.86815   0.00000  Uiso   1.00
C760   C     0.57751   0.01504   0.97980   0.00000  Uiso   1.00
C761   C     0.59478   0.05843   0.94667   0.00000  Uiso   1.00
C762   C     0.42067   0.32871   0.52796   0.00000  Uiso   1.00
C763   C     0.55216   0.25778   0.97991   0.00000  Uiso   1.00
C764   C     0.37393   0.28622   0.54066   0.00000  Uiso   1.00
C765   C     0.43685   0.08513   0.52093   0.00000  Uiso   1.00
C766   C     0.52364   0.31961   0.75161   0.00000  Uiso   1.00
C767   C     0.47707   0.01403   0.75661   0.00000  Uiso   1.00
C768   C     0.50163   0.17042   0.83633   0.00000  Uiso   1.00
C769   C     0.49872   0.16517   0.66366   0.00000  Uiso   1.00
C770   C     0.46906   0.12253   0.59306   0.00000  Uiso   1.00
H771   H     0.57136   0.28431   0.54691   0.00000  Uiso   1.00
H772   H     0.49248   0.30556   0.65877   0.00000  Uiso   1.00
H773   H     0.42778   0.00529   0.67448   0.00000  Uiso   1.00
H774   H     0.59789   0.25007   0.82384   0.00000  Uiso   1.00
H775   H     0.62346   0.21043   0.86701   0.00000  Uiso   1.00
H776   H     0.33430   0.28982   0.90255   0.00000  Uiso   1.00
H777   H     0.35696   0.28751   0.84395   0.00000  Uiso   1.00
H778   H     0.63602   0.33112   0.86338   0.00000  Uiso   1.00
H779   H     0.54472   0.23928   0.61319   0.00000  Uiso   1.00
H780   H     0.45053   0.10008   0.88767   0.00000  Uiso   1.00
H781   H     0.60669   0.02014   0.50780   0.00000  Uiso   1.00
H782   H     0.41176   0.06161   0.95498   0.00000  Uiso   1.00
H783   H     0.53246   0.01996   0.99252   0.00000  Uiso   1.00
H784   H     0.56651   0.05502   0.91801   0.00000  Uiso   1.00
H785   H     0.59052   0.09726   0.96359   0.00000  Uiso   1.00
H786   H     0.64028   0.05572   0.93389   0.00000  Uiso   1.00
H787   H     0.45988   0.32100   0.54505   0.00000  Uiso   1.00
H788   H     0.43062   0.32450   0.99120   0.00000  Uiso   1.00
H789   H     0.35564   0.29271   0.57544   0.00000  Uiso   1.00
H790   H     0.33908   0.28640   0.51714   0.00000  Uiso   1.00
H791   H     0.39218   0.24718   0.53813   0.00000  Uiso   1.00
H792   H     0.56757   0.00345   0.74686   0.00000  Uiso   1.00
H793   H     0.43319   0.33016   0.76169   0.00000  Uiso   1.00
H794   H     0.33759   0.12681   0.71656   0.00000  Uiso   1.00
H795   H     0.66277   0.20691   0.78297   0.00000  Uiso   1.00
H796   H     0.51574   0.06486   0.65125   0.00000  Uiso   1.00
H797   H     0.51421   0.03610   0.59555   0.00000  Uiso   1.00
H798   H     0.43573   0.30555   0.62090   0.00000  Uiso   1.00
N799   N     0.65011   0.15265   0.73783   0.00000  Uiso   1.00
N800   N     0.34989   0.18068   0.76217   0.00000  Uiso   1.00
O801   O     0.46308   0.24619   0.75299   0.00000  Uiso   1.00
O802   O     0.55402   0.25890   0.88443   0.00000  Uiso   1.00
O803   O     0.58339   0.29914   0.95790   0.00000  Uiso   1.00
O804   O     0.40210   0.04529   0.54179   0.00000  Uiso   1.00
O805   O     0.53692   0.08714   0.74702   0.00000  Uiso   1.00
O806   O     0.55946   0.23721   0.74519   0.00000  Uiso   1.00
O807   O     0.44054   0.09613   0.75482   0.00000  Uiso   1.00
O808   O     0.45181   0.17117   0.81998   0.00000  Uiso   1.00
O809   O     0.54819   0.16216   0.68003   0.00000  Uiso   1.00
O810   O     0.54819   0.16219   0.81218   0.00000  Uiso   1.00
O811   O     0.45181   0.17115   0.68783   0.00000  Uiso   1.00
O812   O     0.44385   0.07978   0.61645   0.00000  Uiso   1.00
Zn813  Zn    0.43565   0.17266   0.75521   0.00000  Uiso   1.00
Zn814  Zn    0.56435   0.16067   0.74479   0.00000  Uiso   1.00
C815   C     0.84872   0.26493   0.75004   0.00000  Uiso   1.00
C816   C     0.86430   0.21473   0.90719   0.00000  Uiso   1.00
C817   C     0.82992   0.16484   0.61609   0.00000  Uiso   1.00
C818   C     0.83683   0.17206   0.88411   0.00000  Uiso   1.00
C819   C     0.85666   0.20776   0.59412   0.00000  Uiso   1.00
C820   C     0.80554   0.13163   0.90657   0.00000  Uiso   1.00
C821   C     0.85617   0.21040   0.54815   0.00000  Uiso   1.00
C822   C     0.80206   0.13118   0.95272   0.00000  Uiso   1.00
C823   C     0.82844   0.16925   0.52379   0.00000  Uiso   1.00
C824   C     0.83039   0.17197   0.97704   0.00000  Uiso   1.00
C825   C     0.79969   0.12515   0.54617   0.00000  Uiso   1.00
C826   C     0.81813   0.06850   0.75275   0.00000  Uiso   1.00
C827   C     0.86047   0.21528   0.95455   0.00000  Uiso   1.00
C828   C     0.88363   0.25390   0.52672   0.00000  Uiso   1.00
C829   C     0.77019   0.09012   0.97446   0.00000  Uiso   1.00
C830   C     0.82045   0.04631   0.62620   0.00000  Uiso   1.00
C831   C     0.79233   0.32929   0.64629   0.00000  Uiso   1.00
C832   C     0.93948   0.24882   0.85981   0.00000  Uiso   1.00
C833   C     0.98603   0.29215   0.86815   0.00000  Uiso   1.00
C834   C     0.91085   0.01504   0.97980   0.00000  Uiso   1.00
C835   C     0.92811   0.05843   0.94667   0.00000  Uiso   1.00
C836   C     0.75400   0.32871   0.52796   0.00000  Uiso   1.00
C837   C     0.88549   0.25778   0.97991   0.00000  Uiso   1.00
C838   C     0.70726   0.28622   0.54066   0.00000  Uiso   1.00
C839   C     0.77018   0.08513   0.52093   0.00000  Uiso   1.00
C840   C     0.85697   0.31961   0.75161   0.00000  Uiso   1.00
C841   C     0.81041   0.01403   0.75661   0.00000  Uiso   1.00
C842   C     0.83496   0.17042   0.83633   0.00000  Uiso   1.00
C843   C     0.83205   0.16517   0.66366   0.00000  Uiso   1.00
C844   C     0.80239   0.12253   0.59306   0.00000  Uiso   1.00
H845   H     0.90470   0.28431   0.54691   0.00000  Uiso   1.00
H846   H     0.82581   0.30556   0.65877   0.00000  Uiso   1.00
H847   H     0.76111   0.00529   0.67448   0.00000  Uiso   1.00
H848   H     0.93123   0.25007   0.82384   0.00000  Uiso   1.00
H849   H     0.95680   0.21043   0.86701   0.00000  Uiso   1.00
H850   H     0.66763   0.28982   0.90255   0.00000  Uiso   1.00
H851   H     0.69030   0.28751   0.84395   0.00000  Uiso   1.00
H852   H     0.96935   0.33112   0.86338   0.00000  Uiso   1.00
H853   H     0.87805   0.23928   0.61319   0.00000  Uiso   1.00
H854   H     0.78386   0.10008   0.88767   0.00000  Uiso   1.00
H855   H     0.94002   0.02014   0.50780   0.00000  Uiso   1.00
H856   H     0.74510   0.06161   0.95498   0.00000  Uiso   1.00
H857   H     0.86579   0.01996   0.99252   0.00000  Uiso   1.00
H858   H     0.89985   0.05502   0.91801   0.00000  Uiso   1.00
H859   H     0.92386   0.09726   0.96359   0.00000  Uiso   1.00
H860   H     0.97361   0.05572   0.93389   0.00000  Uiso   1.00
H861   H     0.79322   0.32100   0.54505   0.00000  Uiso   1.00
H862   H     0.76395   0.32450   0.99120   0.00000  Uiso   1.00
H863   H     0.68898   0.29271   0.57544   0.00000  Uiso   1.00
H864   H     0.67241   0.28640   0.51714   0.00000  Uiso   1.00
H865   H     0.72551   0.24718   0.53813   0.00000  Uiso   1.00
H866   H     0.90090   0.00345   0.74686   0.00000  Uiso   1.00
H867   H     0.76652   0.33016   0.76169   0.00000  Uiso   1.00
H868   H     0.67092   0.12681   0.71656   0.00000  Uiso   1.00
H869   H     0.99610   0.20691   0.78297   0.00000  Uiso   1.00
H870   H     0.84908   0.06486   0.65125   0.00000  Uiso   1.00
H871   H     0.84755   0.03610   0.59555   0.00000  Uiso   1.00
H872   H     0.76906   0.30555   0.62090   0.00000  Uiso   1.00
N873   N     0.98344   0.15265   0.73783   0.00000  Uiso   1.00
N874   N     0.68322   0.18068   0.76217   0.00000  Uiso   1.00
O875   O     0.79642   0.24619   0.75299   0.00000  Uiso   1.00
O876   O     0.88735   0.25890   0.88443   0.00000  Uiso   1.00
O877   O     0.91672   0.29914   0.95790   0.00000  Uiso   1.00
O878   O     0.73544   0.04529   0.54179   0.00000  Uiso   1.00
O879   O     0.87025   0.08714   0.74702   0.00000  Uiso   1.00
O880   O     0.89280   0.23721   0.74519   0.00000  Uiso   1.00
O881   O     0.77387   0.09613   0.75482   0.00000  Uiso   1.00
O882   O     0.78514   0.17117   0.81998   0.00000  Uiso   1.00
O883   O     0.88153   0.16216   0.68003   0.00000  Uiso   1.00
O884   O     0.88152   0.16219   0.81218   0.00000  Uiso   1.00
O885   O     0.78515   0.17115   0.68783   0.00000  Uiso   1.00
O886   O     0.77718   0.07978   0.61645   0.00000  Uiso   1.00
Zn887  Zn    0.76898   0.17266   0.75521   0.00000  Uiso   1.00
Zn888  Zn    0.89769   0.16067   0.74479   0.00000  Uiso   1.00
C889   C     0.18206   0.59827   0.75004   0.00000  Uiso   1.00
C890   C     0.19764   0.54807   0.90719   0.00000  Uiso   1.00
C891   C     0.16325   0.49817   0.61609   0.00000  Uiso   1.00
C892   C     0.17016   0.50540   0.88411   0.00000  Uiso   1.00
C893   C     0.18999   0.54109   0.59412   0.00000  Uiso   1.00
C894   C     0.13887   0.46496   0.90657   0.00000  Uiso   1.00
C895   C     0.18951   0.54373   0.54815   0.00000  Uiso   1.00
C896   C     0.13540   0.46451   0.95272   0.00000  Uiso   1.00
C897   C     0.16178   0.50259   0.52379   0.00000  Uiso   1.00
C898   C     0.16373   0.50530   0.97704   0.00000  Uiso   1.00
C899   C     0.13302   0.45848   0.54617   0.00000  Uiso   1.00
C900   C     0.15147   0.40184   0.75275   0.00000  Uiso   1.00
C901   C     0.19380   0.54862   0.95455   0.00000  Uiso   1.00
C902   C     0.21696   0.58723   0.52672   0.00000  Uiso   1.00
C903   C     0.10352   0.42346   0.97446   0.00000  Uiso   1.00
C904   C     0.15378   0.37964   0.62620   0.00000  Uiso   1.00
C905   C     0.12566   0.66263   0.64629   0.00000  Uiso   1.00
C906   C     0.27281   0.58215   0.85981   0.00000  Uiso   1.00
C907   C     0.31936   0.62548   0.86815   0.00000  Uiso   1.00
C908   C     0.24418   0.34837   0.97980   0.00000  Uiso   1.00
C909   C     0.26145   0.39177   0.94667   0.00000  Uiso   1.00
C910   C     0.08733   0.66204   0.52796   0.00000  Uiso   1.00
C911   C     0.21883   0.59111   0.97991   0.00000  Uiso   1.00
C912   C     0.04059   0.61955   0.54066   0.00000  Uiso   1.00
C913   C     0.10352   0.41847   0.52093   0.00000  Uiso   1.00
C914   C     0.19030   0.65294   0.75161   0.00000  Uiso   1.00
C915   C     0.14374   0.34737   0.75661   0.00000  Uiso   1.00
C916   C     0.16830   0.50375   0.83633   0.00000  Uiso   1.00
C917   C     0.16539   0.49851   0.66366   0.00000  Uiso   1.00
C918   C     0.13573   0.45586   0.59306   0.00000  Uiso   1.00
H919   H     0.23803   0.61765   0.54691   0.00000  Uiso   1.00
H920   H     0.15914   0.63889   0.65877   0.00000  Uiso   1.00
H921   H     0.09445   0.33863   0.67448   0.00000  Uiso   1.00
H922   H     0.26456   0.58340   0.82384   0.00000  Uiso   1.00
H923   H     0.29013   0.54377   0.86701   0.00000  Uiso   1.00
H924   H     0.00097   0.62315   0.90255   0.00000  Uiso   1.00
H925   H     0.02363   0.62084   0.84395   0.00000  Uiso   1.00
H926   H     0.30269   0.66446   0.86338   0.00000  Uiso   1.00
H927   H     0.21139   0.57261   0.61319   0.00000  Uiso   1.00
H928   H     0.11719   0.43341   0.88767   0.00000  Uiso   1.00
H929   H     0.27335   0.35347   0.50780   0.00000  Uiso   1.00
H930   H     0.07843   0.39495   0.95498   0.00000  Uiso   1.00
H931   H     0.19913   0.35329   0.99252   0.00000  Uiso   1.00
H932   H     0.23318   0.38835   0.91801   0.00000  Uiso   1.00
H933   H     0.25719   0.43059   0.96359   0.00000  Uiso   1.00
H934   H     0.30694   0.38905   0.93389   0.00000  Uiso   1.00
H935   H     0.12655   0.65434   0.54505   0.00000  Uiso   1.00
H936   H     0.09729   0.65784   0.99120   0.00000  Uiso   1.00
H937   H     0.02231   0.62604   0.57544   0.00000  Uiso   1.00
H938   H     0.00575   0.61973   0.51714   0.00000  Uiso   1.00
H939   H     0.05885   0.58051   0.53813   0.00000  Uiso   1.00
H940   H     0.23424   0.33678   0.74686   0.00000  Uiso   1.00
H941   H     0.09985   0.66349   0.76169   0.00000  Uiso   1.00
H942   H     0.00426   0.46014   0.71656   0.00000  Uiso   1.00
H943   H     0.32943   0.54024   0.78297   0.00000  Uiso   1.00
H944   H     0.18241   0.39819   0.65125   0.00000  Uiso   1.00
H945   H     0.18088   0.36944   0.59555   0.00000  Uiso   1.00
H946   H     0.10239   0.63889   0.62090   0.00000  Uiso   1.00
N947   N     0.31678   0.48598   0.73783   0.00000  Uiso   1.00
N948   N     0.01656   0.51402   0.76217   0.00000  Uiso   1.00
O949   O     0.12975   0.57952   0.75299   0.00000  Uiso   1.00
O950   O     0.22069   0.59224   0.88443   0.00000  Uiso   1.00
O951   O     0.25006   0.63248   0.95790   0.00000  Uiso   1.00
O952   O     0.06877   0.37862   0.54179   0.00000  Uiso   1.00
O953   O     0.20358   0.42048   0.74702   0.00000  Uiso   1.00
O954   O     0.22613   0.57054   0.74519   0.00000  Uiso   1.00
O955   O     0.10720   0.42946   0.75482   0.00000  Uiso   1.00
O956   O     0.11847   0.50450   0.81998   0.00000  Uiso   1.00
O957   O     0.21486   0.49550   0.68003   0.00000  Uiso   1.00
O958   O     0.21485   0.49552   0.81218   0.00000  Uiso   1.00
O959   O     0.11848   0.50448   0.68783   0.00000  Uiso   1.00
O960   O     0.11051   0.41312   0.61645   0.00000  Uiso   1.00
Zn961  Zn    0.10231   0.50600   0.75521   0.00000  Uiso   1.00
Zn962  Zn    0.23102   0.49400   0.74479   0.00000  Uiso   1.00
C963   C     0.51539   0.59827   0.75004   0.00000  Uiso   1.00
C964   C     0.53097   0.54807   0.90719   0.00000  Uiso   1.00
C965   C     0.49659   0.49817   0.61609   0.00000  Uiso   1.00
C966   C     0.50349   0.50540   0.88411   0.00000  Uiso   1.00
C967   C     0.52333   0.54109   0.59412   0.00000  Uiso   1.00
C968   C     0.47220   0.46496   0.90657   0.00000  Uiso   1.00
C969   C     0.52284   0.54373   0.54815   0.00000  Uiso   1.00
C970   C     0.46873   0.46451   0.95272   0.00000  Uiso   1.00
C971   C     0.49511   0.50259   0.52379   0.00000  Uiso   1.00
C972   C     0.49706   0.50530   0.97704   0.00000  Uiso   1.00
C973   C     0.46636   0.45848   0.54617   0.00000  Uiso   1.00
C974   C     0.48480   0.40184   0.75275   0.00000  Uiso   1.00
C975   C     0.52713   0.54862   0.95455   0.00000  Uiso   1.00
C976   C     0.55029   0.58723   0.52672   0.00000  Uiso   1.00
C977   C     0.43686   0.42346   0.97446   0.00000  Uiso   1.00
C978   C     0.48712   0.37964   0.62620   0.00000  Uiso   1.00
C979   C     0.45900   0.66263   0.64629   0.00000  Uiso   1.00
C980   C     0.60614   0.58215   0.85981   0.00000  Uiso   1.00
C981   C     0.65269   0.62548   0.86815   0.00000  Uiso   1.00
C982   C     0.57751   0.34837   0.97980   0.00000  Uiso   1.00
C983   C     0.59478   0.39177   0.94667   0.00000  Uiso   1.00
C984   C     0.42067   0.66204   0.52796   0.00000  Uiso   1.00
C985   C     0.55216   0.59111   0.97991   0.00000  Uiso   1.00
C986   C     0.37393   0.61955   0.54066   0.00000  Uiso   1.00
C987   C     0.43685   0.41847   0.52093   0.00000  Uiso   1.00
C988   C     0.52364   0.65294   0.75161   0.00000  Uiso   1.00
C989   C     0.47707   0.34737   0.75661   0.00000  Uiso   1.00
C990   C     0.50163   0.50375   0.83633   0.00000  Uiso   1.00
C991   C     0.49872   0.49851   0.66366   0.00000  Uiso   1.00
C992   C     0.46906   0.45586   0.59306   0.00000  Uiso   1.00
H993   H     0.57136   0.61765   0.54691   0.00000  Uiso   1.00
H994   H     0.49248   0.63889   0.65877   0.00000  Uiso   1.00
H995   H     0.42778   0.33863   0.67448   0.00000  Uiso   1.00
H996   H     0.59789   0.58340   0.82384   0.00000  Uiso   1.00
H997   H     0.62346   0.54377   0.86701   0.00000  Uiso   1.00
H998   H     0.33430   0.62315   0.90255   0.00000  Uiso   1.00
H999   H     0.35696   0.62084   0.84395   0.00000  Uiso   1.00
H1000  H     0.63602   0.66446   0.86338   0.00000  Uiso   1.00
H1001  H     0.54472   0.57261   0.61319   0.00000  Uiso   1.00
H1002  H     0.45053   0.43341   0.88767   0.00000  Uiso   1.00
H1003  H     0.60669   0.35347   0.50780   0.00000  Uiso   1.00
H1004  H     0.41176   0.39495   0.95498   0.00000  Uiso   1.00
H1005  H     0.53246   0.35329   0.99252   0.00000  Uiso   1.00
H1006  H     0.56651   0.38835   0.91801   0.00000  Uiso   1.00
H1007  H     0.59052   0.43059   0.96359   0.00000  Uiso   1.00
H1008  H     0.64028   0.38905   0.93389   0.00000  Uiso   1.00
H1009  H     0.45988   0.65434   0.54505   0.00000  Uiso   1.00
H1010  H     0.43062   0.65784   0.99120   0.00000  Uiso   1.00
H1011  H     0.35564   0.62604   0.57544   0.00000  Uiso   1.00
H1012  H     0.33908   0.61973   0.51714   0.00000  Uiso   1.00
H1013  H     0.39218   0.58051   0.53813   0.00000  Uiso   1.00
H1014  H     0.56757   0.33678   0.74686   0.00000  Uiso   1.00
H1015  H     0.43319   0.66349   0.76169   0.00000  Uiso   1.00
H1016  H     0.33759   0.46014   0.71656   0.00000  Uiso   1.00
H1017  H     0.66277   0.54024   0.78297   0.00000  Uiso   1.00
H1018  H     0.51574   0.39819   0.65125   0.00000  Uiso   1.00
H1019  H     0.51421   0.36944   0.59555   0.00000  Uiso   1.00
H1020  H     0.43573   0.63889   0.62090   0.00000  Uiso   1.00
N1021  N     0.65011   0.48598   0.73783   0.00000  Uiso   1.00
N1022  N     0.34989   0.51402   0.76217   0.00000  Uiso   1.00
O1023  O     0.46308   0.57952   0.75299   0.00000  Uiso   1.00
O1024  O     0.55402   0.59224   0.88443   0.00000  Uiso   1.00
O1025  O     0.58339   0.63248   0.95790   0.00000  Uiso   1.00
O1026  O     0.40210   0.37862   0.54179   0.00000  Uiso   1.00
O1027  O     0.53692   0.42048   0.74702   0.00000  Uiso   1.00
O1028  O     0.55946   0.57054   0.74519   0.00000  Uiso   1.00
O1029  O     0.44054   0.42946   0.75482   0.00000  Uiso   1.00
O1030  O     0.45181   0.50450   0.81998   0.00000  Uiso   1.00
O1031  O     0.54819   0.49550   0.68003   0.00000  Uiso   1.00
O1032  O     0.54819   0.49552   0.81218   0.00000  Uiso   1.00
O1033  O     0.45181   0.50448   0.68783   0.00000  Uiso   1.00
O1034  O     0.44385   0.41312   0.61645   0.00000  Uiso   1.00
Zn1035 Zn    0.43565   0.50600   0.75521   0.00000  Uiso   1.00
Zn1036 Zn    0.56435   0.49400   0.74479   0.00000  Uiso   1.00
C1037  C     0.84872   0.59827   0.75004   0.00000  Uiso   1.00
C1038  C     0.86430   0.54807   0.90719   0.00000  Uiso   1.00
C1039  C     0.82992   0.49817   0.61609   0.00000  Uiso   1.00
C1040  C     0.83683   0.50540   0.88411   0.00000  Uiso   1.00
C1041  C     0.85666   0.54109   0.59412   0.00000  Uiso   1.00
C1042  C     0.80554   0.46496   0.90657   0.00000  Uiso   1.00
C1043  C     0.85617   0.54373   0.54815   0.00000  Uiso   1.00
C1044  C     0.80206   0.46451   0.95272   0.00000  Uiso   1.00
C1045  C     0.82844   0.50259   0.52379   0.00000  Uiso   1.00
C1046  C     0.83039   0.50530   0.97704   0.00000  Uiso   1.00
C1047  C     0.79969   0.45848   0.54617   0.00000  Uiso   1.00
C1048  C     0.81813   0.40184   0.75275   0.00000  Uiso   1.00
C1049  C     0.86047   0.54862   0.95455   0.00000  Uiso   1.00
C1050  C     0.88363   0.58723   0.52672   0.00000  Uiso   1.00
C1051  C     0.77019   0.42346   0.97446   0.00000  Uiso   1.00
C1052  C     0.82045   0.37964   0.62620   0.00000  Uiso   1.00
C1053  C     0.79233   0.66263   0.64629   0.00000  Uiso   1.00
C1054  C     0.93948   0.58215   0.85981   0.00000  Uiso   1.00
C1055  C     0.98603   0.62548   0.86815   0.00000  Uiso   1.00
C1056  C     0.91085   0.34837   0.97980   0.00000  Uiso   1.00
C1057  C     0.92811   0.39177   0.94667   0.00000  Uiso   1.00
C1058  C     0.75400   0.66204   0.52796   0.00000  Uiso   1.00
C1059  C     0.88549   0.59111   0.97991   0.00000  Uiso   1.00
C1060  C     0.70726   0.61955   0.54066   0.00000  Uiso   1.00
C1061  C     0.77018   0.41847   0.52093   0.00000  Uiso   1.00
C1062  C     0.85697   0.65294   0.75161   0.00000  Uiso   1.00
C1063  C     0.81041   0.34737   0.75661   0.00000  Uiso   1.00
C1064  C     0.83496   0.50375   0.83633   0.00000  Uiso   1.00
C1065  C     0.83205   0.49851   0.66366   0.00000  Uiso   1.00
C1066  C     0.80239   0.45586   0.59306   0.00000  Uiso   1.00
H1067  H     0.90470   0.61765   0.54691   0.00000  Uiso   1.00
H1068  H     0.82581   0.63889   0.65877   0.00000  Uiso   1.00
H1069  H     0.76111   0.33863   0.67448   0.00000  Uiso   1.00
H1070  H     0.93123   0.58340   0.82384   0.00000  Uiso   1.00
H1071  H     0.95680   0.54377   0.86701   0.00000  Uiso   1.00
H1072  H     0.66763   0.62315   0.90255   0.00000  Uiso   1.00
H1073  H     0.69030   0.62084   0.84395   0.00000  Uiso   1.00
H1074  H     0.96935   0.66446   0.86338   0.00000  Uiso   1.00
H1075  H     0.87805   0.57261   0.61319   0.00000  Uiso   1.00
H1076  H     0.78386   0.43341   0.88767   0.00000  Uiso   1.00
H1077  H     0.94002   0.35347   0.50780   0.00000  Uiso   1.00
H1078  H     0.74510   0.39495   0.95498   0.00000  Uiso   1.00
H1079  H     0.86579   0.35329   0.99252   0.00000  Uiso   1.00
H1080  H     0.89985   0.38835   0.91801   0.00000  Uiso   1.00
H1081  H     0.92386   0.43059   0.96359   0.00000  Uiso   1.00
H1082  H     0.97361   0.38905   0.93389   0.00000  Uiso   1.00
H1083  H     0.79322   0.65434   0.54505   0.00000  Uiso   1.00
H1084  H     0.76395   0.65784   0.99120   0.00000  Uiso   1.00
H1085  H     0.68898   0.62604   0.57544   0.00000  Uiso   1.00
H1086  H     0.67241   0.61973   0.51714   0.00000  Uiso   1.00
H1087  H     0.72551   0.58051   0.53813   0.00000  Uiso   1.00
H1088  H     0.90090   0.33678   0.74686   0.00000  Uiso   1.00
H1089  H     0.76652   0.66349   0.76169   0.00000  Uiso   1.00
H1090  H     0.67092   0.46014   0.71656   0.00000  Uiso   1.00
H1091  H     0.99610   0.54024   0.78297   0.00000  Uiso   1.00
H1092  H     0.84908   0.39819   0.65125   0.00000  Uiso   1.00
H1093  H     0.84755   0.36944   0.59555   0.00000  Uiso   1.00
H1094  H     0.76906   0.63889   0.62090   0.00000  Uiso   1.00
N1095  N     0.98344   0.48598   0.73783   0.00000  Uiso   1.00
N1096  N     0.68322   0.51402   0.76217   0.00000  Uiso   1.00
O1097  O     0.79642   0.57952   0.75299   0.00000  Uiso   1.00
O1098  O     0.88735   0.59224   0.88443   0.00000  Uiso   1.00
O1099  O     0.91672   0.63248   0.95790   0.00000  Uiso   1.00
O1100  O     0.73544   0.37862   0.54179   0.00000  Uiso   1.00
O1101  O     0.87025   0.42048   0.74702   0.00000  Uiso   1.00
O1102  O     0.89280   0.57054   0.74519   0.00000  Uiso   1.00
O1103  O     0.77387   0.42946   0.75482   0.00000  Uiso   1.00
O1104  O     0.78514   0.50450   0.81998   0.00000  Uiso   1.00
O1105  O     0.88153   0.49550   0.68003   0.00000  Uiso   1.00
O1106  O     0.88152   0.49552   0.81218   0.00000  Uiso   1.00
O1107  O     0.78515   0.50448   0.68783   0.00000  Uiso   1.00
O1108  O     0.77718   0.41312   0.61645   0.00000  Uiso   1.00
Zn1109 Zn    0.76898   0.50600   0.75521   0.00000  Uiso   1.00
Zn1110 Zn    0.89769   0.49400   0.74479   0.00000  Uiso   1.00
C1111  C     0.18206   0.93160   0.75004   0.00000  Uiso   1.00
C1112  C     0.19764   0.88140   0.90719   0.00000  Uiso   1.00
C1113  C     0.16325   0.83150   0.61609   0.00000  Uiso   1.00
C1114  C     0.17016   0.83873   0.88411   0.00000  Uiso   1.00
C1115  C     0.18999   0.87443   0.59412   0.00000  Uiso   1.00
C1116  C     0.13887   0.79830   0.90657   0.00000  Uiso   1.00
C1117  C     0.18951   0.87706   0.54815   0.00000  Uiso   1.00
C1118  C     0.13540   0.79785   0.95272   0.00000  Uiso   1.00
C1119  C     0.16178   0.83592   0.52379   0.00000  Uiso   1.00
C1120  C     0.16373   0.83863   0.97704   0.00000  Uiso   1.00
C1121  C     0.13302   0.79182   0.54617   0.00000  Uiso   1.00
C1122  C     0.15147   0.73517   0.75275   0.00000  Uiso   1.00
C1123  C     0.19380   0.88195   0.95455   0.00000  Uiso   1.00
C1124  C     0.21696   0.92057   0.52672   0.00000  Uiso   1.00
C1125  C     0.10352   0.75679   0.97446   0.00000  Uiso   1.00
C1126  C     0.15378   0.71297   0.62620   0.00000  Uiso   1.00
C1127  C     0.12566   0.99596   0.64629   0.00000  Uiso   1.00
C1128  C     0.27281   0.91549   0.85981   0.00000  Uiso   1.00
C1129  C     0.31936   0.95881   0.86815   0.00000  Uiso   1.00
C1130  C     0.24418   0.68170   0.97980   0.00000  Uiso   1.00
C1131  C     0.26145   0.72510   0.94667   0.00000  Uiso   1.00
C1132  C     0.08733   0.99538   0.52796   0.00000  Uiso   1.00
C1133  C     0.21883   0.92445   0.97991   0.00000  Uiso   1.00
C1134  C     0.04059   0.95288   0.54066   0.00000  Uiso   1.00
C1135  C     0.10352   0.75180   0.52093   0.00000  Uiso   1.00
C1136  C     0.19030   0.98627   0.75161   0.00000  Uiso   1.00
C1137  C     0.14374   0.68070   0.75661   0.00000  Uiso   1.00
C1138  C     0.16830   0.83709   0.83633   0.00000  Uiso   1.00
C1139  C     0.16539   0.83184   0.66366   0.00000  Uiso   1.00
C1140  C     0.13573   0.78920   0.59306   0.00000  Uiso   1.00
H1141  H     0.23803   0.95098   0.54691   0.00000  Uiso   1.00
H1142  H     0.15914   0.97222   0.65877   0.00000  Uiso   1.00
H1143  H     0.09445   0.67196   0.67448   0.00000  Uiso   1.00
H1144  H     0.26456   0.91674   0.82384   0.00000  Uiso   1.00
H1145  H     0.29013   0.87710   0.86701   0.00000  Uiso   1.00
H1146  H     0.00097   0.95649   0.90255   0.00000  Uiso   1.00
H1147  H     0.02363   0.95418   0.84395   0.00000  Uiso   1.00
H1148  H     0.30269   0.99779   0.86338   0.00000  Uiso   1.00
H1149  H     0.21139   0.90594   0.61319   0.00000  Uiso   1.00
H1150  H     0.11719   0.76674   0.88767   0.00000  Uiso   1.00
H1151  H     0.27335   0.68681   0.50780   0.00000  Uiso   1.00
H1152  H     0.07843   0.72828   0.95498   0.00000  Uiso   1.00
H1153  H     0.19913   0.68663   0.99252   0.00000  Uiso   1.00
H1154  H     0.23318   0.72169   0.91801   0.00000  Uiso   1.00
H1155  H     0.25719   0.76392   0.96359   0.00000  Uiso   1.00
H1156  H     0.30694   0.72239   0.93389   0.00000  Uiso   1.00
H1157  H     0.12655   0.98767   0.54505   0.00000  Uiso   1.00
H1158  H     0.09729   0.99117   0.99120   0.00000  Uiso   1.00
H1159  H     0.02231   0.95938   0.57544   0.00000  Uiso   1.00
H1160  H     0.00575   0.95307   0.51714   0.00000  Uiso   1.00
H1161  H     0.05885   0.91385   0.53813   0.00000  Uiso   1.00
H1162  H     0.23424   0.67011   0.74686   0.00000  Uiso   1.00
H1163  H     0.09985   0.99682   0.76169   0.00000  Uiso   1.00
H1164  H     0.00426   0.79348   0.71656   0.00000  Uiso   1.00
H1165  H     0.32943   0.87357   0.78297   0.00000  Uiso   1.00
H1166  H     0.18241   0.73152   0.65125   0.00000  Uiso   1.00
H1167  H     0.18088   0.70277   0.59555   0.00000  Uiso   1.00
H1168  H     0.10239   0.97222   0.62090   0.00000  Uiso   1.00
N1169  N     0.31678   0.81932   0.73783   0.00000  Uiso   1.00
N1170  N     0.01656   0.84735   0.76217   0.00000  Uiso   1.00
O1171  O     0.12975   0.91286   0.75299   0.00000  Uiso   1.00
O1172  O     0.22069   0.92557   0.88443   0.00000  Uiso   1.00
O1173  O     0.25006   0.96581   0.95790   0.00000  Uiso   1.00
O1174  O     0.06877   0.71196   0.54179   0.00000  Uiso   1.00
O1175  O     0.20358   0.75381   0.74702   0.00000  Uiso   1.00
O1176  O     0.22613   0.90387   0.74519   0.00000  Uiso   1.00
O1177  O     0.10720   0.76279   0.75482   0.00000  Uiso   1.00
O1178  O     0.11847   0.83784   0.81998   0.00000  Uiso   1.00
O1179  O     0.21486   0.82883   0.68003   0.00000  Uiso   1.00
O1180  O     0.21485   0.82885   0.81218   0.00000  Uiso   1.00
O1181  O     0.11848   0.83781   0.68783   0.00000  Uiso   1.00
O1182  O     0.11051   0.74645   0.61645   0.00000  Uiso   1.00
Zn1183 Zn    0.10231   0.83933   0.75521   0.00000  Uiso   1.00
Zn1184 Zn    0.23102   0.82734   0.74479   0.00000  Uiso   1.00
C1185  C     0.51539   0.93160   0.75004   0.00000  Uiso   1.00
C1186  C     0.53097   0.88140   0.90719   0.00000  Uiso   1.00
C1187  C     0.49659   0.83150   0.61609   0.00000  Uiso   1.00
C1188  C     0.50349   0.83873   0.88411   0.00000  Uiso   1.00
C1189  C     0.52333   0.87443   0.59412   0.00000  Uiso   1.00
C1190  C     0.47220   0.79830   0.90657   0.00000  Uiso   1.00
C1191  C     0.52284   0.87706   0.54815   0.00000  Uiso   1.00
C1192  C     0.46873   0.79785   0.95272   0.00000  Uiso   1.00
C1193  C     0.49511   0.83592   0.52379   0.00000  Uiso   1.00
C1194  C     0.49706   0.83863   0.97704   0.00000  Uiso   1.00
C1195  C     0.46636   0.79182   0.54617   0.00000  Uiso   1.00
C1196  C     0.48480   0.73517   0.75275   0.00000  Uiso   1.00
C1197  C     0.52713   0.88195   0.95455   0.00000  Uiso   1.00
C1198  C     0.55029   0.92057   0.52672   0.00000  Uiso   1.00
C1199  C     0.43686   0.75679   0.97446   0.00000  Uiso   1.00
C1200  C     0.48712   0.71297   0.62620   0.00000  Uiso   1.00
C1201  C     0.45900   0.99596   0.64629   0.00000  Uiso   1.00
C1202  C     0.60614   0.91549   0.85981   0.00000  Uiso   1.00
C1203  C     0.65269   0.95881   0.86815   0.00000  Uiso   1.00
C1204  C     0.57751   0.68170   0.97980   0.00000  Uiso   1.00
C1205  C     0.59478   0.72510   0.94667   0.00000  Uiso   1.00
C1206  C     0.42067   0.99538   0.52796   0.00000  Uiso   1.00
C1207  C     0.55216   0.92445   0.97991   0.00000  Uiso   1.00
C1208  C     0.37393   0.95288   0.54066   0.00000  Uiso   1.00
C1209  C     0.43685   0.75180   0.52093   0.00000  Uiso   1.00
C1210  C     0.52364   0.98627   0.75161   0.00000  Uiso   1.00
C1211  C     0.47707   0.68070   0.75661   0.00000  Uiso   1.00
C1212  C     0.50163   0.83709   0.83633   0.00000  Uiso   1.00
C1213  C     0.49872   0.83184   0.66366   0.00000  Uiso   1.00
C1214  C     0.46906   0.78920   0.59306   0.00000  Uiso   1.00
H1215  H     0.57136   0.95098   0.54691   0.00000  Uiso   1.00
H1216  H     0.49248   0.97222   0.65877   0.00000  Uiso   1.00
H1217  H     0.42778   0.67196   0.67448   0.00000  Uiso   1.00
H1218  H     0.59789   0.91674   0.82384   0.00000  Uiso   1.00
H1219  H     0.62346   0.87710   0.86701   0.00000  Uiso   1.00
H1220  H     0.33430   0.95649   0.90255   0.00000  Uiso   1.00
H1221  H     0.35696   0.95418   0.84395   0.00000  Uiso   1.00
H1222  H     0.63602   0.99779   0.86338   0.00000  Uiso   1.00
H1223  H     0.54472   0.90594   0.61319   0.00000  Uiso   1.00
H1224  H     0.45053   0.76674   0.88767   0.00000  Uiso   1.00
H1225  H     0.60669   0.68681   0.50780   0.00000  Uiso   1.00
H1226  H     0.41176   0.72828   0.95498   0.00000  Uiso   1.00
H1227  H     0.53246   0.68663   0.99252   0.00000  Uiso   1.00
H1228  H     0.56651   0.72169   0.91801   0.00000  Uiso   1.00
H1229  H     0.59052   0.76392   0.96359   0.00000  Uiso   1.00
H1230  H     0.64028   0.72239   0.93389   0.00000  Uiso   1.00
H1231  H     0.45988   0.98767   0.54505   0.00000  Uiso   1.00
H1232  H     0.43062   0.99117   0.99120   0.00000  Uiso   1.00
H1233  H     0.35564   0.95938   0.57544   0.00000  Uiso   1.00
H1234  H     0.33908   0.95307   0.51714   0.00000  Uiso   1.00
H1235  H     0.39218   0.91385   0.53813   0.00000  Uiso   1.00
H1236  H     0.56757   0.67011   0.74686   0.00000  Uiso   1.00
H1237  H     0.43319   0.99682   0.76169   0.00000  Uiso   1.00
H1238  H     0.33759   0.79348   0.71656   0.00000  Uiso   1.00
H1239  H     0.66277   0.87357   0.78297   0.00000  Uiso   1.00
H1240  H     0.51574   0.73152   0.65125   0.00000  Uiso   1.00
H1241  H     0.51421   0.70277   0.59555   0.00000  Uiso   1.00
H1242  H     0.43573   0.97222   0.62090   0.00000  Uiso   1.00
N1243  N     0.65011   0.81932   0.73783   0.00000  Uiso   1.00
N1244  N     0.34989   0.84735   0.76217   0.00000  Uiso   1.00
O1245  O     0.46308   0.91286   0.75299   0.00000  Uiso   1.00
O1246  O     0.55402   0.92557   0.88443   0.00000  Uiso   1.00
O1247  O     0.58339   0.96581   0.95790   0.00000  Uiso   1.00
O1248  O     0.40210   0.71196   0.54179   0.00000  Uiso   1.00
O1249  O     0.53692   0.75381   0.74702   0.00000  Uiso   1.00
O1250  O     0.55946   0.90387   0.74519   0.00000  Uiso   1.00
O1251  O     0.44054   0.76279   0.75482   0.00000  Uiso   1.00
O1252  O     0.45181   0.83784   0.81998   0.00000  Uiso   1.00
O1253  O     0.54819   0.82883   0.68003   0.00000  Uiso   1.00
O1254  O     0.54819   0.82885   0.81218   0.00000  Uiso   1.00
O1255  O     0.45181   0.83781   0.68783   0.00000  Uiso   1.00
O1256  O     0.44385   0.74645   0.61645   0.00000  Uiso   1.00
Zn1257 Zn    0.43565   0.83933   0.75521   0.00000  Uiso   1.00
Zn1258 Zn    0.56435   0.82734   0.74479   0.00000  Uiso   1.00
C1259  C     0.84872   0.93160   0.75004   0.00000  Uiso   1.00
C1260  C     0.86430   0.88140   0.90719   0.00000  Uiso   1.00
C1261  C     0.82992   0.83150   0.61609   0.00000  Uiso   1.00
C1262  C     0.83683   0.83873   0.88411   0.00000  Uiso   1.00
C1263  C     0.85666   0.87443   0.59412   0.00000  Uiso   1.00
C1264  C     0.80554   0.79830   0.90657   0.00000  Uiso   1.00
C1265  C     0.85617   0.87706   0.54815   0.00000  Uiso   1.00
C1266  C     0.80206   0.79785   0.95272   0.00000  Uiso   1.00
C1267  C     0.82844   0.83592   0.52379   0.00000  Uiso   1.00
C1268  C     0.83039   0.83863   0.97704   0.00000  Uiso   1.00
C1269  C     0.79969   0.79182   0.54617   0.00000  Uiso   1.00
C1270  C     0.81813   0.73517   0.75275   0.00000  Uiso   1.00
C1271  C     0.86047   0.88195   0.95455   0.00000  Uiso   1.00
C1272  C     0.88363   0.92057   0.52672   0.00000  Uiso   1.00
C1273  C     0.77019   0.75679   0.97446   0.00000  Uiso   1.00
C1274  C     0.82045   0.71297   0.62620   0.00000  Uiso   1.00
C1275  C     0.79233   0.99596   0.64629   0.00000  Uiso   1.00
C1276  C     0.93948   0.91549   0.85981   0.00000  Uiso   1.00
C1277  C     0.98603   0.95881   0.86815   0.00000  Uiso   1.00
C1278  C     0.91085   0.68170   0.97980   0.00000  Uiso   1.00
C1279  C     0.92811   0.72510   0.94667   0.00000  Uiso   1.00
C1280  C     0.75400   0.99538   0.52796   0.00000  Uiso   1.00
C1281  C     0.88549   0.92445   0.97991   0.00000  Uiso   1.00
C1282  C     0.70726   0.95288   0.54066   0.00000  Uiso   1.00
C1283  C     0.77018   0.75180   0.52093   0.00000  Uiso   1.00
C1284  C     0.85697   0.98627   0.75161   0.00000  Uiso   1.00
C1285  C     0.81041   0.68070   0.75661   0.00000  Uiso   1.00
C1286  C     0.83496   0.83709   0.83633   0.00000  Uiso   1.00
C1287  C     0.83205   0.83184   0.66366   0.00000  Uiso   1.00
C1288  C     0.80239   0.78920   0.59306   0.00000  Uiso   1.00
H1289  H     0.90470   0.95098   0.54691   0.00000  Uiso   1.00
H1290  H     0.82581   0.97222   0.65877   0.00000  Uiso   1.00
H1291  H     0.76111   0.67196   0.67448   0.00000  Uiso   1.00
H1292  H     0.93123   0.91674   0.82384   0.00000  Uiso   1.00
H1293  H     0.95680   0.87710   0.86701   0.00000  Uiso   1.00
H1294  H     0.66763   0.95649   0.90255   0.00000  Uiso   1.00
H1295  H     0.69030   0.95418   0.84395   0.00000  Uiso   1.00
H1296  H     0.96935   0.99779   0.86338   0.00000  Uiso   1.00
H1297  H     0.87805   0.90594   0.61319   0.00000  Uiso   1.00
H1298  H     0.78386   0.76674   0.88767   0.00000  Uiso   1.00
H1299  H     0.94002   0.68681   0.50780   0.00000  Uiso   1.00
H1300  H     0.74510   0.72828   0.95498   0.00000  Uiso   1.00
H1301  H     0.86579   0.68663   0.99252   0.00000  Uiso   1.00
H1302  H     0.89985   0.72169   0.91801   0.00000  Uiso   1.00
H1303  H     0.92386   0.76392   0.96359   0.00000  Uiso   1.00
H1304  H     0.97361   0.72239   0.93389   0.00000  Uiso   1.00
H1305  H     0.79322   0.98767   0.54505   0.00000  Uiso   1.00
H1306  H     0.76395   0.99117   0.99120   0.00000  Uiso   1.00
H1307  H     0.68898   0.95938   0.57544   0.00000  Uiso   1.00
H1308  H     0.67241   0.95307   0.51714   0.00000  Uiso   1.00
H1309  H     0.72551   0.91385   0.53813   0.00000  Uiso   1.00
H1310  H     0.90090   0.67011   0.74686   0.00000  Uiso   1.00
H1311  H     0.76652   0.99682   0.76169   0.00000  Uiso   1.00
H1312  H     0.67092   0.79348   0.71656   0.00000  Uiso   1.00
H1313  H     0.99610   0.87357   0.78297   0.00000  Uiso   1.00
H1314  H     0.84908   0.73152   0.65125   0.00000  Uiso   1.00
H1315  H     0.84755   0.70277   0.59555   0.00000  Uiso   1.00
H1316  H     0.76906   0.97222   0.62090   0.00000  Uiso   1.00
N1317  N     0.98344   0.81932   0.73783   0.00000  Uiso   1.00
N1318  N     0.68322   0.84735   0.76217   0.00000  Uiso   1.00
O1319  O     0.79642   0.91286   0.75299   0.00000  Uiso   1.00
O1320  O     0.88735   0.92557   0.88443   0.00000  Uiso   1.00
O1321  O     0.91672   0.96581   0.95790   0.00000  Uiso   1.00
O1322  O     0.73544   0.71196   0.54179   0.00000  Uiso   1.00
O1323  O     0.87025   0.75381   0.74702   0.00000  Uiso   1.00
O1324  O     0.89280   0.90387   0.74519   0.00000  Uiso   1.00
O1325  O     0.77387   0.76279   0.75482   0.00000  Uiso   1.00
O1326  O     0.78514   0.83784   0.81998   0.00000  Uiso   1.00
O1327  O     0.88153   0.82883   0.68003   0.00000  Uiso   1.00
O1328  O     0.88152   0.82885   0.81218   0.00000  Uiso   1.00
O1329  O     0.78515   0.83781   0.68783   0.00000  Uiso   1.00
O1330  O     0.77718   0.74645   0.61645   0.00000  Uiso   1.00
Zn1331 Zn    0.76898   0.83933   0.75521   0.00000  Uiso   1.00
Zn1332 Zn    0.89769   0.82734   0.74479   0.00000  Uiso   1.00
loop_
_geom_bond_atom_site_label_1
_geom_bond_atom_site_label_2
_geom_bond_distance
_geom_bond_site_symmetry_2
_ccdc_geom_bond_type
C1     O66     1.287   .     A
C1     C26     1.398   .     S
C1     O61     1.277   .     A
C2     C4      1.413   .     A
C2     O62     1.390   .     S
C2     C13     1.411   .     A
C3     C30     1.406   .     A
C3     C29     1.424   .     S
C3     C5      1.382   .     A
C4     C6      1.385   .     A
C4     C28     1.429   .     S
C5     C7      1.376   .     A
C5     H39     1.086   .     S
C6     H40     1.087   .     S
C6     C8      1.375   .     A
C7     C9      1.407   .     A
C7     C14     1.393   .     A
C8     C15     1.392   .     A
C8     C10     1.406   .     A
C9     C11     1.429   .     A
C9     C676    1.397   1_554 S
C10    C13     1.427   .     A
C10    C675    1.397   .     S
C11    C25     1.421   .     A
C11    C30     1.408   .     A
C12    O67     1.288   .     A
C12    C27     1.398   .     S
C12    O65     1.276   .     A
C13    C23     1.422   .     A
C14    H31     1.082   .     S
C14    C689    1.401   1_554 S
C15    H42     1.084   .     S
C15    C691    1.396   .     S
C16    H56     1.110   .     S
C16    O72     1.416   .     S
C16    H57     1.114   .     S
C16    C461    1.522   1_545 S
C17    H58     1.105   .     S
C17    H32     1.109   .     S
C17    C238    1.522   .     S
C17    H255    1.109   .     S
C18    H34     1.105   .     S
C18    C19     1.523   .     S
C18    O62     1.415   .     S
C18    H35     1.118   .     S
C19    H38     1.110   .     S
C19    H110    1.109   .     S
C19    H111    1.111   .     S
C20    H43     1.108   .     S
C20    C21     1.521   .     S
C20    H707    1.110   .     S
C20    O507    1.415   1_545 S
C21    H44     1.111   .     S
C21    H46     1.110   .     S
C21    H45     1.110   .     S
C22    H47     1.106   .     S
C22    C24     1.521   .     S
C22    H714    1.111   1_554 S
C22    O286    1.419   .     S
C23    O63     1.395   .     S
C23    C680    1.401   .     S
C24    H51     1.111   .     S
C24    H50     1.107   .     S
C24    H49     1.110   .     S
C25    O64     1.391   .     S
C25    C681    1.396   1_554 S
C26    C249    1.336   .     S
C26    H274    1.088   .     S
C27    C470    1.336   1_545 S
C27    H497    1.088   1_545 S
C28    O68     1.289   .     A
C28    O70     1.291   .     A
C29    O69     1.288   .     A
C29    O71     1.287   .     A
C30    O72     1.387   .     S
H33    C461    1.109   1_545 S
H36    C167    1.109   1_455 S
H37    C167    1.111   1_455 S
H41    C686    1.110   1_554 S
H48    C688    1.111   .     S
H52    C470    1.088   1_545 S
H53    C249    1.088   .     S
H54    N207    1.029   1_455 S
H55    N134    1.024   .     S
N59    Zn74    2.020   .     S
N59    H128    1.029   .     S
N59    N134    1.267   .     S
N60    Zn73    2.020   .     S
N60    H203    1.024   1_455 S
N60    N207    1.267   1_455 S
O61    Zn73    1.944   .     S
O63    C242    1.415   .     S
O64    C466    1.419   1_545 S
O65    Zn74    1.944   .     S
O66    Zn74    1.968   .     S
O67    Zn73    1.968   .     S
O68    Zn73    1.995   .     S
O69    Zn74    1.995   .     S
O70    Zn74    2.023   .     S
O71    Zn73    2.023   .     S
C75    O140    1.287   .     A
C75    C100    1.398   .     S
C75    O135    1.277   .     A
C76    C78     1.413   .     A
C76    O136    1.390   .     S
C76    C87     1.411   .     A
C77    C104    1.406   .     A
C77    C103    1.424   .     S
C77    C79     1.382   .     A
C78    C80     1.385   .     A
C78    C102    1.429   .     S
C79    C81     1.376   .     A
C79    H113    1.086   .     S
C80    H114    1.087   .     S
C80    C82     1.375   .     A
C81    C83     1.407   .     A
C81    C88     1.393   .     A
C82    C89     1.392   .     A
C82    C84     1.406   .     A
C83    C85     1.429   .     A
C83    C750    1.397   1_554 S
C84    C87     1.427   .     A
C84    C749    1.397   .     S
C85    C99     1.421   .     A
C85    C104    1.408   .     A
C86    O141    1.288   .     A
C86    C101    1.398   .     S
C86    O139    1.276   .     A
C87    C97     1.422   .     A
C88    H105    1.082   .     S
C88    C763    1.401   1_554 S
C89    H116    1.084   .     S
C89    C765    1.396   .     S
C90    H130    1.110   .     S
C90    O146    1.416   .     S
C90    H131    1.114   .     S
C90    C535    1.522   1_545 S
C91    H132    1.105   .     S
C91    H106    1.109   .     S
C91    C312    1.522   .     S
C91    H329    1.109   .     S
C92    H108    1.105   .     S
C92    C93     1.523   .     S
C92    O136    1.415   .     S
C92    H109    1.118   .     S
C93    H112    1.110   .     S
C93    H184    1.109   .     S
C93    H185    1.111   .     S
C94    H117    1.108   .     S
C94    C95     1.521   .     S
C94    H781    1.110   .     S
C94    O581    1.415   1_545 S
C95    H118    1.111   .     S
C95    H120    1.110   .     S
C95    H119    1.110   .     S
C96    H121    1.106   .     S
C96    C98     1.521   .     S
C96    H788    1.111   1_554 S
C96    O360    1.419   .     S
C97    O137    1.395   .     S
C97    C754    1.401   .     S
C98    H125    1.111   .     S
C98    H124    1.107   .     S
C98    H123    1.110   .     S
C99    O138    1.391   .     S
C99    C755    1.396   1_554 S
C100   C323    1.336   .     S
C100   H348    1.088   .     S
C101   C544    1.336   1_545 S
C101   H571    1.088   1_545 S
C102   O142    1.289   .     A
C102   O144    1.291   .     A
C103   O143    1.288   .     A
C103   O145    1.287   .     A
C104   O146    1.387   .     S
H107   C535    1.109   1_545 S
H115   C760    1.110   1_554 S
H122   C762    1.111   .     S
H126   C544    1.088   1_545 S
H127   C323    1.088   .     S
H129   N208    1.024   .     S
N133   Zn148   2.020   .     S
N133   H202    1.029   .     S
N133   N208    1.267   .     S
N134   Zn147   2.020   .     S
O135   Zn147   1.944   .     S
O137   C316    1.415   .     S
O138   C540    1.419   1_545 S
O139   Zn148   1.944   .     S
O140   Zn148   1.968   .     S
O141   Zn147   1.968   .     S
O142   Zn147   1.995   .     S
O143   Zn148   1.995   .     S
O144   Zn148   2.023   .     S
O145   Zn147   2.023   .     S
C149   O214    1.287   .     A
C149   C174    1.398   .     S
C149   O209    1.277   .     A
C150   C152    1.413   .     A
C150   O210    1.390   .     S
C150   C161    1.411   .     A
C151   C178    1.406   .     A
C151   C177    1.424   .     S
C151   C153    1.382   .     A
C152   C154    1.385   .     A
C152   C176    1.429   .     S
C153   C155    1.376   .     A
C153   H187    1.086   .     S
C154   H188    1.087   .     S
C154   C156    1.375   .     A
C155   C157    1.407   .     A
C155   C162    1.393   .     A
C156   C163    1.392   .     A
C156   C158    1.406   .     A
C157   C159    1.429   .     A
C157   C824    1.397   1_554 S
C158   C161    1.427   .     A
C158   C823    1.397   .     S
C159   C173    1.421   .     A
C159   C178    1.408   .     A
C160   O215    1.288   .     A
C160   C175    1.398   .     S
C160   O213    1.276   .     A
C161   C171    1.422   .     A
C162   H179    1.082   .     S
C162   C837    1.401   1_554 S
C163   H190    1.084   .     S
C163   C839    1.396   .     S
C164   H204    1.110   .     S
C164   O220    1.416   .     S
C164   H205    1.114   .     S
C164   C609    1.522   1_545 S
C165   H206    1.105   .     S
C165   H180    1.109   .     S
C165   C386    1.522   .     S
C165   H403    1.109   .     S
C166   H182    1.105   .     S
C166   C167    1.523   .     S
C166   O210    1.415   .     S
C166   H183    1.118   .     S
C167   H186    1.110   .     S
C167   H36     1.109   1_655 S
C167   H37     1.111   1_655 S
C168   H191    1.108   .     S
C168   C169    1.521   .     S
C168   H855    1.110   .     S
C168   O655    1.415   1_545 S
C169   H192    1.111   .     S
C169   H194    1.110   .     S
C169   H193    1.110   .     S
C170   H195    1.106   .     S
C170   C172    1.521   .     S
C170   H862    1.111   1_554 S
C170   O434    1.419   .     S
C171   O211    1.395   .     S
C171   C828    1.401   .     S
C172   H199    1.111   .     S
C172   H198    1.107   .     S
C172   H197    1.110   .     S
C173   O212    1.391   .     S
C173   C829    1.396   1_554 S
C174   C397    1.336   .     S
C174   H422    1.088   .     S
C175   C618    1.336   1_545 S
C175   H645    1.088   1_545 S
C176   O216    1.289   .     A
C176   O218    1.291   .     A
C177   O217    1.288   .     A
C177   O219    1.287   .     A
C178   O220    1.387   .     S
H181   C609    1.109   1_545 S
H189   C834    1.110   1_554 S
H196   C836    1.111   .     S
H200   C618    1.088   1_545 S
H201   C397    1.088   .     S
H203   N60     1.024   1_655 S
N207   Zn222   2.020   .     S
N207   H54     1.029   1_655 S
N207   N60     1.267   1_655 S
N208   Zn221   2.020   .     S
O209   Zn221   1.944   .     S
O211   C390    1.415   .     S
O212   C614    1.419   1_545 S
O213   Zn222   1.944   .     S
O214   Zn222   1.968   .     S
O215   Zn221   1.968   .     S
O216   Zn221   1.995   .     S
O217   Zn222   1.995   .     S
O218   Zn222   2.023   .     S
O219   Zn221   2.023   .     S
C223   O288    1.287   .     A
C223   C248    1.398   .     S
C223   O283    1.277   .     A
C224   C226    1.413   .     A
C224   O284    1.390   .     S
C224   C235    1.411   .     A
C225   C252    1.406   .     A
C225   C251    1.424   .     S
C225   C227    1.382   .     A
C226   C228    1.385   .     A
C226   C250    1.429   .     S
C227   C229    1.376   .     A
C227   H261    1.086   .     S
C228   H262    1.087   .     S
C228   C230    1.375   .     A
C229   C231    1.407   .     A
C229   C236    1.393   .     A
C230   C237    1.392   .     A
C230   C232    1.406   .     A
C231   C233    1.429   .     A
C231   C898    1.397   1_554 S
C232   C235    1.427   .     A
C232   C897    1.397   .     S
C233   C247    1.421   .     A
C233   C252    1.408   .     A
C234   O289    1.288   .     A
C234   C249    1.398   .     S
C234   O287    1.276   .     A
C235   C245    1.422   .     A
C236   H253    1.082   .     S
C236   C911    1.401   1_554 S
C237   H264    1.084   .     S
C237   C913    1.396   .     S
C238   H278    1.110   .     S
C238   O294    1.416   .     S
C238   H279    1.114   .     S
C239   H280    1.105   .     S
C239   H254    1.109   .     S
C239   C460    1.522   .     S
C239   H477    1.109   .     S
C240   H256    1.105   .     S
C240   C241    1.523   .     S
C240   O284    1.415   .     S
C240   H257    1.118   .     S
C241   H260    1.110   .     S
C241   H332    1.109   .     S
C241   H333    1.111   .     S
C242   H265    1.108   .     S
C242   C243    1.521   .     S
C242   H929    1.110   .     S
C243   H266    1.111   .     S
C243   H268    1.110   .     S
C243   H267    1.110   .     S
C244   H269    1.106   .     S
C244   C246    1.521   .     S
C244   H936    1.111   1_554 S
C244   O508    1.419   .     S
C245   O285    1.395   .     S
C245   C902    1.401   .     S
C246   H273    1.111   .     S
C246   H272    1.107   .     S
C246   H271    1.110   .     S
C247   O286    1.391   .     S
C247   C903    1.396   1_554 S
C248   C471    1.336   .     S
C248   H496    1.088   .     S
C250   O290    1.289   .     A
C250   O292    1.291   .     A
C251   O291    1.288   .     A
C251   O293    1.287   .     A
C252   O294    1.387   .     S
H258   C389    1.109   1_455 S
H259   C389    1.111   1_455 S
H263   C908    1.110   1_554 S
H270   C910    1.111   .     S
H275   C471    1.088   .     S
H276   N429    1.029   1_455 S
H277   N356    1.024   .     S
N281   Zn296   2.020   .     S
N281   H350    1.029   .     S
N281   N356    1.267   .     S
N282   Zn295   2.020   .     S
N282   H425    1.024   1_455 S
N282   N429    1.267   1_455 S
O283   Zn295   1.944   .     S
O285   C464    1.415   .     S
O287   Zn296   1.944   .     S
O288   Zn296   1.968   .     S
O289   Zn295   1.968   .     S
O290   Zn295   1.995   .     S
O291   Zn296   1.995   .     S
O292   Zn296   2.023   .     S
O293   Zn295   2.023   .     S
C297   O362    1.287   .     A
C297   C322    1.398   .     S
C297   O357    1.277   .     A
C298   C300    1.413   .     A
C298   O358    1.390   .     S
C298   C309    1.411   .     A
C299   C326    1.406   .     A
C299   C325    1.424   .     S
C299   C301    1.382   .     A
C300   C302    1.385   .     A
C300   C324    1.429   .     S
C301   C303    1.376   .     A
C301   H335    1.086   .     S
C302   H336    1.087   .     S
C302   C304    1.375   .     A
C303   C305    1.407   .     A
C303   C310    1.393   .     A
C304   C311    1.392   .     A
C304   C306    1.406   .     A
C305   C307    1.429   .     A
C305   C972    1.397   1_554 S
C306   C309    1.427   .     A
C306   C971    1.397   .     S
C307   C321    1.421   .     A
C307   C326    1.408   .     A
C308   O363    1.288   .     A
C308   C323    1.398   .     S
C308   O361    1.276   .     A
C309   C319    1.422   .     A
C310   H327    1.082   .     S
C310   C985    1.401   1_554 S
C311   H338    1.084   .     S
C311   C987    1.396   .     S
C312   H352    1.110   .     S
C312   O368    1.416   .     S
C312   H353    1.114   .     S
C313   H354    1.105   .     S
C313   H328    1.109   .     S
C313   C534    1.522   .     S
C313   H551    1.109   .     S
C314   H330    1.105   .     S
C314   C315    1.523   .     S
C314   O358    1.415   .     S
C314   H331    1.118   .     S
C315   H334    1.110   .     S
C315   H406    1.109   .     S
C315   H407    1.111   .     S
C316   H339    1.108   .     S
C316   C317    1.521   .     S
C316   H1003   1.110   .     S
C317   H340    1.111   .     S
C317   H342    1.110   .     S
C317   H341    1.110   .     S
C318   H343    1.106   .     S
C318   C320    1.521   .     S
C318   H1010   1.111   1_554 S
C318   O582    1.419   .     S
C319   O359    1.395   .     S
C319   C976    1.401   .     S
C320   H347    1.111   .     S
C320   H346    1.107   .     S
C320   H345    1.110   .     S
C321   O360    1.391   .     S
C321   C977    1.396   1_554 S
C322   C545    1.336   .     S
C322   H570    1.088   .     S
C324   O364    1.289   .     A
C324   O366    1.291   .     A
C325   O365    1.288   .     A
C325   O367    1.287   .     A
C326   O368    1.387   .     S
H337   C982    1.110   1_554 S
H344   C984    1.111   .     S
H349   C545    1.088   .     S
H351   N430    1.024   .     S
N355   Zn370   2.020   .     S
N355   H424    1.029   .     S
N355   N430    1.267   .     S
N356   Zn369   2.020   .     S
O357   Zn369   1.944   .     S
O359   C538    1.415   .     S
O361   Zn370   1.944   .     S
O362   Zn370   1.968   .     S
O363   Zn369   1.968   .     S
O364   Zn369   1.995   .     S
O365   Zn370   1.995   .     S
O366   Zn370   2.023   .     S
O367   Zn369   2.023   .     S
C371   O436    1.287   .     A
C371   C396    1.398   .     S
C371   O431    1.277   .     A
C372   C374    1.413   .     A
C372   O432    1.390   .     S
C372   C383    1.411   .     A
C373   C400    1.406   .     A
C373   C399    1.424   .     S
C373   C375    1.382   .     A
C374   C376    1.385   .     A
C374   C398    1.429   .     S
C375   C377    1.376   .     A
C375   H409    1.086   .     S
C376   H410    1.087   .     S
C376   C378    1.375   .     A
C377   C379    1.407   .     A
C377   C384    1.393   .     A
C378   C385    1.392   .     A
C378   C380    1.406   .     A
C379   C381    1.429   .     A
C379   C1046   1.397   1_554 S
C380   C383    1.427   .     A
C380   C1045   1.397   .     S
C381   C395    1.421   .     A
C381   C400    1.408   .     A
C382   O437    1.288   .     A
C382   C397    1.398   .     S
C382   O435    1.276   .     A
C383   C393    1.422   .     A
C384   H401    1.082   .     S
C384   C1059   1.401   1_554 S
C385   H412    1.084   .     S
C385   C1061   1.396   .     S
C386   H426    1.110   .     S
C386   O442    1.416   .     S
C386   H427    1.114   .     S
C387   H428    1.105   .     S
C387   H402    1.109   .     S
C387   C608    1.522   .     S
C387   H625    1.109   .     S
C388   H404    1.105   .     S
C388   C389    1.523   .     S
C388   O432    1.415   .     S
C388   H405    1.118   .     S
C389   H408    1.110   .     S
C389   H258    1.109   1_655 S
C389   H259    1.111   1_655 S
C390   H413    1.108   .     S
C390   C391    1.521   .     S
C390   H1077   1.110   .     S
C391   H414    1.111   .     S
C391   H416    1.110   .     S
C391   H415    1.110   .     S
C392   H417    1.106   .     S
C392   C394    1.521   .     S
C392   H1084   1.111   1_554 S
C392   O656    1.419   .     S
C393   O433    1.395   .     S
C393   C1050   1.401   .     S
C394   H421    1.111   .     S
C394   H420    1.107   .     S
C394   H419    1.110   .     S
C395   O434    1.391   .     S
C395   C1051   1.396   1_554 S
C396   C619    1.336   .     S
C396   H644    1.088   .     S
C398   O438    1.289   .     A
C398   O440    1.291   .     A
C399   O439    1.288   .     A
C399   O441    1.287   .     A
C400   O442    1.387   .     S
H411   C1056   1.110   1_554 S
H418   C1058   1.111   .     S
H423   C619    1.088   .     S
H425   N282    1.024   1_655 S
N429   Zn444   2.020   .     S
N429   H276    1.029   1_655 S
N429   N282    1.267   1_655 S
N430   Zn443   2.020   .     S
O431   Zn443   1.944   .     S
O433   C612    1.415   .     S
O435   Zn444   1.944   .     S
O436   Zn444   1.968   .     S
O437   Zn443   1.968   .     S
O438   Zn443   1.995   .     S
O439   Zn444   1.995   .     S
O440   Zn444   2.023   .     S
O441   Zn443   2.023   .     S
C445   O510    1.287   .     A
C445   C470    1.398   .     S
C445   O505    1.277   .     A
C446   C448    1.413   .     A
C446   O506    1.390   .     S
C446   C457    1.411   .     A
C447   C474    1.406   .     A
C447   C473    1.424   .     S
C447   C449    1.382   .     A
C448   C450    1.385   .     A
C448   C472    1.429   .     S
C449   C451    1.376   .     A
C449   H483    1.086   .     S
C450   H484    1.087   .     S
C450   C452    1.375   .     A
C451   C453    1.407   .     A
C451   C458    1.393   .     A
C452   C459    1.392   .     A
C452   C454    1.406   .     A
C453   C455    1.429   .     A
C453   C1120   1.397   1_554 S
C454   C457    1.427   .     A
C454   C1119   1.397   .     S
C455   C469    1.421   .     A
C455   C474    1.408   .     A
C456   O511    1.288   .     A
C456   C471    1.398   .     S
C456   O509    1.276   .     A
C457   C467    1.422   .     A
C458   H475    1.082   .     S
C458   C1133   1.401   1_554 S
C459   H486    1.084   .     S
C459   C1135   1.396   .     S
C460   H500    1.110   .     S
C460   O516    1.416   .     S
C460   H501    1.114   .     S
C461   H502    1.105   .     S
C461   H476    1.109   .     S
C461   C16     1.522   1_565 S
C461   H33     1.109   1_565 S
C462   H478    1.105   .     S
C462   C463    1.523   .     S
C462   O506    1.415   .     S
C462   H479    1.118   .     S
C463   H482    1.110   .     S
C463   H554    1.109   .     S
C463   H555    1.111   .     S
C464   H487    1.108   .     S
C464   C465    1.521   .     S
C464   H1151   1.110   .     S
C465   H488    1.111   .     S
C465   H490    1.110   .     S
C465   H489    1.110   .     S
C466   H491    1.106   .     S
C466   C468    1.521   .     S
C466   H1158   1.111   1_554 S
C466   O64     1.419   1_565 S
C467   O507    1.395   .     S
C467   C1124   1.401   .     S
C468   H495    1.111   .     S
C468   H494    1.107   .     S
C468   H493    1.110   .     S
C469   O508    1.391   .     S
C469   C1125   1.396   1_554 S
C470   C27     1.336   1_565 S
C470   H52     1.088   1_565 S
C472   O512    1.289   .     A
C472   O514    1.291   .     A
C473   O513    1.288   .     A
C473   O515    1.287   .     A
C474   O516    1.387   .     S
H480   C611    1.109   1_455 S
H481   C611    1.111   1_455 S
H485   C1130   1.110   1_554 S
H492   C1132   1.111   .     S
H497   C27     1.088   1_565 S
H498   N651    1.029   1_455 S
H499   N578    1.024   .     S
N503   Zn518   2.020   .     S
N503   H572    1.029   .     S
N503   N578    1.267   .     S
N504   Zn517   2.020   .     S
N504   H647    1.024   1_455 S
N504   N651    1.267   1_455 S
O505   Zn517   1.944   .     S
O507   C20     1.415   1_565 S
O509   Zn518   1.944   .     S
O510   Zn518   1.968   .     S
O511   Zn517   1.968   .     S
O512   Zn517   1.995   .     S
O513   Zn518   1.995   .     S
O514   Zn518   2.023   .     S
O515   Zn517   2.023   .     S
C519   O584    1.287   .     A
C519   C544    1.398   .     S
C519   O579    1.277   .     A
C520   C522    1.413   .     A
C520   O580    1.390   .     S
C520   C531    1.411   .     A
C521   C548    1.406   .     A
C521   C547    1.424   .     S
C521   C523    1.382   .     A
C522   C524    1.385   .     A
C522   C546    1.429   .     S
C523   C525    1.376   .     A
C523   H557    1.086   .     S
C524   H558    1.087   .     S
C524   C526    1.375   .     A
C525   C527    1.407   .     A
C525   C532    1.393   .     A
C526   C533    1.392   .     A
C526   C528    1.406   .     A
C527   C529    1.429   .     A
C527   C1194   1.397   1_554 S
C528   C531    1.427   .     A
C528   C1193   1.397   .     S
C529   C543    1.421   .     A
C529   C548    1.408   .     A
C530   O585    1.288   .     A
C530   C545    1.398   .     S
C530   O583    1.276   .     A
C531   C541    1.422   .     A
C532   H549    1.082   .     S
C532   C1207   1.401   1_554 S
C533   H560    1.084   .     S
C533   C1209   1.396   .     S
C534   H574    1.110   .     S
C534   O590    1.416   .     S
C534   H575    1.114   .     S
C535   H576    1.105   .     S
C535   H550    1.109   .     S
C535   C90     1.522   1_565 S
C535   H107    1.109   1_565 S
C536   H552    1.105   .     S
C536   C537    1.523   .     S
C536   O580    1.415   .     S
C536   H553    1.118   .     S
C537   H556    1.110   .     S
C537   H628    1.109   .     S
C537   H629    1.111   .     S
C538   H561    1.108   .     S
C538   C539    1.521   .     S
C538   H1225   1.110   .     S
C539   H562    1.111   .     S
C539   H564    1.110   .     S
C539   H563    1.110   .     S
C540   H565    1.106   .     S
C540   C542    1.521   .     S
C540   H1232   1.111   1_554 S
C540   O138    1.419   1_565 S
C541   O581    1.395   .     S
C541   C1198   1.401   .     S
C542   H569    1.111   .     S
C542   H568    1.107   .     S
C542   H567    1.110   .     S
C543   O582    1.391   .     S
C543   C1199   1.396   1_554 S
C544   C101    1.336   1_565 S
C544   H126    1.088   1_565 S
C546   O586    1.289   .     A
C546   O588    1.291   .     A
C547   O587    1.288   .     A
C547   O589    1.287   .     A
C548   O590    1.387   .     S
H559   C1204   1.110   1_554 S
H566   C1206   1.111   .     S
H571   C101    1.088   1_565 S
H573   N652    1.024   .     S
N577   Zn592   2.020   .     S
N577   H646    1.029   .     S
N577   N652    1.267   .     S
N578   Zn591   2.020   .     S
O579   Zn591   1.944   .     S
O581   C94     1.415   1_565 S
O583   Zn592   1.944   .     S
O584   Zn592   1.968   .     S
O585   Zn591   1.968   .     S
O586   Zn591   1.995   .     S
O587   Zn592   1.995   .     S
O588   Zn592   2.023   .     S
O589   Zn591   2.023   .     S
C593   O658    1.287   .     A
C593   C618    1.398   .     S
C593   O653    1.277   .     A
C594   C596    1.413   .     A
C594   O654    1.390   .     S
C594   C605    1.411   .     A
C595   C622    1.406   .     A
C595   C621    1.424   .     S
C595   C597    1.382   .     A
C596   C598    1.385   .     A
C596   C620    1.429   .     S
C597   C599    1.376   .     A
C597   H631    1.086   .     S
C598   H632    1.087   .     S
C598   C600    1.375   .     A
C599   C601    1.407   .     A
C599   C606    1.393   .     A
C600   C607    1.392   .     A
C600   C602    1.406   .     A
C601   C603    1.429   .     A
C601   C1268   1.397   1_554 S
C602   C605    1.427   .     A
C602   C1267   1.397   .     S
C603   C617    1.421   .     A
C603   C622    1.408   .     A
C604   O659    1.288   .     A
C604   C619    1.398   .     S
C604   O657    1.276   .     A
C605   C615    1.422   .     A
C606   H623    1.082   .     S
C606   C1281   1.401   1_554 S
C607   H634    1.084   .     S
C607   C1283   1.396   .     S
C608   H648    1.110   .     S
C608   O664    1.416   .     S
C608   H649    1.114   .     S
C609   H650    1.105   .     S
C609   H624    1.109   .     S
C609   C164    1.522   1_565 S
C609   H181    1.109   1_565 S
C610   H626    1.105   .     S
C610   C611    1.523   .     S
C610   O654    1.415   .     S
C610   H627    1.118   .     S
C611   H630    1.110   .     S
C611   H480    1.109   1_655 S
C611   H481    1.111   1_655 S
C612   H635    1.108   .     S
C612   C613    1.521   .     S
C612   H1299   1.110   .     S
C613   H636    1.111   .     S
C613   H638    1.110   .     S
C613   H637    1.110   .     S
C614   H639    1.106   .     S
C614   C616    1.521   .     S
C614   H1306   1.111   1_554 S
C614   O212    1.419   1_565 S
C615   O655    1.395   .     S
C615   C1272   1.401   .     S
C616   H643    1.111   .     S
C616   H642    1.107   .     S
C616   H641    1.110   .     S
C617   O656    1.391   .     S
C617   C1273   1.396   1_554 S
C618   C175    1.336   1_565 S
C618   H200    1.088   1_565 S
C620   O660    1.289   .     A
C620   O662    1.291   .     A
C621   O661    1.288   .     A
C621   O663    1.287   .     A
C622   O664    1.387   .     S
H633   C1278   1.110   1_554 S
H640   C1280   1.111   .     S
H645   C175    1.088   1_565 S
H647   N504    1.024   1_655 S
N651   Zn666   2.020   .     S
N651   H498    1.029   1_655 S
N651   N504    1.267   1_655 S
N652   Zn665   2.020   .     S
O653   Zn665   1.944   .     S
O655   C168    1.415   1_565 S
O657   Zn666   1.944   .     S
O658   Zn666   1.968   .     S
O659   Zn665   1.968   .     S
O660   Zn665   1.995   .     S
O661   Zn666   1.995   .     S
O662   Zn666   2.023   .     S
O663   Zn665   2.023   .     S
C667   O732    1.287   .     A
C667   C692    1.398   .     S
C667   O727    1.277   .     A
C668   C670    1.413   .     A
C668   O728    1.390   .     S
C668   C679    1.411   .     A
C669   C696    1.406   .     A
C669   C695    1.424   .     S
C669   C671    1.382   .     A
C670   C672    1.385   .     A
C670   C694    1.429   .     S
C671   C673    1.376   .     A
C671   H705    1.086   .     S
C672   H706    1.087   .     S
C672   C674    1.375   .     A
C673   C675    1.407   .     A
C673   C680    1.393   .     A
C674   C681    1.392   .     A
C674   C676    1.406   .     A
C675   C677    1.429   .     A
C676   C679    1.427   .     A
C676   C9      1.397   1_556 S
C677   C691    1.421   .     A
C677   C696    1.408   .     A
C678   O733    1.288   .     A
C678   C693    1.398   .     S
C678   O731    1.276   .     A
C679   C689    1.422   .     A
C680   H697    1.082   .     S
C681   H708    1.084   .     S
C681   C25     1.396   1_556 S
C682   H722    1.110   .     S
C682   O738    1.416   .     S
C682   H723    1.114   .     S
C682   C1127   1.522   1_545 S
C683   H724    1.105   .     S
C683   H698    1.109   .     S
C683   C904    1.522   .     S
C683   H921    1.109   .     S
C684   H700    1.105   .     S
C684   C685    1.523   .     S
C684   O728    1.415   .     S
C684   H701    1.118   .     S
C685   H704    1.110   .     S
C685   H776    1.109   .     S
C685   H777    1.111   .     S
C686   H709    1.108   .     S
C686   C687    1.521   .     S
C686   H41     1.110   1_556 S
C686   O1173   1.415   1_545 S
C687   H710    1.111   .     S
C687   H712    1.110   .     S
C687   H711    1.110   .     S
C688   H713    1.106   .     S
C688   C690    1.521   .     S
C688   O952    1.419   .     S
C689   O729    1.395   .     S
C689   C14     1.401   1_556 S
C690   H717    1.111   .     S
C690   H716    1.107   .     S
C690   H715    1.110   .     S
C691   O730    1.391   .     S
C692   C915    1.336   .     S
C692   H940    1.088   .     S
C693   C1136   1.336   1_545 S
C693   H1163   1.088   1_545 S
C694   O734    1.289   .     A
C694   O736    1.291   .     A
C695   O735    1.288   .     A
C695   O737    1.287   .     A
C696   O738    1.387   .     S
H699   C1127   1.109   1_545 S
H702   C833    1.109   1_455 S
H703   C833    1.111   1_455 S
H714   C22     1.111   1_556 S
H718   C1136   1.088   1_545 S
H719   C915    1.088   .     S
H720   N873    1.029   1_455 S
H721   N800    1.024   .     S
N725   Zn740   2.020   .     S
N725   H794    1.029   .     S
N725   N800    1.267   .     S
N726   Zn739   2.020   .     S
N726   H869    1.024   1_455 S
N726   N873    1.267   1_455 S
O727   Zn739   1.944   .     S
O729   C908    1.415   .     S
O730   C1132   1.419   1_545 S
O731   Zn740   1.944   .     S
O732   Zn740   1.968   .     S
O733   Zn739   1.968   .     S
O734   Zn739   1.995   .     S
O735   Zn740   1.995   .     S
O736   Zn740   2.023   .     S
O737   Zn739   2.023   .     S
C741   O806    1.287   .     A
C741   C766    1.398   .     S
C741   O801    1.277   .     A
C742   C744    1.413   .     A
C742   O802    1.390   .     S
C742   C753    1.411   .     A
C743   C770    1.406   .     A
C743   C769    1.424   .     S
C743   C745    1.382   .     A
C744   C746    1.385   .     A
C744   C768    1.429   .     S
C745   C747    1.376   .     A
C745   H779    1.086   .     S
C746   H780    1.087   .     S
C746   C748    1.375   .     A
C747   C749    1.407   .     A
C747   C754    1.393   .     A
C748   C755    1.392   .     A
C748   C750    1.406   .     A
C749   C751    1.429   .     A
C750   C753    1.427   .     A
C750   C83     1.397   1_556 S
C751   C765    1.421   .     A
C751   C770    1.408   .     A
C752   O807    1.288   .     A
C752   C767    1.398   .     S
C752   O805    1.276   .     A
C753   C763    1.422   .     A
C754   H771    1.082   .     S
C755   H782    1.084   .     S
C755   C99     1.396   1_556 S
C756   H796    1.110   .     S
C756   O812    1.416   .     S
C756   H797    1.114   .     S
C756   C1201   1.522   1_545 S
C757   H798    1.105   .     S
C757   H772    1.109   .     S
C757   C978    1.522   .     S
C757   H995    1.109   .     S
C758   H774    1.105   .     S
C758   C759    1.523   .     S
C758   O802    1.415   .     S
C758   H775    1.118   .     S
C759   H778    1.110   .     S
C759   H850    1.109   .     S
C759   H851    1.111   .     S
C760   H783    1.108   .     S
C760   C761    1.521   .     S
C760   H115    1.110   1_556 S
C760   O1247   1.415   1_545 S
C761   H784    1.111   .     S
C761   H786    1.110   .     S
C761   H785    1.110   .     S
C762   H787    1.106   .     S
C762   C764    1.521   .     S
C762   O1026   1.419   .     S
C763   O803    1.395   .     S
C763   C88     1.401   1_556 S
C764   H791    1.111   .     S
C764   H790    1.107   .     S
C764   H789    1.110   .     S
C765   O804    1.391   .     S
C766   C989    1.336   .     S
C766   H1014   1.088   .     S
C767   C1210   1.336   1_545 S
C767   H1237   1.088   1_545 S
C768   O808    1.289   .     A
C768   O810    1.291   .     A
C769   O809    1.288   .     A
C769   O811    1.287   .     A
C770   O812    1.387   .     S
H773   C1201   1.109   1_545 S
H788   C96     1.111   1_556 S
H792   C1210   1.088   1_545 S
H793   C989    1.088   .     S
H795   N874    1.024   .     S
N799   Zn814   2.020   .     S
N799   H868    1.029   .     S
N799   N874    1.267   .     S
N800   Zn813   2.020   .     S
O801   Zn813   1.944   .     S
O803   C982    1.415   .     S
O804   C1206   1.419   1_545 S
O805   Zn814   1.944   .     S
O806   Zn814   1.968   .     S
O807   Zn813   1.968   .     S
O808   Zn813   1.995   .     S
O809   Zn814   1.995   .     S
O810   Zn814   2.023   .     S
O811   Zn813   2.023   .     S
C815   O880    1.287   .     A
C815   C840    1.398   .     S
C815   O875    1.277   .     A
C816   C818    1.413   .     A
C816   O876    1.390   .     S
C816   C827    1.411   .     A
C817   C844    1.406   .     A
C817   C843    1.424   .     S
C817   C819    1.382   .     A
C818   C820    1.385   .     A
C818   C842    1.429   .     S
C819   C821    1.376   .     A
C819   H853    1.086   .     S
C820   H854    1.087   .     S
C820   C822    1.375   .     A
C821   C823    1.407   .     A
C821   C828    1.393   .     A
C822   C829    1.392   .     A
C822   C824    1.406   .     A
C823   C825    1.429   .     A
C824   C827    1.427   .     A
C824   C157    1.397   1_556 S
C825   C839    1.421   .     A
C825   C844    1.408   .     A
C826   O881    1.288   .     A
C826   C841    1.398   .     S
C826   O879    1.276   .     A
C827   C837    1.422   .     A
C828   H845    1.082   .     S
C829   H856    1.084   .     S
C829   C173    1.396   1_556 S
C830   H870    1.110   .     S
C830   O886    1.416   .     S
C830   H871    1.114   .     S
C830   C1275   1.522   1_545 S
C831   H872    1.105   .     S
C831   H846    1.109   .     S
C831   C1052   1.522   .     S
C831   H1069   1.109   .     S
C832   H848    1.105   .     S
C832   C833    1.523   .     S
C832   O876    1.415   .     S
C832   H849    1.118   .     S
C833   H852    1.110   .     S
C833   H702    1.109   1_655 S
C833   H703    1.111   1_655 S
C834   H857    1.108   .     S
C834   C835    1.521   .     S
C834   H189    1.110   1_556 S
C834   O1321   1.415   1_545 S
C835   H858    1.111   .     S
C835   H860    1.110   .     S
C835   H859    1.110   .     S
C836   H861    1.106   .     S
C836   C838    1.521   .     S
C836   O1100   1.419   .     S
C837   O877    1.395   .     S
C837   C162    1.401   1_556 S
C838   H865    1.111   .     S
C838   H864    1.107   .     S
C838   H863    1.110   .     S
C839   O878    1.391   .     S
C840   C1063   1.336   .     S
C840   H1088   1.088   .     S
C841   C1284   1.336   1_545 S
C841   H1311   1.088   1_545 S
C842   O882    1.289   .     A
C842   O884    1.291   .     A
C843   O883    1.288   .     A
C843   O885    1.287   .     A
C844   O886    1.387   .     S
H847   C1275   1.109   1_545 S
H862   C170    1.111   1_556 S
H866   C1284   1.088   1_545 S
H867   C1063   1.088   .     S
H869   N726    1.024   1_655 S
N873   Zn888   2.020   .     S
N873   H720    1.029   1_655 S
N873   N726    1.267   1_655 S
N874   Zn887   2.020   .     S
O875   Zn887   1.944   .     S
O877   C1056   1.415   .     S
O878   C1280   1.419   1_545 S
O879   Zn888   1.944   .     S
O880   Zn888   1.968   .     S
O881   Zn887   1.968   .     S
O882   Zn887   1.995   .     S
O883   Zn888   1.995   .     S
O884   Zn888   2.023   .     S
O885   Zn887   2.023   .     S
C889   O954    1.287   .     A
C889   C914    1.398   .     S
C889   O949    1.277   .     A
C890   C892    1.413   .     A
C890   O950    1.390   .     S
C890   C901    1.411   .     A
C891   C918    1.406   .     A
C891   C917    1.424   .     S
C891   C893    1.382   .     A
C892   C894    1.385   .     A
C892   C916    1.429   .     S
C893   C895    1.376   .     A
C893   H927    1.086   .     S
C894   H928    1.087   .     S
C894   C896    1.375   .     A
C895   C897    1.407   .     A
C895   C902    1.393   .     A
C896   C903    1.392   .     A
C896   C898    1.406   .     A
C897   C899    1.429   .     A
C898   C901    1.427   .     A
C898   C231    1.397   1_556 S
C899   C913    1.421   .     A
C899   C918    1.408   .     A
C900   O955    1.288   .     A
C900   C915    1.398   .     S
C900   O953    1.276   .     A
C901   C911    1.422   .     A
C902   H919    1.082   .     S
C903   H930    1.084   .     S
C903   C247    1.396   1_556 S
C904   H944    1.110   .     S
C904   O960    1.416   .     S
C904   H945    1.114   .     S
C905   H946    1.105   .     S
C905   H920    1.109   .     S
C905   C1126   1.522   .     S
C905   H1143   1.109   .     S
C906   H922    1.105   .     S
C906   C907    1.523   .     S
C906   O950    1.415   .     S
C906   H923    1.118   .     S
C907   H926    1.110   .     S
C907   H998    1.109   .     S
C907   H999    1.111   .     S
C908   H931    1.108   .     S
C908   C909    1.521   .     S
C908   H263    1.110   1_556 S
C909   H932    1.111   .     S
C909   H934    1.110   .     S
C909   H933    1.110   .     S
C910   H935    1.106   .     S
C910   C912    1.521   .     S
C910   O1174   1.419   .     S
C911   O951    1.395   .     S
C911   C236    1.401   1_556 S
C912   H939    1.111   .     S
C912   H938    1.107   .     S
C912   H937    1.110   .     S
C913   O952    1.391   .     S
C914   C1137   1.336   .     S
C914   H1162   1.088   .     S
C916   O956    1.289   .     A
C916   O958    1.291   .     A
C917   O957    1.288   .     A
C917   O959    1.287   .     A
C918   O960    1.387   .     S
H924   C1055   1.109   1_455 S
H925   C1055   1.111   1_455 S
H936   C244    1.111   1_556 S
H941   C1137   1.088   .     S
H942   N1095   1.029   1_455 S
H943   N1022   1.024   .     S
N947   Zn962   2.020   .     S
N947   H1016   1.029   .     S
N947   N1022   1.267   .     S
N948   Zn961   2.020   .     S
N948   H1091   1.024   1_455 S
N948   N1095   1.267   1_455 S
O949   Zn961   1.944   .     S
O951   C1130   1.415   .     S
O953   Zn962   1.944   .     S
O954   Zn962   1.968   .     S
O955   Zn961   1.968   .     S
O956   Zn961   1.995   .     S
O957   Zn962   1.995   .     S
O958   Zn962   2.023   .     S
O959   Zn961   2.023   .     S
C963   O1028   1.287   .     A
C963   C988    1.398   .     S
C963   O1023   1.277   .     A
C964   C966    1.413   .     A
C964   O1024   1.390   .     S
C964   C975    1.411   .     A
C965   C992    1.406   .     A
C965   C991    1.424   .     S
C965   C967    1.382   .     A
C966   C968    1.385   .     A
C966   C990    1.429   .     S
C967   C969    1.376   .     A
C967   H1001   1.086   .     S
C968   H1002   1.087   .     S
C968   C970    1.375   .     A
C969   C971    1.407   .     A
C969   C976    1.393   .     A
C970   C977    1.392   .     A
C970   C972    1.406   .     A
C971   C973    1.429   .     A
C972   C975    1.427   .     A
C972   C305    1.397   1_556 S
C973   C987    1.421   .     A
C973   C992    1.408   .     A
C974   O1029   1.288   .     A
C974   C989    1.398   .     S
C974   O1027   1.276   .     A
C975   C985    1.422   .     A
C976   H993    1.082   .     S
C977   H1004   1.084   .     S
C977   C321    1.396   1_556 S
C978   H1018   1.110   .     S
C978   O1034   1.416   .     S
C978   H1019   1.114   .     S
C979   H1020   1.105   .     S
C979   H994    1.109   .     S
C979   C1200   1.522   .     S
C979   H1217   1.109   .     S
C980   H996    1.105   .     S
C980   C981    1.523   .     S
C980   O1024   1.415   .     S
C980   H997    1.118   .     S
C981   H1000   1.110   .     S
C981   H1072   1.109   .     S
C981   H1073   1.111   .     S
C982   H1005   1.108   .     S
C982   C983    1.521   .     S
C982   H337    1.110   1_556 S
C983   H1006   1.111   .     S
C983   H1008   1.110   .     S
C983   H1007   1.110   .     S
C984   H1009   1.106   .     S
C984   C986    1.521   .     S
C984   O1248   1.419   .     S
C985   O1025   1.395   .     S
C985   C310    1.401   1_556 S
C986   H1013   1.111   .     S
C986   H1012   1.107   .     S
C986   H1011   1.110   .     S
C987   O1026   1.391   .     S
C988   C1211   1.336   .     S
C988   H1236   1.088   .     S
C990   O1030   1.289   .     A
C990   O1032   1.291   .     A
C991   O1031   1.288   .     A
C991   O1033   1.287   .     A
C992   O1034   1.387   .     S
H1010  C318    1.111   1_556 S
H1015  C1211   1.088   .     S
H1017  N1096   1.024   .     S
N1021  Zn1036  2.020   .     S
N1021  H1090   1.029   .     S
N1021  N1096   1.267   .     S
N1022  Zn1035  2.020   .     S
O1023  Zn1035  1.944   .     S
O1025  C1204   1.415   .     S
O1027  Zn1036  1.944   .     S
O1028  Zn1036  1.968   .     S
O1029  Zn1035  1.968   .     S
O1030  Zn1035  1.995   .     S
O1031  Zn1036  1.995   .     S
O1032  Zn1036  2.023   .     S
O1033  Zn1035  2.023   .     S
C1037  O1102   1.287   .     A
C1037  C1062   1.398   .     S
C1037  O1097   1.277   .     A
C1038  C1040   1.413   .     A
C1038  O1098   1.390   .     S
C1038  C1049   1.411   .     A
C1039  C1066   1.406   .     A
C1039  C1065   1.424   .     S
C1039  C1041   1.382   .     A
C1040  C1042   1.385   .     A
C1040  C1064   1.429   .     S
C1041  C1043   1.376   .     A
C1041  H1075   1.086   .     S
C1042  H1076   1.087   .     S
C1042  C1044   1.375   .     A
C1043  C1045   1.407   .     A
C1043  C1050   1.393   .     A
C1044  C1051   1.392   .     A
C1044  C1046   1.406   .     A
C1045  C1047   1.429   .     A
C1046  C1049   1.427   .     A
C1046  C379    1.397   1_556 S
C1047  C1061   1.421   .     A
C1047  C1066   1.408   .     A
C1048  O1103   1.288   .     A
C1048  C1063   1.398   .     S
C1048  O1101   1.276   .     A
C1049  C1059   1.422   .     A
C1050  H1067   1.082   .     S
C1051  H1078   1.084   .     S
C1051  C395    1.396   1_556 S
C1052  H1092   1.110   .     S
C1052  O1108   1.416   .     S
C1052  H1093   1.114   .     S
C1053  H1094   1.105   .     S
C1053  H1068   1.109   .     S
C1053  C1274   1.522   .     S
C1053  H1291   1.109   .     S
C1054  H1070   1.105   .     S
C1054  C1055   1.523   .     S
C1054  O1098   1.415   .     S
C1054  H1071   1.118   .     S
C1055  H1074   1.110   .     S
C1055  H924    1.109   1_655 S
C1055  H925    1.111   1_655 S
C1056  H1079   1.108   .     S
C1056  C1057   1.521   .     S
C1056  H411    1.110   1_556 S
C1057  H1080   1.111   .     S
C1057  H1082   1.110   .     S
C1057  H1081   1.110   .     S
C1058  H1083   1.106   .     S
C1058  C1060   1.521   .     S
C1058  O1322   1.419   .     S
C1059  O1099   1.395   .     S
C1059  C384    1.401   1_556 S
C1060  H1087   1.111   .     S
C1060  H1086   1.107   .     S
C1060  H1085   1.110   .     S
C1061  O1100   1.391   .     S
C1062  C1285   1.336   .     S
C1062  H1310   1.088   .     S
C1064  O1104   1.289   .     A
C1064  O1106   1.291   .     A
C1065  O1105   1.288   .     A
C1065  O1107   1.287   .     A
C1066  O1108   1.387   .     S
H1084  C392    1.111   1_556 S
H1089  C1285   1.088   .     S
H1091  N948    1.024   1_655 S
N1095  Zn1110  2.020   .     S
N1095  H942    1.029   1_655 S
N1095  N948    1.267   1_655 S
N1096  Zn1109  2.020   .     S
O1097  Zn1109  1.944   .     S
O1099  C1278   1.415   .     S
O1101  Zn1110  1.944   .     S
O1102  Zn1110  1.968   .     S
O1103  Zn1109  1.968   .     S
O1104  Zn1109  1.995   .     S
O1105  Zn1110  1.995   .     S
O1106  Zn1110  2.023   .     S
O1107  Zn1109  2.023   .     S
C1111  O1176   1.287   .     A
C1111  C1136   1.398   .     S
C1111  O1171   1.277   .     A
C1112  C1114   1.413   .     A
C1112  O1172   1.390   .     S
C1112  C1123   1.411   .     A
C1113  C1140   1.406   .     A
C1113  C1139   1.424   .     S
C1113  C1115   1.382   .     A
C1114  C1116   1.385   .     A
C1114  C1138   1.429   .     S
C1115  C1117   1.376   .     A
C1115  H1149   1.086   .     S
C1116  H1150   1.087   .     S
C1116  C1118   1.375   .     A
C1117  C1119   1.407   .     A
C1117  C1124   1.393   .     A
C1118  C1125   1.392   .     A
C1118  C1120   1.406   .     A
C1119  C1121   1.429   .     A
C1120  C1123   1.427   .     A
C1120  C453    1.397   1_556 S
C1121  C1135   1.421   .     A
C1121  C1140   1.408   .     A
C1122  O1177   1.288   .     A
C1122  C1137   1.398   .     S
C1122  O1175   1.276   .     A
C1123  C1133   1.422   .     A
C1124  H1141   1.082   .     S
C1125  H1152   1.084   .     S
C1125  C469    1.396   1_556 S
C1126  H1166   1.110   .     S
C1126  O1182   1.416   .     S
C1126  H1167   1.114   .     S
C1127  H1168   1.105   .     S
C1127  H1142   1.109   .     S
C1127  C682    1.522   1_565 S
C1127  H699    1.109   1_565 S
C1128  H1144   1.105   .     S
C1128  C1129   1.523   .     S
C1128  O1172   1.415   .     S
C1128  H1145   1.118   .     S
C1129  H1148   1.110   .     S
C1129  H1220   1.109   .     S
C1129  H1221   1.111   .     S
C1130  H1153   1.108   .     S
C1130  C1131   1.521   .     S
C1130  H485    1.110   1_556 S
C1131  H1154   1.111   .     S
C1131  H1156   1.110   .     S
C1131  H1155   1.110   .     S
C1132  H1157   1.106   .     S
C1132  C1134   1.521   .     S
C1132  O730    1.419   1_565 S
C1133  O1173   1.395   .     S
C1133  C458    1.401   1_556 S
C1134  H1161   1.111   .     S
C1134  H1160   1.107   .     S
C1134  H1159   1.110   .     S
C1135  O1174   1.391   .     S
C1136  C693    1.336   1_565 S
C1136  H718    1.088   1_565 S
C1138  O1178   1.289   .     A
C1138  O1180   1.291   .     A
C1139  O1179   1.288   .     A
C1139  O1181   1.287   .     A
C1140  O1182   1.387   .     S
H1146  C1277   1.109   1_455 S
H1147  C1277   1.111   1_455 S
H1158  C466    1.111   1_556 S
H1163  C693    1.088   1_565 S
H1164  N1317   1.029   1_455 S
H1165  N1244   1.024   .     S
N1169  Zn1184  2.020   .     S
N1169  H1238   1.029   .     S
N1169  N1244   1.267   .     S
N1170  Zn1183  2.020   .     S
N1170  H1313   1.024   1_455 S
N1170  N1317   1.267   1_455 S
O1171  Zn1183  1.944   .     S
O1173  C686    1.415   1_565 S
O1175  Zn1184  1.944   .     S
O1176  Zn1184  1.968   .     S
O1177  Zn1183  1.968   .     S
O1178  Zn1183  1.995   .     S
O1179  Zn1184  1.995   .     S
O1180  Zn1184  2.023   .     S
O1181  Zn1183  2.023   .     S
C1185  O1250   1.287   .     A
C1185  C1210   1.398   .     S
C1185  O1245   1.277   .     A
C1186  C1188   1.413   .     A
C1186  O1246   1.390   .     S
C1186  C1197   1.411   .     A
C1187  C1214   1.406   .     A
C1187  C1213   1.424   .     S
C1187  C1189   1.382   .     A
C1188  C1190   1.385   .     A
C1188  C1212   1.429   .     S
C1189  C1191   1.376   .     A
C1189  H1223   1.086   .     S
C1190  H1224   1.087   .     S
C1190  C1192   1.375   .     A
C1191  C1193   1.407   .     A
C1191  C1198   1.393   .     A
C1192  C1199   1.392   .     A
C1192  C1194   1.406   .     A
C1193  C1195   1.429   .     A
C1194  C1197   1.427   .     A
C1194  C527    1.397   1_556 S
C1195  C1209   1.421   .     A
C1195  C1214   1.408   .     A
C1196  O1251   1.288   .     A
C1196  C1211   1.398   .     S
C1196  O1249   1.276   .     A
C1197  C1207   1.422   .     A
C1198  H1215   1.082   .     S
C1199  H1226   1.084   .     S
C1199  C543    1.396   1_556 S
C1200  H1240   1.110   .     S
C1200  O1256   1.416   .     S
C1200  H1241   1.114   .     S
C1201  H1242   1.105   .     S
C1201  H1216   1.109   .     S
C1201  C756    1.522   1_565 S
C1201  H773    1.109   1_565 S
C1202  H1218   1.105   .     S
C1202  C1203   1.523   .     S
C1202  O1246   1.415   .     S
C1202  H1219   1.118   .     S
C1203  H1222   1.110   .     S
C1203  H1294   1.109   .     S
C1203  H1295   1.111   .     S
C1204  H1227   1.108   .     S
C1204  C1205   1.521   .     S
C1204  H559    1.110   1_556 S
C1205  H1228   1.111   .     S
C1205  H1230   1.110   .     S
C1205  H1229   1.110   .     S
C1206  H1231   1.106   .     S
C1206  C1208   1.521   .     S
C1206  O804    1.419   1_565 S
C1207  O1247   1.395   .     S
C1207  C532    1.401   1_556 S
C1208  H1235   1.111   .     S
C1208  H1234   1.107   .     S
C1208  H1233   1.110   .     S
C1209  O1248   1.391   .     S
C1210  C767    1.336   1_565 S
C1210  H792    1.088   1_565 S
C1212  O1252   1.289   .     A
C1212  O1254   1.291   .     A
C1213  O1253   1.288   .     A
C1213  O1255   1.287   .     A
C1214  O1256   1.387   .     S
H1232  C540    1.111   1_556 S
H1237  C767    1.088   1_565 S
H1239  N1318   1.024   .     S
N1243  Zn1258  2.020   .     S
N1243  H1312   1.029   .     S
N1243  N1318   1.267   .     S
N1244  Zn1257  2.020   .     S
O1245  Zn1257  1.944   .     S
O1247  C760    1.415   1_565 S
O1249  Zn1258  1.944   .     S
O1250  Zn1258  1.968   .     S
O1251  Zn1257  1.968   .     S
O1252  Zn1257  1.995   .     S
O1253  Zn1258  1.995   .     S
O1254  Zn1258  2.023   .     S
O1255  Zn1257  2.023   .     S
C1259  O1324   1.287   .     A
C1259  C1284   1.398   .     S
C1259  O1319   1.277   .     A
C1260  C1262   1.413   .     A
C1260  O1320   1.390   .     S
C1260  C1271   1.411   .     A
C1261  C1288   1.406   .     A
C1261  C1287   1.424   .     S
C1261  C1263   1.382   .     A
C1262  C1264   1.385   .     A
C1262  C1286   1.429   .     S
C1263  C1265   1.376   .     A
C1263  H1297   1.086   .     S
C1264  H1298   1.087   .     S
C1264  C1266   1.375   .     A
C1265  C1267   1.407   .     A
C1265  C1272   1.393   .     A
C1266  C1273   1.392   .     A
C1266  C1268   1.406   .     A
C1267  C1269   1.429   .     A
C1268  C1271   1.427   .     A
C1268  C601    1.397   1_556 S
C1269  C1283   1.421   .     A
C1269  C1288   1.408   .     A
C1270  O1325   1.288   .     A
C1270  C1285   1.398   .     S
C1270  O1323   1.276   .     A
C1271  C1281   1.422   .     A
C1272  H1289   1.082   .     S
C1273  H1300   1.084   .     S
C1273  C617    1.396   1_556 S
C1274  H1314   1.110   .     S
C1274  O1330   1.416   .     S
C1274  H1315   1.114   .     S
C1275  H1316   1.105   .     S
C1275  H1290   1.109   .     S
C1275  C830    1.522   1_565 S
C1275  H847    1.109   1_565 S
C1276  H1292   1.105   .     S
C1276  C1277   1.523   .     S
C1276  O1320   1.415   .     S
C1276  H1293   1.118   .     S
C1277  H1296   1.110   .     S
C1277  H1146   1.109   1_655 S
C1277  H1147   1.111   1_655 S
C1278  H1301   1.108   .     S
C1278  C1279   1.521   .     S
C1278  H633    1.110   1_556 S
C1279  H1302   1.111   .     S
C1279  H1304   1.110   .     S
C1279  H1303   1.110   .     S
C1280  H1305   1.106   .     S
C1280  C1282   1.521   .     S
C1280  O878    1.419   1_565 S
C1281  O1321   1.395   .     S
C1281  C606    1.401   1_556 S
C1282  H1309   1.111   .     S
C1282  H1308   1.107   .     S
C1282  H1307   1.110   .     S
C1283  O1322   1.391   .     S
C1284  C841    1.336   1_565 S
C1284  H866    1.088   1_565 S
C1286  O1326   1.289   .     A
C1286  O1328   1.291   .     A
C1287  O1327   1.288   .     A
C1287  O1329   1.287   .     A
C1288  O1330   1.387   .     S
H1306  C614    1.111   1_556 S
H1311  C841    1.088   1_565 S
H1313  N1170   1.024   1_655 S
N1317  Zn1332  2.020   .     S
N1317  H1164   1.029   1_655 S
N1317  N1170   1.267   1_655 S
N1318  Zn1331  2.020   .     S
O1319  Zn1331  1.944   .     S
O1321  C834    1.415   1_565 S
O1323  Zn1332  1.944   .     S
O1324  Zn1332  1.968   .     S
O1325  Zn1331  1.968   .     S
O1326  Zn1331  1.995   .     S
O1327  Zn1332  1.995   .     S
O1328  Zn1332  2.023   .     S
O1329  Zn1331  2.023   .     S
