data_str_m3_o1_o1_pcu_sym.57
_audit_creation_date              2020-01-03
_audit_creation_method            'Materials Studio'
_symmetry_space_group_name_H-M    'P1'
_symmetry_Int_Tables_number       1
_symmetry_cell_setting            triclinic
loop_
_symmetry_equiv_pos_as_xyz
  x,y,z
_cell_length_a                    31.8074
_cell_length_b                    28.7350
_cell_length_c                    30.2592
_cell_angle_alpha                 90.0007
_cell_angle_beta                  89.9990
_cell_angle_gamma                 89.9999
loop_
_atom_site_label
_atom_site_type_symbol
_atom_site_fract_x
_atom_site_fract_y
_atom_site_fract_z
_atom_site_U_iso_or_equiv
_atom_site_adp_type
_atom_site_occupancy
C1     C     0.06232   0.19310   0.16722   0.00000  Uiso   1.00
C2     C     0.49512   0.20918   0.31004   0.00000  Uiso   1.00
C3     C     0.00184   0.20897   0.02387   0.00000  Uiso   1.00
C4     C     0.00183   0.29103   0.30946   0.00000  Uiso   1.00
C5     C     0.25184   0.04103   0.02387   0.00000  Uiso   1.00
C6     C     0.25183   0.45897   0.30946   0.00000  Uiso   1.00
C7     C     0.24511   0.45918   0.02329   0.00000  Uiso   1.00
C8     C     0.24511   0.04082   0.31004   0.00000  Uiso   1.00
C9     C     0.39505   0.13433   0.12703   0.00000  Uiso   1.00
C10    C     0.12289   0.34335   0.20175   0.00000  Uiso   1.00
C11    C     0.10565   0.36467   0.12622   0.00000  Uiso   1.00
C12    C     0.43774   0.30703   0.16711   0.00000  Uiso   1.00
C13    C     0.37793   0.15558   0.20269   0.00000  Uiso   1.00
C14    C     0.10567   0.13536   0.20712   0.00000  Uiso   1.00
C15    C     0.37792   0.34441   0.13065   0.00000  Uiso   1.00
C16    C     0.39504   0.36566   0.20631   0.00000  Uiso   1.00
C17    C     0.12291   0.15667   0.13159   0.00000  Uiso   1.00
C18    C     0.12792   0.40560   0.13065   0.00000  Uiso   1.00
C19    C     0.35567   0.11465   0.20711   0.00000  Uiso   1.00
C20    C     0.37290   0.09334   0.13158   0.00000  Uiso   1.00
C21    C     0.14503   0.38435   0.20631   0.00000  Uiso   1.00
C22    C     0.37290   0.40665   0.20175   0.00000  Uiso   1.00
C23    C     0.43774   0.19297   0.16622   0.00000  Uiso   1.00
C24    C     0.14505   0.11567   0.12703   0.00000  Uiso   1.00
C25    C     0.12793   0.09443   0.20269   0.00000  Uiso   1.00
C26    C     0.35566   0.38534   0.12622   0.00000  Uiso   1.00
C27    C     0.09909   0.33648   0.16375   0.00000  Uiso   1.00
C28    C     0.40135   0.16280   0.16437   0.00000  Uiso   1.00
C29    C     0.40134   0.33719   0.16897   0.00000  Uiso   1.00
C30    C     0.09911   0.16355   0.16958   0.00000  Uiso   1.00
C31    C     0.34910   0.08646   0.16958   0.00000  Uiso   1.00
C32    C     0.15134   0.41282   0.16897   0.00000  Uiso   1.00
C33    C     0.15135   0.08720   0.16437   0.00000  Uiso   1.00
C34    C     0.06232   0.30691   0.16612   0.00000  Uiso   1.00
C35    C     0.34910   0.41353   0.16375   0.00000  Uiso   1.00
C36    C     0.46839   0.33029   0.04170   0.00000  Uiso   1.00
C37    C     0.49104   0.36869   0.06701   0.00000  Uiso   1.00
C38    C     0.46844   0.16969   0.29162   0.00000  Uiso   1.00
C39    C     0.49112   0.13131   0.26631   0.00000  Uiso   1.00
C40    C     0.00727   0.16275   0.04814   0.00000  Uiso   1.00
C41    C     0.05121   0.14290   0.04362   0.00000  Uiso   1.00
C42    C     0.00725   0.33725   0.28520   0.00000  Uiso   1.00
C43    C     0.05118   0.35712   0.28972   0.00000  Uiso   1.00
C44    C     0.25727   0.08725   0.04814   0.00000  Uiso   1.00
C45    C     0.31232   0.44310   0.16612   0.00000  Uiso   1.00
C46    C     0.30120   0.10711   0.04362   0.00000  Uiso   1.00
C47    C     0.25725   0.41275   0.28520   0.00000  Uiso   1.00
C48    C     0.30119   0.39288   0.28972   0.00000  Uiso   1.00
C49    C     0.21840   0.41971   0.04171   0.00000  Uiso   1.00
C50    C     0.24107   0.38131   0.06702   0.00000  Uiso   1.00
C51    C     0.21842   0.08030   0.29162   0.00000  Uiso   1.00
C52    C     0.24109   0.11869   0.26632   0.00000  Uiso   1.00
C53    C     0.18774   0.05703   0.16622   0.00000  Uiso   1.00
C54    C     0.18774   0.44297   0.16712   0.00000  Uiso   1.00
C55    C     0.31232   0.05690   0.16722   0.00000  Uiso   1.00
C56    C     0.49511   0.29082   0.02329   0.00000  Uiso   1.00
H57    H     0.00629   0.35560   0.09708   0.00000  Uiso   1.00
H58    H     0.44228   0.18438   0.27342   0.00000  Uiso   1.00
H59    H     0.07432   0.17080   0.03750   0.00000  Uiso   1.00
H60    H     0.05947   0.12394   0.07435   0.00000  Uiso   1.00
H61    H     0.05273   0.11749   0.01621   0.00000  Uiso   1.00
H62    H     0.00013   0.16649   0.08310   0.00000  Uiso   1.00
H63    H     0.48533   0.13510   0.03803   0.00000  Uiso   1.00
H64    H     0.07431   0.32922   0.29585   0.00000  Uiso   1.00
H65    H     0.05944   0.37609   0.25900   0.00000  Uiso   1.00
H66    H     0.05269   0.38252   0.31714   0.00000  Uiso   1.00
H67    H     0.00012   0.33351   0.25024   0.00000  Uiso   1.00
H68    H     0.01443   0.38626   0.04581   0.00000  Uiso   1.00
H69    H     0.48530   0.36489   0.29530   0.00000  Uiso   1.00
H70    H     0.30947   0.12606   0.07435   0.00000  Uiso   1.00
H71    H     0.32432   0.07921   0.03748   0.00000  Uiso   1.00
H72    H     0.30271   0.13252   0.01620   0.00000  Uiso   1.00
H73    H     0.23532   0.11489   0.03803   0.00000  Uiso   1.00
H74    H     0.25013   0.08351   0.08310   0.00000  Uiso   1.00
H75    H     0.30945   0.37392   0.25899   0.00000  Uiso   1.00
H76    H     0.32431   0.42078   0.29586   0.00000  Uiso   1.00
H77    H     0.30269   0.36747   0.31713   0.00000  Uiso   1.00
H78    H     0.23530   0.38511   0.29530   0.00000  Uiso   1.00
H79    H     0.46769   0.39522   0.07752   0.00000  Uiso   1.00
H80    H     0.25012   0.41649   0.25023   0.00000  Uiso   1.00
H81    H     0.26451   0.36381   0.04585   0.00000  Uiso   1.00
H82    H     0.25624   0.39439   0.09713   0.00000  Uiso   1.00
H83    H     0.21773   0.35473   0.07745   0.00000  Uiso   1.00
H84    H     0.19226   0.43442   0.05991   0.00000  Uiso   1.00
H85    H     0.19974   0.40243   0.01604   0.00000  Uiso   1.00
H86    H     0.26455   0.13617   0.28748   0.00000  Uiso   1.00
H87    H     0.25625   0.10562   0.23620   0.00000  Uiso   1.00
H88    H     0.21776   0.14529   0.25590   0.00000  Uiso   1.00
H89    H     0.19227   0.06559   0.27343   0.00000  Uiso   1.00
H90    H     0.44972   0.34755   0.01603   0.00000  Uiso   1.00
H91    H     0.19975   0.09758   0.31729   0.00000  Uiso   1.00
H92    H     0.44225   0.31556   0.05990   0.00000  Uiso   1.00
H93    H     0.00620   0.14437   0.23613   0.00000  Uiso   1.00
H94    H     0.01466   0.11390   0.28745   0.00000  Uiso   1.00
H95    H     0.46782   0.10464   0.25598   0.00000  Uiso   1.00
H96    H     0.44977   0.15240   0.31729   0.00000  Uiso   1.00
I97    I     0.39904   0.16063   0.06151   0.00000  Uiso   1.00
I98    I     0.35030   0.08899   0.27288   0.00000  Uiso   1.00
I99    I     0.38786   0.03630   0.08936   0.00000  Uiso   1.00
I100   I     0.14901   0.41066   0.27183   0.00000  Uiso   1.00
I101   I     0.38786   0.46368   0.24398   0.00000  Uiso   1.00
I102   I     0.14903   0.08938   0.06151   0.00000  Uiso   1.00
I103   I     0.11213   0.03777   0.24518   0.00000  Uiso   1.00
I104   I     0.35029   0.41098   0.06045   0.00000  Uiso   1.00
I105   I     0.13786   0.28633   0.24398   0.00000  Uiso   1.00
I106   I     0.10027   0.33903   0.06045   0.00000  Uiso   1.00
I107   I     0.36214   0.21224   0.24518   0.00000  Uiso   1.00
I108   I     0.10033   0.16103   0.27288   0.00000  Uiso   1.00
I109   I     0.36211   0.28773   0.08817   0.00000  Uiso   1.00
I110   I     0.39901   0.33935   0.27182   0.00000  Uiso   1.00
I111   I     0.13787   0.21371   0.08937   0.00000  Uiso   1.00
I112   I     0.11212   0.46227   0.08817   0.00000  Uiso   1.00
N113   N     0.00000   0.25000   0.28573   0.00000  Uiso   1.00
N114   N     0.00000   0.25000   0.04760   0.00000  Uiso   1.00
N115   N     0.25000   0.00000   0.28573   0.00000  Uiso   1.00
N116   N     0.25000   0.00000   0.04760   0.00000  Uiso   1.00
O117   O     0.04580   0.20419   0.20487   0.00000  Uiso   1.00
O118   O     0.20419   0.04581   0.12846   0.00000  Uiso   1.00
O119   O     0.20419   0.04581   0.20487   0.00000  Uiso   1.00
O120   O     0.29580   0.45419   0.12846   0.00000  Uiso   1.00
O121   O     0.20419   0.45419   0.12846   0.00000  Uiso   1.00
O122   O     0.29580   0.04581   0.20487   0.00000  Uiso   1.00
O123   O     0.29580   0.04581   0.12846   0.00000  Uiso   1.00
O124   O     0.20419   0.45419   0.20487   0.00000  Uiso   1.00
O125   O     0.45419   0.29581   0.12846   0.00000  Uiso   1.00
O126   O     0.45419   0.29581   0.20487   0.00000  Uiso   1.00
O127   O     0.04580   0.20419   0.12846   0.00000  Uiso   1.00
O128   O     0.45419   0.20419   0.12846   0.00000  Uiso   1.00
O129   O     0.04580   0.29581   0.20487   0.00000  Uiso   1.00
O130   O     0.04580   0.29581   0.12846   0.00000  Uiso   1.00
O131   O     0.45419   0.20419   0.20487   0.00000  Uiso   1.00
O132   O     0.29580   0.45419   0.20487   0.00000  Uiso   1.00
Zn133  Zn    0.00000   0.25000   0.21771   0.00000  Uiso   1.00
Zn134  Zn    0.00000   0.25000   0.11563   0.00000  Uiso   1.00
Zn135  Zn    0.25000   0.00000   0.21771   0.00000  Uiso   1.00
Zn136  Zn    0.25000   0.00000   0.11563   0.00000  Uiso   1.00
C137   C     0.56232   0.19310   0.16722   0.00000  Uiso   1.00
C138   C     0.99512   0.20918   0.31004   0.00000  Uiso   1.00
C139   C     0.50184   0.20897   0.02387   0.00000  Uiso   1.00
C140   C     0.50183   0.29103   0.30946   0.00000  Uiso   1.00
C141   C     0.75184   0.04103   0.02387   0.00000  Uiso   1.00
C142   C     0.75183   0.45897   0.30946   0.00000  Uiso   1.00
C143   C     0.74511   0.45918   0.02329   0.00000  Uiso   1.00
C144   C     0.74511   0.04082   0.31004   0.00000  Uiso   1.00
C145   C     0.89505   0.13433   0.12703   0.00000  Uiso   1.00
C146   C     0.62289   0.34335   0.20175   0.00000  Uiso   1.00
C147   C     0.60565   0.36467   0.12622   0.00000  Uiso   1.00
C148   C     0.93774   0.30703   0.16711   0.00000  Uiso   1.00
C149   C     0.87793   0.15558   0.20269   0.00000  Uiso   1.00
C150   C     0.60567   0.13536   0.20712   0.00000  Uiso   1.00
C151   C     0.87792   0.34441   0.13065   0.00000  Uiso   1.00
C152   C     0.89504   0.36566   0.20631   0.00000  Uiso   1.00
C153   C     0.62291   0.15667   0.13159   0.00000  Uiso   1.00
C154   C     0.62792   0.40560   0.13065   0.00000  Uiso   1.00
C155   C     0.85567   0.11465   0.20711   0.00000  Uiso   1.00
C156   C     0.87290   0.09334   0.13158   0.00000  Uiso   1.00
C157   C     0.64503   0.38435   0.20631   0.00000  Uiso   1.00
C158   C     0.87290   0.40665   0.20175   0.00000  Uiso   1.00
C159   C     0.93774   0.19297   0.16622   0.00000  Uiso   1.00
C160   C     0.64505   0.11567   0.12703   0.00000  Uiso   1.00
C161   C     0.62793   0.09443   0.20269   0.00000  Uiso   1.00
C162   C     0.85566   0.38534   0.12622   0.00000  Uiso   1.00
C163   C     0.59909   0.33648   0.16375   0.00000  Uiso   1.00
C164   C     0.90135   0.16280   0.16437   0.00000  Uiso   1.00
C165   C     0.90134   0.33719   0.16897   0.00000  Uiso   1.00
C166   C     0.59911   0.16355   0.16958   0.00000  Uiso   1.00
C167   C     0.84910   0.08646   0.16958   0.00000  Uiso   1.00
C168   C     0.65134   0.41282   0.16897   0.00000  Uiso   1.00
C169   C     0.65135   0.08720   0.16437   0.00000  Uiso   1.00
C170   C     0.56232   0.30691   0.16612   0.00000  Uiso   1.00
C171   C     0.84910   0.41353   0.16375   0.00000  Uiso   1.00
C172   C     0.96839   0.33029   0.04170   0.00000  Uiso   1.00
C173   C     0.99104   0.36869   0.06701   0.00000  Uiso   1.00
C174   C     0.96844   0.16969   0.29162   0.00000  Uiso   1.00
C175   C     0.99112   0.13131   0.26631   0.00000  Uiso   1.00
C176   C     0.50727   0.16275   0.04814   0.00000  Uiso   1.00
C177   C     0.55121   0.14290   0.04362   0.00000  Uiso   1.00
C178   C     0.50725   0.33725   0.28520   0.00000  Uiso   1.00
C179   C     0.55118   0.35712   0.28972   0.00000  Uiso   1.00
C180   C     0.75727   0.08725   0.04814   0.00000  Uiso   1.00
C181   C     0.81232   0.44310   0.16612   0.00000  Uiso   1.00
C182   C     0.80120   0.10711   0.04362   0.00000  Uiso   1.00
C183   C     0.75725   0.41275   0.28520   0.00000  Uiso   1.00
C184   C     0.80119   0.39288   0.28972   0.00000  Uiso   1.00
C185   C     0.71840   0.41971   0.04171   0.00000  Uiso   1.00
C186   C     0.74107   0.38131   0.06702   0.00000  Uiso   1.00
C187   C     0.71842   0.08030   0.29162   0.00000  Uiso   1.00
C188   C     0.74109   0.11869   0.26632   0.00000  Uiso   1.00
C189   C     0.68774   0.05703   0.16622   0.00000  Uiso   1.00
C190   C     0.68774   0.44297   0.16712   0.00000  Uiso   1.00
C191   C     0.81232   0.05690   0.16722   0.00000  Uiso   1.00
C192   C     0.99511   0.29082   0.02329   0.00000  Uiso   1.00
H193   H     0.50629   0.35560   0.09708   0.00000  Uiso   1.00
H194   H     0.94228   0.18438   0.27342   0.00000  Uiso   1.00
H195   H     0.57432   0.17080   0.03750   0.00000  Uiso   1.00
H196   H     0.55947   0.12394   0.07435   0.00000  Uiso   1.00
H197   H     0.55273   0.11749   0.01621   0.00000  Uiso   1.00
H198   H     0.50013   0.16649   0.08310   0.00000  Uiso   1.00
H199   H     0.98533   0.13510   0.03803   0.00000  Uiso   1.00
H200   H     0.57431   0.32922   0.29585   0.00000  Uiso   1.00
H201   H     0.55944   0.37609   0.25900   0.00000  Uiso   1.00
H202   H     0.55269   0.38252   0.31714   0.00000  Uiso   1.00
H203   H     0.50012   0.33351   0.25024   0.00000  Uiso   1.00
H204   H     0.51443   0.38626   0.04581   0.00000  Uiso   1.00
H205   H     0.98530   0.36489   0.29530   0.00000  Uiso   1.00
H206   H     0.80947   0.12606   0.07435   0.00000  Uiso   1.00
H207   H     0.82432   0.07921   0.03748   0.00000  Uiso   1.00
H208   H     0.80271   0.13252   0.01620   0.00000  Uiso   1.00
H209   H     0.73532   0.11489   0.03803   0.00000  Uiso   1.00
H210   H     0.75013   0.08351   0.08310   0.00000  Uiso   1.00
H211   H     0.80945   0.37392   0.25899   0.00000  Uiso   1.00
H212   H     0.82431   0.42078   0.29586   0.00000  Uiso   1.00
H213   H     0.80269   0.36747   0.31713   0.00000  Uiso   1.00
H214   H     0.73530   0.38511   0.29530   0.00000  Uiso   1.00
H215   H     0.96769   0.39522   0.07752   0.00000  Uiso   1.00
H216   H     0.75012   0.41649   0.25023   0.00000  Uiso   1.00
H217   H     0.76451   0.36381   0.04585   0.00000  Uiso   1.00
H218   H     0.75624   0.39439   0.09713   0.00000  Uiso   1.00
H219   H     0.71773   0.35473   0.07745   0.00000  Uiso   1.00
H220   H     0.69226   0.43442   0.05991   0.00000  Uiso   1.00
H221   H     0.69974   0.40243   0.01604   0.00000  Uiso   1.00
H222   H     0.76455   0.13617   0.28748   0.00000  Uiso   1.00
H223   H     0.75625   0.10562   0.23620   0.00000  Uiso   1.00
H224   H     0.71776   0.14529   0.25590   0.00000  Uiso   1.00
H225   H     0.69227   0.06559   0.27343   0.00000  Uiso   1.00
H226   H     0.94972   0.34755   0.01603   0.00000  Uiso   1.00
H227   H     0.69975   0.09758   0.31729   0.00000  Uiso   1.00
H228   H     0.94225   0.31556   0.05990   0.00000  Uiso   1.00
H229   H     0.50620   0.14437   0.23613   0.00000  Uiso   1.00
H230   H     0.51466   0.11390   0.28745   0.00000  Uiso   1.00
H231   H     0.96782   0.10464   0.25598   0.00000  Uiso   1.00
H232   H     0.94977   0.15240   0.31729   0.00000  Uiso   1.00
I233   I     0.89904   0.16063   0.06151   0.00000  Uiso   1.00
I234   I     0.85030   0.08899   0.27288   0.00000  Uiso   1.00
I235   I     0.88786   0.03630   0.08936   0.00000  Uiso   1.00
I236   I     0.64901   0.41066   0.27183   0.00000  Uiso   1.00
I237   I     0.88786   0.46368   0.24398   0.00000  Uiso   1.00
I238   I     0.64903   0.08938   0.06151   0.00000  Uiso   1.00
I239   I     0.61213   0.03777   0.24518   0.00000  Uiso   1.00
I240   I     0.85029   0.41098   0.06045   0.00000  Uiso   1.00
I241   I     0.63786   0.28633   0.24398   0.00000  Uiso   1.00
I242   I     0.60027   0.33903   0.06045   0.00000  Uiso   1.00
I243   I     0.86214   0.21224   0.24518   0.00000  Uiso   1.00
I244   I     0.60033   0.16103   0.27288   0.00000  Uiso   1.00
I245   I     0.86211   0.28773   0.08817   0.00000  Uiso   1.00
I246   I     0.89901   0.33935   0.27182   0.00000  Uiso   1.00
I247   I     0.63787   0.21371   0.08937   0.00000  Uiso   1.00
I248   I     0.61212   0.46227   0.08817   0.00000  Uiso   1.00
N249   N     0.50000   0.25000   0.28573   0.00000  Uiso   1.00
N250   N     0.50000   0.25000   0.04760   0.00000  Uiso   1.00
N251   N     0.75000   0.00000   0.28573   0.00000  Uiso   1.00
N252   N     0.75000   0.00000   0.04760   0.00000  Uiso   1.00
O253   O     0.54580   0.20419   0.20487   0.00000  Uiso   1.00
O254   O     0.70419   0.04581   0.12846   0.00000  Uiso   1.00
O255   O     0.70419   0.04581   0.20487   0.00000  Uiso   1.00
O256   O     0.79580   0.45419   0.12846   0.00000  Uiso   1.00
O257   O     0.70419   0.45419   0.12846   0.00000  Uiso   1.00
O258   O     0.79580   0.04581   0.20487   0.00000  Uiso   1.00
O259   O     0.79580   0.04581   0.12846   0.00000  Uiso   1.00
O260   O     0.70419   0.45419   0.20487   0.00000  Uiso   1.00
O261   O     0.95419   0.29581   0.12846   0.00000  Uiso   1.00
O262   O     0.95419   0.29581   0.20487   0.00000  Uiso   1.00
O263   O     0.54580   0.20419   0.12846   0.00000  Uiso   1.00
O264   O     0.95419   0.20419   0.12846   0.00000  Uiso   1.00
O265   O     0.54580   0.29581   0.20487   0.00000  Uiso   1.00
O266   O     0.54580   0.29581   0.12846   0.00000  Uiso   1.00
O267   O     0.95419   0.20419   0.20487   0.00000  Uiso   1.00
O268   O     0.79580   0.45419   0.20487   0.00000  Uiso   1.00
Zn269  Zn    0.50000   0.25000   0.21771   0.00000  Uiso   1.00
Zn270  Zn    0.50000   0.25000   0.11563   0.00000  Uiso   1.00
Zn271  Zn    0.75000   0.00000   0.21771   0.00000  Uiso   1.00
Zn272  Zn    0.75000   0.00000   0.11563   0.00000  Uiso   1.00
C273   C     0.06232   0.69310   0.16722   0.00000  Uiso   1.00
C274   C     0.49512   0.70918   0.31004   0.00000  Uiso   1.00
C275   C     0.00184   0.70897   0.02387   0.00000  Uiso   1.00
C276   C     0.00183   0.79103   0.30946   0.00000  Uiso   1.00
C277   C     0.25184   0.54103   0.02387   0.00000  Uiso   1.00
C278   C     0.25183   0.95897   0.30946   0.00000  Uiso   1.00
C279   C     0.24511   0.95918   0.02329   0.00000  Uiso   1.00
C280   C     0.24511   0.54082   0.31004   0.00000  Uiso   1.00
C281   C     0.39505   0.63433   0.12703   0.00000  Uiso   1.00
C282   C     0.12289   0.84335   0.20175   0.00000  Uiso   1.00
C283   C     0.10565   0.86467   0.12622   0.00000  Uiso   1.00
C284   C     0.43774   0.80703   0.16711   0.00000  Uiso   1.00
C285   C     0.37793   0.65558   0.20269   0.00000  Uiso   1.00
C286   C     0.10567   0.63536   0.20712   0.00000  Uiso   1.00
C287   C     0.37792   0.84441   0.13065   0.00000  Uiso   1.00
C288   C     0.39504   0.86566   0.20631   0.00000  Uiso   1.00
C289   C     0.12291   0.65667   0.13159   0.00000  Uiso   1.00
C290   C     0.12792   0.90560   0.13065   0.00000  Uiso   1.00
C291   C     0.35567   0.61465   0.20711   0.00000  Uiso   1.00
C292   C     0.37290   0.59334   0.13158   0.00000  Uiso   1.00
C293   C     0.14503   0.88435   0.20631   0.00000  Uiso   1.00
C294   C     0.37290   0.90665   0.20175   0.00000  Uiso   1.00
C295   C     0.43774   0.69297   0.16622   0.00000  Uiso   1.00
C296   C     0.14505   0.61567   0.12703   0.00000  Uiso   1.00
C297   C     0.12793   0.59443   0.20269   0.00000  Uiso   1.00
C298   C     0.35566   0.88534   0.12622   0.00000  Uiso   1.00
C299   C     0.09909   0.83648   0.16375   0.00000  Uiso   1.00
C300   C     0.40135   0.66280   0.16437   0.00000  Uiso   1.00
C301   C     0.40134   0.83719   0.16897   0.00000  Uiso   1.00
C302   C     0.09911   0.66355   0.16958   0.00000  Uiso   1.00
C303   C     0.34910   0.58646   0.16958   0.00000  Uiso   1.00
C304   C     0.15134   0.91282   0.16897   0.00000  Uiso   1.00
C305   C     0.15135   0.58720   0.16437   0.00000  Uiso   1.00
C306   C     0.06232   0.80691   0.16612   0.00000  Uiso   1.00
C307   C     0.34910   0.91353   0.16375   0.00000  Uiso   1.00
C308   C     0.46839   0.83029   0.04170   0.00000  Uiso   1.00
C309   C     0.49104   0.86869   0.06701   0.00000  Uiso   1.00
C310   C     0.46844   0.66969   0.29162   0.00000  Uiso   1.00
C311   C     0.49112   0.63131   0.26631   0.00000  Uiso   1.00
C312   C     0.00727   0.66275   0.04814   0.00000  Uiso   1.00
C313   C     0.05121   0.64290   0.04362   0.00000  Uiso   1.00
C314   C     0.00725   0.83725   0.28520   0.00000  Uiso   1.00
C315   C     0.05118   0.85712   0.28972   0.00000  Uiso   1.00
C316   C     0.25727   0.58725   0.04814   0.00000  Uiso   1.00
C317   C     0.31232   0.94310   0.16612   0.00000  Uiso   1.00
C318   C     0.30120   0.60711   0.04362   0.00000  Uiso   1.00
C319   C     0.25725   0.91275   0.28520   0.00000  Uiso   1.00
C320   C     0.30119   0.89288   0.28972   0.00000  Uiso   1.00
C321   C     0.21840   0.91971   0.04171   0.00000  Uiso   1.00
C322   C     0.24107   0.88131   0.06702   0.00000  Uiso   1.00
C323   C     0.21842   0.58030   0.29162   0.00000  Uiso   1.00
C324   C     0.24109   0.61869   0.26632   0.00000  Uiso   1.00
C325   C     0.18774   0.55703   0.16622   0.00000  Uiso   1.00
C326   C     0.18774   0.94297   0.16712   0.00000  Uiso   1.00
C327   C     0.31232   0.55690   0.16722   0.00000  Uiso   1.00
C328   C     0.49511   0.79082   0.02329   0.00000  Uiso   1.00
H329   H     0.00629   0.85560   0.09708   0.00000  Uiso   1.00
H330   H     0.44228   0.68438   0.27342   0.00000  Uiso   1.00
H331   H     0.07432   0.67080   0.03750   0.00000  Uiso   1.00
H332   H     0.05947   0.62394   0.07435   0.00000  Uiso   1.00
H333   H     0.05273   0.61749   0.01621   0.00000  Uiso   1.00
H334   H     0.00013   0.66649   0.08310   0.00000  Uiso   1.00
H335   H     0.48533   0.63510   0.03803   0.00000  Uiso   1.00
H336   H     0.07431   0.82922   0.29585   0.00000  Uiso   1.00
H337   H     0.05944   0.87609   0.25900   0.00000  Uiso   1.00
H338   H     0.05269   0.88252   0.31714   0.00000  Uiso   1.00
H339   H     0.00012   0.83351   0.25024   0.00000  Uiso   1.00
H340   H     0.01443   0.88626   0.04581   0.00000  Uiso   1.00
H341   H     0.48530   0.86489   0.29530   0.00000  Uiso   1.00
H342   H     0.30947   0.62606   0.07435   0.00000  Uiso   1.00
H343   H     0.32432   0.57921   0.03748   0.00000  Uiso   1.00
H344   H     0.30271   0.63252   0.01620   0.00000  Uiso   1.00
H345   H     0.23532   0.61489   0.03803   0.00000  Uiso   1.00
H346   H     0.25013   0.58351   0.08310   0.00000  Uiso   1.00
H347   H     0.30945   0.87392   0.25899   0.00000  Uiso   1.00
H348   H     0.32431   0.92078   0.29586   0.00000  Uiso   1.00
H349   H     0.30269   0.86747   0.31713   0.00000  Uiso   1.00
H350   H     0.23530   0.88511   0.29530   0.00000  Uiso   1.00
H351   H     0.46769   0.89522   0.07752   0.00000  Uiso   1.00
H352   H     0.25012   0.91649   0.25023   0.00000  Uiso   1.00
H353   H     0.26451   0.86381   0.04585   0.00000  Uiso   1.00
H354   H     0.25624   0.89439   0.09713   0.00000  Uiso   1.00
H355   H     0.21773   0.85473   0.07745   0.00000  Uiso   1.00
H356   H     0.19226   0.93442   0.05991   0.00000  Uiso   1.00
H357   H     0.19974   0.90243   0.01604   0.00000  Uiso   1.00
H358   H     0.26455   0.63617   0.28748   0.00000  Uiso   1.00
H359   H     0.25625   0.60562   0.23620   0.00000  Uiso   1.00
H360   H     0.21776   0.64529   0.25590   0.00000  Uiso   1.00
H361   H     0.19227   0.56559   0.27343   0.00000  Uiso   1.00
H362   H     0.44972   0.84755   0.01603   0.00000  Uiso   1.00
H363   H     0.19975   0.59758   0.31729   0.00000  Uiso   1.00
H364   H     0.44225   0.81556   0.05990   0.00000  Uiso   1.00
H365   H     0.00620   0.64437   0.23613   0.00000  Uiso   1.00
H366   H     0.01466   0.61390   0.28745   0.00000  Uiso   1.00
H367   H     0.46782   0.60464   0.25598   0.00000  Uiso   1.00
H368   H     0.44977   0.65240   0.31729   0.00000  Uiso   1.00
I369   I     0.39904   0.66063   0.06151   0.00000  Uiso   1.00
I370   I     0.35030   0.58899   0.27288   0.00000  Uiso   1.00
I371   I     0.38786   0.53630   0.08936   0.00000  Uiso   1.00
I372   I     0.14901   0.91066   0.27183   0.00000  Uiso   1.00
I373   I     0.38786   0.96368   0.24398   0.00000  Uiso   1.00
I374   I     0.14903   0.58938   0.06151   0.00000  Uiso   1.00
I375   I     0.11213   0.53777   0.24518   0.00000  Uiso   1.00
I376   I     0.35029   0.91098   0.06045   0.00000  Uiso   1.00
I377   I     0.13786   0.78633   0.24398   0.00000  Uiso   1.00
I378   I     0.10027   0.83903   0.06045   0.00000  Uiso   1.00
I379   I     0.36214   0.71224   0.24518   0.00000  Uiso   1.00
I380   I     0.10033   0.66103   0.27288   0.00000  Uiso   1.00
I381   I     0.36211   0.78773   0.08817   0.00000  Uiso   1.00
I382   I     0.39901   0.83935   0.27182   0.00000  Uiso   1.00
I383   I     0.13787   0.71371   0.08937   0.00000  Uiso   1.00
I384   I     0.11212   0.96227   0.08817   0.00000  Uiso   1.00
N385   N     0.00000   0.75000   0.28573   0.00000  Uiso   1.00
N386   N     0.00000   0.75000   0.04760   0.00000  Uiso   1.00
N387   N     0.25000   0.50000   0.28573   0.00000  Uiso   1.00
N388   N     0.25000   0.50000   0.04760   0.00000  Uiso   1.00
O389   O     0.04580   0.70419   0.20487   0.00000  Uiso   1.00
O390   O     0.20419   0.54581   0.12846   0.00000  Uiso   1.00
O391   O     0.20419   0.54581   0.20487   0.00000  Uiso   1.00
O392   O     0.29580   0.95419   0.12846   0.00000  Uiso   1.00
O393   O     0.20419   0.95419   0.12846   0.00000  Uiso   1.00
O394   O     0.29580   0.54581   0.20487   0.00000  Uiso   1.00
O395   O     0.29580   0.54581   0.12846   0.00000  Uiso   1.00
O396   O     0.20419   0.95419   0.20487   0.00000  Uiso   1.00
O397   O     0.45419   0.79581   0.12846   0.00000  Uiso   1.00
O398   O     0.45419   0.79581   0.20487   0.00000  Uiso   1.00
O399   O     0.04580   0.70419   0.12846   0.00000  Uiso   1.00
O400   O     0.45419   0.70419   0.12846   0.00000  Uiso   1.00
O401   O     0.04580   0.79581   0.20487   0.00000  Uiso   1.00
O402   O     0.04580   0.79581   0.12846   0.00000  Uiso   1.00
O403   O     0.45419   0.70419   0.20487   0.00000  Uiso   1.00
O404   O     0.29580   0.95419   0.20487   0.00000  Uiso   1.00
Zn405  Zn    0.00000   0.75000   0.21771   0.00000  Uiso   1.00
Zn406  Zn    0.00000   0.75000   0.11563   0.00000  Uiso   1.00
Zn407  Zn    0.25000   0.50000   0.21771   0.00000  Uiso   1.00
Zn408  Zn    0.25000   0.50000   0.11563   0.00000  Uiso   1.00
C409   C     0.56232   0.69310   0.16722   0.00000  Uiso   1.00
C410   C     0.99512   0.70918   0.31004   0.00000  Uiso   1.00
C411   C     0.50184   0.70897   0.02387   0.00000  Uiso   1.00
C412   C     0.50183   0.79103   0.30946   0.00000  Uiso   1.00
C413   C     0.75184   0.54103   0.02387   0.00000  Uiso   1.00
C414   C     0.75183   0.95897   0.30946   0.00000  Uiso   1.00
C415   C     0.74511   0.95918   0.02329   0.00000  Uiso   1.00
C416   C     0.74511   0.54082   0.31004   0.00000  Uiso   1.00
C417   C     0.89505   0.63433   0.12703   0.00000  Uiso   1.00
C418   C     0.62289   0.84335   0.20175   0.00000  Uiso   1.00
C419   C     0.60565   0.86467   0.12622   0.00000  Uiso   1.00
C420   C     0.93774   0.80703   0.16711   0.00000  Uiso   1.00
C421   C     0.87793   0.65558   0.20269   0.00000  Uiso   1.00
C422   C     0.60567   0.63536   0.20712   0.00000  Uiso   1.00
C423   C     0.87792   0.84441   0.13065   0.00000  Uiso   1.00
C424   C     0.89504   0.86566   0.20631   0.00000  Uiso   1.00
C425   C     0.62291   0.65667   0.13159   0.00000  Uiso   1.00
C426   C     0.62792   0.90560   0.13065   0.00000  Uiso   1.00
C427   C     0.85567   0.61465   0.20711   0.00000  Uiso   1.00
C428   C     0.87290   0.59334   0.13158   0.00000  Uiso   1.00
C429   C     0.64503   0.88435   0.20631   0.00000  Uiso   1.00
C430   C     0.87290   0.90665   0.20175   0.00000  Uiso   1.00
C431   C     0.93774   0.69297   0.16622   0.00000  Uiso   1.00
C432   C     0.64505   0.61567   0.12703   0.00000  Uiso   1.00
C433   C     0.62793   0.59443   0.20269   0.00000  Uiso   1.00
C434   C     0.85566   0.88534   0.12622   0.00000  Uiso   1.00
C435   C     0.59909   0.83648   0.16375   0.00000  Uiso   1.00
C436   C     0.90135   0.66280   0.16437   0.00000  Uiso   1.00
C437   C     0.90134   0.83719   0.16897   0.00000  Uiso   1.00
C438   C     0.59911   0.66355   0.16958   0.00000  Uiso   1.00
C439   C     0.84910   0.58646   0.16958   0.00000  Uiso   1.00
C440   C     0.65134   0.91282   0.16897   0.00000  Uiso   1.00
C441   C     0.65135   0.58720   0.16437   0.00000  Uiso   1.00
C442   C     0.56232   0.80691   0.16612   0.00000  Uiso   1.00
C443   C     0.84910   0.91353   0.16375   0.00000  Uiso   1.00
C444   C     0.96839   0.83029   0.04170   0.00000  Uiso   1.00
C445   C     0.99104   0.86869   0.06701   0.00000  Uiso   1.00
C446   C     0.96844   0.66969   0.29162   0.00000  Uiso   1.00
C447   C     0.99112   0.63131   0.26631   0.00000  Uiso   1.00
C448   C     0.50727   0.66275   0.04814   0.00000  Uiso   1.00
C449   C     0.55121   0.64290   0.04362   0.00000  Uiso   1.00
C450   C     0.50725   0.83725   0.28520   0.00000  Uiso   1.00
C451   C     0.55118   0.85712   0.28972   0.00000  Uiso   1.00
C452   C     0.75727   0.58725   0.04814   0.00000  Uiso   1.00
C453   C     0.81232   0.94310   0.16612   0.00000  Uiso   1.00
C454   C     0.80120   0.60711   0.04362   0.00000  Uiso   1.00
C455   C     0.75725   0.91275   0.28520   0.00000  Uiso   1.00
C456   C     0.80119   0.89288   0.28972   0.00000  Uiso   1.00
C457   C     0.71840   0.91971   0.04171   0.00000  Uiso   1.00
C458   C     0.74107   0.88131   0.06702   0.00000  Uiso   1.00
C459   C     0.71842   0.58030   0.29162   0.00000  Uiso   1.00
C460   C     0.74109   0.61869   0.26632   0.00000  Uiso   1.00
C461   C     0.68774   0.55703   0.16622   0.00000  Uiso   1.00
C462   C     0.68774   0.94297   0.16712   0.00000  Uiso   1.00
C463   C     0.81232   0.55690   0.16722   0.00000  Uiso   1.00
C464   C     0.99511   0.79082   0.02329   0.00000  Uiso   1.00
H465   H     0.50629   0.85560   0.09708   0.00000  Uiso   1.00
H466   H     0.94228   0.68438   0.27342   0.00000  Uiso   1.00
H467   H     0.57432   0.67080   0.03750   0.00000  Uiso   1.00
H468   H     0.55947   0.62394   0.07435   0.00000  Uiso   1.00
H469   H     0.55273   0.61749   0.01621   0.00000  Uiso   1.00
H470   H     0.50013   0.66649   0.08310   0.00000  Uiso   1.00
H471   H     0.98533   0.63510   0.03803   0.00000  Uiso   1.00
H472   H     0.57431   0.82922   0.29585   0.00000  Uiso   1.00
H473   H     0.55944   0.87609   0.25900   0.00000  Uiso   1.00
H474   H     0.55269   0.88252   0.31714   0.00000  Uiso   1.00
H475   H     0.50012   0.83351   0.25024   0.00000  Uiso   1.00
H476   H     0.51443   0.88626   0.04581   0.00000  Uiso   1.00
H477   H     0.98530   0.86489   0.29530   0.00000  Uiso   1.00
H478   H     0.80947   0.62606   0.07435   0.00000  Uiso   1.00
H479   H     0.82432   0.57921   0.03748   0.00000  Uiso   1.00
H480   H     0.80271   0.63252   0.01620   0.00000  Uiso   1.00
H481   H     0.73532   0.61489   0.03803   0.00000  Uiso   1.00
H482   H     0.75013   0.58351   0.08310   0.00000  Uiso   1.00
H483   H     0.80945   0.87392   0.25899   0.00000  Uiso   1.00
H484   H     0.82431   0.92078   0.29586   0.00000  Uiso   1.00
H485   H     0.80269   0.86747   0.31713   0.00000  Uiso   1.00
H486   H     0.73530   0.88511   0.29530   0.00000  Uiso   1.00
H487   H     0.96769   0.89522   0.07752   0.00000  Uiso   1.00
H488   H     0.75012   0.91649   0.25023   0.00000  Uiso   1.00
H489   H     0.76451   0.86381   0.04585   0.00000  Uiso   1.00
H490   H     0.75624   0.89439   0.09713   0.00000  Uiso   1.00
H491   H     0.71773   0.85473   0.07745   0.00000  Uiso   1.00
H492   H     0.69226   0.93442   0.05991   0.00000  Uiso   1.00
H493   H     0.69974   0.90243   0.01604   0.00000  Uiso   1.00
H494   H     0.76455   0.63617   0.28748   0.00000  Uiso   1.00
H495   H     0.75625   0.60562   0.23620   0.00000  Uiso   1.00
H496   H     0.71776   0.64529   0.25590   0.00000  Uiso   1.00
H497   H     0.69227   0.56559   0.27343   0.00000  Uiso   1.00
H498   H     0.94972   0.84755   0.01603   0.00000  Uiso   1.00
H499   H     0.69975   0.59758   0.31729   0.00000  Uiso   1.00
H500   H     0.94225   0.81556   0.05990   0.00000  Uiso   1.00
H501   H     0.50620   0.64437   0.23613   0.00000  Uiso   1.00
H502   H     0.51466   0.61390   0.28745   0.00000  Uiso   1.00
H503   H     0.96782   0.60464   0.25598   0.00000  Uiso   1.00
H504   H     0.94977   0.65240   0.31729   0.00000  Uiso   1.00
I505   I     0.89904   0.66063   0.06151   0.00000  Uiso   1.00
I506   I     0.85030   0.58899   0.27288   0.00000  Uiso   1.00
I507   I     0.88786   0.53630   0.08936   0.00000  Uiso   1.00
I508   I     0.64901   0.91066   0.27183   0.00000  Uiso   1.00
I509   I     0.88786   0.96368   0.24398   0.00000  Uiso   1.00
I510   I     0.64903   0.58938   0.06151   0.00000  Uiso   1.00
I511   I     0.61213   0.53777   0.24518   0.00000  Uiso   1.00
I512   I     0.85029   0.91098   0.06045   0.00000  Uiso   1.00
I513   I     0.63786   0.78633   0.24398   0.00000  Uiso   1.00
I514   I     0.60027   0.83903   0.06045   0.00000  Uiso   1.00
I515   I     0.86214   0.71224   0.24518   0.00000  Uiso   1.00
I516   I     0.60033   0.66103   0.27288   0.00000  Uiso   1.00
I517   I     0.86211   0.78773   0.08817   0.00000  Uiso   1.00
I518   I     0.89901   0.83935   0.27182   0.00000  Uiso   1.00
I519   I     0.63787   0.71371   0.08937   0.00000  Uiso   1.00
I520   I     0.61212   0.96227   0.08817   0.00000  Uiso   1.00
N521   N     0.50000   0.75000   0.28573   0.00000  Uiso   1.00
N522   N     0.50000   0.75000   0.04760   0.00000  Uiso   1.00
N523   N     0.75000   0.50000   0.28573   0.00000  Uiso   1.00
N524   N     0.75000   0.50000   0.04760   0.00000  Uiso   1.00
O525   O     0.54580   0.70419   0.20487   0.00000  Uiso   1.00
O526   O     0.70419   0.54581   0.12846   0.00000  Uiso   1.00
O527   O     0.70419   0.54581   0.20487   0.00000  Uiso   1.00
O528   O     0.79580   0.95419   0.12846   0.00000  Uiso   1.00
O529   O     0.70419   0.95419   0.12846   0.00000  Uiso   1.00
O530   O     0.79580   0.54581   0.20487   0.00000  Uiso   1.00
O531   O     0.79580   0.54581   0.12846   0.00000  Uiso   1.00
O532   O     0.70419   0.95419   0.20487   0.00000  Uiso   1.00
O533   O     0.95419   0.79581   0.12846   0.00000  Uiso   1.00
O534   O     0.95419   0.79581   0.20487   0.00000  Uiso   1.00
O535   O     0.54580   0.70419   0.12846   0.00000  Uiso   1.00
O536   O     0.95419   0.70419   0.12846   0.00000  Uiso   1.00
O537   O     0.54580   0.79581   0.20487   0.00000  Uiso   1.00
O538   O     0.54580   0.79581   0.12846   0.00000  Uiso   1.00
O539   O     0.95419   0.70419   0.20487   0.00000  Uiso   1.00
O540   O     0.79580   0.95419   0.20487   0.00000  Uiso   1.00
Zn541  Zn    0.50000   0.75000   0.21771   0.00000  Uiso   1.00
Zn542  Zn    0.50000   0.75000   0.11563   0.00000  Uiso   1.00
Zn543  Zn    0.75000   0.50000   0.21771   0.00000  Uiso   1.00
Zn544  Zn    0.75000   0.50000   0.11563   0.00000  Uiso   1.00
C545   C     0.06232   0.19310   0.50055   0.00000  Uiso   1.00
C546   C     0.49512   0.20918   0.64337   0.00000  Uiso   1.00
C547   C     0.00184   0.20897   0.35720   0.00000  Uiso   1.00
C548   C     0.00183   0.29103   0.64280   0.00000  Uiso   1.00
C549   C     0.25184   0.04103   0.35720   0.00000  Uiso   1.00
C550   C     0.25183   0.45897   0.64280   0.00000  Uiso   1.00
C551   C     0.24511   0.45918   0.35663   0.00000  Uiso   1.00
C552   C     0.24511   0.04082   0.64337   0.00000  Uiso   1.00
C553   C     0.39505   0.13433   0.46036   0.00000  Uiso   1.00
C554   C     0.12289   0.34335   0.53508   0.00000  Uiso   1.00
C555   C     0.10565   0.36467   0.45956   0.00000  Uiso   1.00
C556   C     0.43774   0.30703   0.50045   0.00000  Uiso   1.00
C557   C     0.37793   0.15558   0.53602   0.00000  Uiso   1.00
C558   C     0.10567   0.13536   0.54045   0.00000  Uiso   1.00
C559   C     0.37792   0.34441   0.46398   0.00000  Uiso   1.00
C560   C     0.39504   0.36566   0.53964   0.00000  Uiso   1.00
C561   C     0.12291   0.15667   0.46492   0.00000  Uiso   1.00
C562   C     0.12792   0.40560   0.46398   0.00000  Uiso   1.00
C563   C     0.35567   0.11465   0.54045   0.00000  Uiso   1.00
C564   C     0.37290   0.09334   0.46492   0.00000  Uiso   1.00
C565   C     0.14503   0.38435   0.53964   0.00000  Uiso   1.00
C566   C     0.37290   0.40665   0.53508   0.00000  Uiso   1.00
C567   C     0.43774   0.19297   0.49955   0.00000  Uiso   1.00
C568   C     0.14505   0.11567   0.46036   0.00000  Uiso   1.00
C569   C     0.12793   0.09443   0.53602   0.00000  Uiso   1.00
C570   C     0.35566   0.38534   0.45956   0.00000  Uiso   1.00
C571   C     0.09909   0.33648   0.49709   0.00000  Uiso   1.00
C572   C     0.40135   0.16280   0.49770   0.00000  Uiso   1.00
C573   C     0.40134   0.33719   0.50230   0.00000  Uiso   1.00
C574   C     0.09911   0.16355   0.50291   0.00000  Uiso   1.00
C575   C     0.34910   0.08646   0.50291   0.00000  Uiso   1.00
C576   C     0.15134   0.41282   0.50230   0.00000  Uiso   1.00
C577   C     0.15135   0.08720   0.49770   0.00000  Uiso   1.00
C578   C     0.06232   0.30691   0.49945   0.00000  Uiso   1.00
C579   C     0.34910   0.41353   0.49709   0.00000  Uiso   1.00
C580   C     0.46839   0.33029   0.37504   0.00000  Uiso   1.00
C581   C     0.49104   0.36869   0.40034   0.00000  Uiso   1.00
C582   C     0.46844   0.16969   0.62495   0.00000  Uiso   1.00
C583   C     0.49112   0.13131   0.59964   0.00000  Uiso   1.00
C584   C     0.00727   0.16275   0.38147   0.00000  Uiso   1.00
C585   C     0.05121   0.14290   0.37696   0.00000  Uiso   1.00
C586   C     0.00725   0.33725   0.61853   0.00000  Uiso   1.00
C587   C     0.05118   0.35712   0.62306   0.00000  Uiso   1.00
C588   C     0.25727   0.08725   0.38147   0.00000  Uiso   1.00
C589   C     0.31232   0.44310   0.49945   0.00000  Uiso   1.00
C590   C     0.30120   0.10711   0.37695   0.00000  Uiso   1.00
C591   C     0.25725   0.41275   0.61853   0.00000  Uiso   1.00
C592   C     0.30119   0.39288   0.62305   0.00000  Uiso   1.00
C593   C     0.21840   0.41971   0.37504   0.00000  Uiso   1.00
C594   C     0.24107   0.38131   0.40035   0.00000  Uiso   1.00
C595   C     0.21842   0.08030   0.62496   0.00000  Uiso   1.00
C596   C     0.24109   0.11869   0.59965   0.00000  Uiso   1.00
C597   C     0.18774   0.05703   0.49955   0.00000  Uiso   1.00
C598   C     0.18774   0.44297   0.50045   0.00000  Uiso   1.00
C599   C     0.31232   0.05690   0.50055   0.00000  Uiso   1.00
C600   C     0.49511   0.29082   0.35663   0.00000  Uiso   1.00
H601   H     0.00629   0.35560   0.43041   0.00000  Uiso   1.00
H602   H     0.44228   0.18438   0.60675   0.00000  Uiso   1.00
H603   H     0.07432   0.17080   0.37083   0.00000  Uiso   1.00
H604   H     0.05947   0.12394   0.40769   0.00000  Uiso   1.00
H605   H     0.05273   0.11749   0.34955   0.00000  Uiso   1.00
H606   H     0.00013   0.16649   0.41643   0.00000  Uiso   1.00
H607   H     0.48533   0.13510   0.37136   0.00000  Uiso   1.00
H608   H     0.07431   0.32922   0.62918   0.00000  Uiso   1.00
H609   H     0.05944   0.37609   0.59233   0.00000  Uiso   1.00
H610   H     0.05269   0.38252   0.65048   0.00000  Uiso   1.00
H611   H     0.00012   0.33351   0.58357   0.00000  Uiso   1.00
H612   H     0.01443   0.38626   0.37914   0.00000  Uiso   1.00
H613   H     0.48530   0.36489   0.62864   0.00000  Uiso   1.00
H614   H     0.30947   0.12606   0.40768   0.00000  Uiso   1.00
H615   H     0.32432   0.07921   0.37081   0.00000  Uiso   1.00
H616   H     0.30271   0.13252   0.34954   0.00000  Uiso   1.00
H617   H     0.23532   0.11489   0.37137   0.00000  Uiso   1.00
H618   H     0.25013   0.08351   0.41643   0.00000  Uiso   1.00
H619   H     0.30945   0.37392   0.59233   0.00000  Uiso   1.00
H620   H     0.32431   0.42078   0.62919   0.00000  Uiso   1.00
H621   H     0.30269   0.36747   0.65047   0.00000  Uiso   1.00
H622   H     0.23530   0.38511   0.62863   0.00000  Uiso   1.00
H623   H     0.46769   0.39522   0.41085   0.00000  Uiso   1.00
H624   H     0.25012   0.41649   0.58357   0.00000  Uiso   1.00
H625   H     0.26451   0.36381   0.37918   0.00000  Uiso   1.00
H626   H     0.25624   0.39439   0.43046   0.00000  Uiso   1.00
H627   H     0.21773   0.35473   0.41078   0.00000  Uiso   1.00
H628   H     0.19226   0.43442   0.39324   0.00000  Uiso   1.00
H629   H     0.19974   0.40243   0.34937   0.00000  Uiso   1.00
H630   H     0.26455   0.13617   0.62082   0.00000  Uiso   1.00
H631   H     0.25625   0.10562   0.56953   0.00000  Uiso   1.00
H632   H     0.21776   0.14529   0.58924   0.00000  Uiso   1.00
H633   H     0.19227   0.06559   0.60676   0.00000  Uiso   1.00
H634   H     0.44972   0.34755   0.34937   0.00000  Uiso   1.00
H635   H     0.19975   0.09758   0.65063   0.00000  Uiso   1.00
H636   H     0.44225   0.31556   0.39324   0.00000  Uiso   1.00
H637   H     0.00620   0.14437   0.56947   0.00000  Uiso   1.00
H638   H     0.01466   0.11390   0.62078   0.00000  Uiso   1.00
H639   H     0.46782   0.10464   0.58932   0.00000  Uiso   1.00
H640   H     0.44977   0.15240   0.65062   0.00000  Uiso   1.00
I641   I     0.39904   0.16063   0.39484   0.00000  Uiso   1.00
I642   I     0.35030   0.08899   0.60621   0.00000  Uiso   1.00
I643   I     0.38786   0.03630   0.42269   0.00000  Uiso   1.00
I644   I     0.14901   0.41066   0.60516   0.00000  Uiso   1.00
I645   I     0.38786   0.46368   0.57731   0.00000  Uiso   1.00
I646   I     0.14903   0.08938   0.39484   0.00000  Uiso   1.00
I647   I     0.11213   0.03777   0.57851   0.00000  Uiso   1.00
I648   I     0.35029   0.41098   0.39379   0.00000  Uiso   1.00
I649   I     0.13786   0.28633   0.57731   0.00000  Uiso   1.00
I650   I     0.10027   0.33903   0.39379   0.00000  Uiso   1.00
I651   I     0.36214   0.21224   0.57852   0.00000  Uiso   1.00
I652   I     0.10033   0.16103   0.60621   0.00000  Uiso   1.00
I653   I     0.36211   0.28773   0.42151   0.00000  Uiso   1.00
I654   I     0.39901   0.33935   0.60516   0.00000  Uiso   1.00
I655   I     0.13787   0.21371   0.42270   0.00000  Uiso   1.00
I656   I     0.11212   0.46227   0.42150   0.00000  Uiso   1.00
N657   N     0.00000   0.25000   0.61907   0.00000  Uiso   1.00
N658   N     0.00000   0.25000   0.38093   0.00000  Uiso   1.00
N659   N     0.25000   0.00000   0.61907   0.00000  Uiso   1.00
N660   N     0.25000   0.00000   0.38093   0.00000  Uiso   1.00
O661   O     0.04580   0.20419   0.53821   0.00000  Uiso   1.00
O662   O     0.20419   0.04581   0.46179   0.00000  Uiso   1.00
O663   O     0.20419   0.04581   0.53821   0.00000  Uiso   1.00
O664   O     0.29580   0.45419   0.46179   0.00000  Uiso   1.00
O665   O     0.20419   0.45419   0.46179   0.00000  Uiso   1.00
O666   O     0.29580   0.04581   0.53821   0.00000  Uiso   1.00
O667   O     0.29580   0.04581   0.46179   0.00000  Uiso   1.00
O668   O     0.20419   0.45419   0.53821   0.00000  Uiso   1.00
O669   O     0.45419   0.29581   0.46179   0.00000  Uiso   1.00
O670   O     0.45419   0.29581   0.53821   0.00000  Uiso   1.00
O671   O     0.04580   0.20419   0.46179   0.00000  Uiso   1.00
O672   O     0.45419   0.20419   0.46179   0.00000  Uiso   1.00
O673   O     0.04580   0.29581   0.53821   0.00000  Uiso   1.00
O674   O     0.04580   0.29581   0.46179   0.00000  Uiso   1.00
O675   O     0.45419   0.20419   0.53821   0.00000  Uiso   1.00
O676   O     0.29580   0.45419   0.53821   0.00000  Uiso   1.00
Zn677  Zn    0.00000   0.25000   0.55104   0.00000  Uiso   1.00
Zn678  Zn    0.00000   0.25000   0.44896   0.00000  Uiso   1.00
Zn679  Zn    0.25000   0.00000   0.55104   0.00000  Uiso   1.00
Zn680  Zn    0.25000   0.00000   0.44896   0.00000  Uiso   1.00
C681   C     0.56232   0.19310   0.50055   0.00000  Uiso   1.00
C682   C     0.99512   0.20918   0.64337   0.00000  Uiso   1.00
C683   C     0.50184   0.20897   0.35720   0.00000  Uiso   1.00
C684   C     0.50183   0.29103   0.64280   0.00000  Uiso   1.00
C685   C     0.75184   0.04103   0.35720   0.00000  Uiso   1.00
C686   C     0.75183   0.45897   0.64280   0.00000  Uiso   1.00
C687   C     0.74511   0.45918   0.35663   0.00000  Uiso   1.00
C688   C     0.74511   0.04082   0.64337   0.00000  Uiso   1.00
C689   C     0.89505   0.13433   0.46036   0.00000  Uiso   1.00
C690   C     0.62289   0.34335   0.53508   0.00000  Uiso   1.00
C691   C     0.60565   0.36467   0.45956   0.00000  Uiso   1.00
C692   C     0.93774   0.30703   0.50045   0.00000  Uiso   1.00
C693   C     0.87793   0.15558   0.53602   0.00000  Uiso   1.00
C694   C     0.60567   0.13536   0.54045   0.00000  Uiso   1.00
C695   C     0.87792   0.34441   0.46398   0.00000  Uiso   1.00
C696   C     0.89504   0.36566   0.53964   0.00000  Uiso   1.00
C697   C     0.62291   0.15667   0.46492   0.00000  Uiso   1.00
C698   C     0.62792   0.40560   0.46398   0.00000  Uiso   1.00
C699   C     0.85567   0.11465   0.54045   0.00000  Uiso   1.00
C700   C     0.87290   0.09334   0.46492   0.00000  Uiso   1.00
C701   C     0.64503   0.38435   0.53964   0.00000  Uiso   1.00
C702   C     0.87290   0.40665   0.53508   0.00000  Uiso   1.00
C703   C     0.93774   0.19297   0.49955   0.00000  Uiso   1.00
C704   C     0.64505   0.11567   0.46036   0.00000  Uiso   1.00
C705   C     0.62793   0.09443   0.53602   0.00000  Uiso   1.00
C706   C     0.85566   0.38534   0.45956   0.00000  Uiso   1.00
C707   C     0.59909   0.33648   0.49709   0.00000  Uiso   1.00
C708   C     0.90135   0.16280   0.49770   0.00000  Uiso   1.00
C709   C     0.90134   0.33719   0.50230   0.00000  Uiso   1.00
C710   C     0.59911   0.16355   0.50291   0.00000  Uiso   1.00
C711   C     0.84910   0.08646   0.50291   0.00000  Uiso   1.00
C712   C     0.65134   0.41282   0.50230   0.00000  Uiso   1.00
C713   C     0.65135   0.08720   0.49770   0.00000  Uiso   1.00
C714   C     0.56232   0.30691   0.49945   0.00000  Uiso   1.00
C715   C     0.84910   0.41353   0.49709   0.00000  Uiso   1.00
C716   C     0.96839   0.33029   0.37504   0.00000  Uiso   1.00
C717   C     0.99104   0.36869   0.40034   0.00000  Uiso   1.00
C718   C     0.96844   0.16969   0.62495   0.00000  Uiso   1.00
C719   C     0.99112   0.13131   0.59964   0.00000  Uiso   1.00
C720   C     0.50727   0.16275   0.38147   0.00000  Uiso   1.00
C721   C     0.55121   0.14290   0.37696   0.00000  Uiso   1.00
C722   C     0.50725   0.33725   0.61853   0.00000  Uiso   1.00
C723   C     0.55118   0.35712   0.62306   0.00000  Uiso   1.00
C724   C     0.75727   0.08725   0.38147   0.00000  Uiso   1.00
C725   C     0.81232   0.44310   0.49945   0.00000  Uiso   1.00
C726   C     0.80120   0.10711   0.37695   0.00000  Uiso   1.00
C727   C     0.75725   0.41275   0.61853   0.00000  Uiso   1.00
C728   C     0.80119   0.39288   0.62305   0.00000  Uiso   1.00
C729   C     0.71840   0.41971   0.37504   0.00000  Uiso   1.00
C730   C     0.74107   0.38131   0.40035   0.00000  Uiso   1.00
C731   C     0.71842   0.08030   0.62496   0.00000  Uiso   1.00
C732   C     0.74109   0.11869   0.59965   0.00000  Uiso   1.00
C733   C     0.68774   0.05703   0.49955   0.00000  Uiso   1.00
C734   C     0.68774   0.44297   0.50045   0.00000  Uiso   1.00
C735   C     0.81232   0.05690   0.50055   0.00000  Uiso   1.00
C736   C     0.99511   0.29082   0.35663   0.00000  Uiso   1.00
H737   H     0.50629   0.35560   0.43041   0.00000  Uiso   1.00
H738   H     0.94228   0.18438   0.60675   0.00000  Uiso   1.00
H739   H     0.57432   0.17080   0.37083   0.00000  Uiso   1.00
H740   H     0.55947   0.12394   0.40769   0.00000  Uiso   1.00
H741   H     0.55273   0.11749   0.34955   0.00000  Uiso   1.00
H742   H     0.50013   0.16649   0.41643   0.00000  Uiso   1.00
H743   H     0.98533   0.13510   0.37136   0.00000  Uiso   1.00
H744   H     0.57431   0.32922   0.62918   0.00000  Uiso   1.00
H745   H     0.55944   0.37609   0.59233   0.00000  Uiso   1.00
H746   H     0.55269   0.38252   0.65048   0.00000  Uiso   1.00
H747   H     0.50012   0.33351   0.58357   0.00000  Uiso   1.00
H748   H     0.51443   0.38626   0.37914   0.00000  Uiso   1.00
H749   H     0.98530   0.36489   0.62864   0.00000  Uiso   1.00
H750   H     0.80947   0.12606   0.40768   0.00000  Uiso   1.00
H751   H     0.82432   0.07921   0.37081   0.00000  Uiso   1.00
H752   H     0.80271   0.13252   0.34954   0.00000  Uiso   1.00
H753   H     0.73532   0.11489   0.37137   0.00000  Uiso   1.00
H754   H     0.75013   0.08351   0.41643   0.00000  Uiso   1.00
H755   H     0.80945   0.37392   0.59233   0.00000  Uiso   1.00
H756   H     0.82431   0.42078   0.62919   0.00000  Uiso   1.00
H757   H     0.80269   0.36747   0.65047   0.00000  Uiso   1.00
H758   H     0.73530   0.38511   0.62863   0.00000  Uiso   1.00
H759   H     0.96769   0.39522   0.41085   0.00000  Uiso   1.00
H760   H     0.75012   0.41649   0.58357   0.00000  Uiso   1.00
H761   H     0.76451   0.36381   0.37918   0.00000  Uiso   1.00
H762   H     0.75624   0.39439   0.43046   0.00000  Uiso   1.00
H763   H     0.71773   0.35473   0.41078   0.00000  Uiso   1.00
H764   H     0.69226   0.43442   0.39324   0.00000  Uiso   1.00
H765   H     0.69974   0.40243   0.34937   0.00000  Uiso   1.00
H766   H     0.76455   0.13617   0.62082   0.00000  Uiso   1.00
H767   H     0.75625   0.10562   0.56953   0.00000  Uiso   1.00
H768   H     0.71776   0.14529   0.58924   0.00000  Uiso   1.00
H769   H     0.69227   0.06559   0.60676   0.00000  Uiso   1.00
H770   H     0.94972   0.34755   0.34937   0.00000  Uiso   1.00
H771   H     0.69975   0.09758   0.65063   0.00000  Uiso   1.00
H772   H     0.94225   0.31556   0.39324   0.00000  Uiso   1.00
H773   H     0.50620   0.14437   0.56947   0.00000  Uiso   1.00
H774   H     0.51466   0.11390   0.62078   0.00000  Uiso   1.00
H775   H     0.96782   0.10464   0.58932   0.00000  Uiso   1.00
H776   H     0.94977   0.15240   0.65062   0.00000  Uiso   1.00
I777   I     0.89904   0.16063   0.39484   0.00000  Uiso   1.00
I778   I     0.85030   0.08899   0.60621   0.00000  Uiso   1.00
I779   I     0.88786   0.03630   0.42269   0.00000  Uiso   1.00
I780   I     0.64901   0.41066   0.60516   0.00000  Uiso   1.00
I781   I     0.88786   0.46368   0.57731   0.00000  Uiso   1.00
I782   I     0.64903   0.08938   0.39484   0.00000  Uiso   1.00
I783   I     0.61213   0.03777   0.57851   0.00000  Uiso   1.00
I784   I     0.85029   0.41098   0.39379   0.00000  Uiso   1.00
I785   I     0.63786   0.28633   0.57731   0.00000  Uiso   1.00
I786   I     0.60027   0.33903   0.39379   0.00000  Uiso   1.00
I787   I     0.86214   0.21224   0.57852   0.00000  Uiso   1.00
I788   I     0.60033   0.16103   0.60621   0.00000  Uiso   1.00
I789   I     0.86211   0.28773   0.42151   0.00000  Uiso   1.00
I790   I     0.89901   0.33935   0.60516   0.00000  Uiso   1.00
I791   I     0.63787   0.21371   0.42270   0.00000  Uiso   1.00
I792   I     0.61212   0.46227   0.42150   0.00000  Uiso   1.00
N793   N     0.50000   0.25000   0.61907   0.00000  Uiso   1.00
N794   N     0.50000   0.25000   0.38093   0.00000  Uiso   1.00
N795   N     0.75000   0.00000   0.61907   0.00000  Uiso   1.00
N796   N     0.75000   0.00000   0.38093   0.00000  Uiso   1.00
O797   O     0.54580   0.20419   0.53821   0.00000  Uiso   1.00
O798   O     0.70419   0.04581   0.46179   0.00000  Uiso   1.00
O799   O     0.70419   0.04581   0.53821   0.00000  Uiso   1.00
O800   O     0.79580   0.45419   0.46179   0.00000  Uiso   1.00
O801   O     0.70419   0.45419   0.46179   0.00000  Uiso   1.00
O802   O     0.79580   0.04581   0.53821   0.00000  Uiso   1.00
O803   O     0.79580   0.04581   0.46179   0.00000  Uiso   1.00
O804   O     0.70419   0.45419   0.53821   0.00000  Uiso   1.00
O805   O     0.95419   0.29581   0.46179   0.00000  Uiso   1.00
O806   O     0.95419   0.29581   0.53821   0.00000  Uiso   1.00
O807   O     0.54580   0.20419   0.46179   0.00000  Uiso   1.00
O808   O     0.95419   0.20419   0.46179   0.00000  Uiso   1.00
O809   O     0.54580   0.29581   0.53821   0.00000  Uiso   1.00
O810   O     0.54580   0.29581   0.46179   0.00000  Uiso   1.00
O811   O     0.95419   0.20419   0.53821   0.00000  Uiso   1.00
O812   O     0.79580   0.45419   0.53821   0.00000  Uiso   1.00
Zn813  Zn    0.50000   0.25000   0.55104   0.00000  Uiso   1.00
Zn814  Zn    0.50000   0.25000   0.44896   0.00000  Uiso   1.00
Zn815  Zn    0.75000   0.00000   0.55104   0.00000  Uiso   1.00
Zn816  Zn    0.75000   0.00000   0.44896   0.00000  Uiso   1.00
C817   C     0.06232   0.69310   0.50055   0.00000  Uiso   1.00
C818   C     0.49512   0.70918   0.64337   0.00000  Uiso   1.00
C819   C     0.00184   0.70897   0.35720   0.00000  Uiso   1.00
C820   C     0.00183   0.79103   0.64280   0.00000  Uiso   1.00
C821   C     0.25184   0.54103   0.35720   0.00000  Uiso   1.00
C822   C     0.25183   0.95897   0.64280   0.00000  Uiso   1.00
C823   C     0.24511   0.95918   0.35663   0.00000  Uiso   1.00
C824   C     0.24511   0.54082   0.64337   0.00000  Uiso   1.00
C825   C     0.39505   0.63433   0.46036   0.00000  Uiso   1.00
C826   C     0.12289   0.84335   0.53508   0.00000  Uiso   1.00
C827   C     0.10565   0.86467   0.45956   0.00000  Uiso   1.00
C828   C     0.43774   0.80703   0.50045   0.00000  Uiso   1.00
C829   C     0.37793   0.65558   0.53602   0.00000  Uiso   1.00
C830   C     0.10567   0.63536   0.54045   0.00000  Uiso   1.00
C831   C     0.37792   0.84441   0.46398   0.00000  Uiso   1.00
C832   C     0.39504   0.86566   0.53964   0.00000  Uiso   1.00
C833   C     0.12291   0.65667   0.46492   0.00000  Uiso   1.00
C834   C     0.12792   0.90560   0.46398   0.00000  Uiso   1.00
C835   C     0.35567   0.61465   0.54045   0.00000  Uiso   1.00
C836   C     0.37290   0.59334   0.46492   0.00000  Uiso   1.00
C837   C     0.14503   0.88435   0.53964   0.00000  Uiso   1.00
C838   C     0.37290   0.90665   0.53508   0.00000  Uiso   1.00
C839   C     0.43774   0.69297   0.49955   0.00000  Uiso   1.00
C840   C     0.14505   0.61567   0.46036   0.00000  Uiso   1.00
C841   C     0.12793   0.59443   0.53602   0.00000  Uiso   1.00
C842   C     0.35566   0.88534   0.45956   0.00000  Uiso   1.00
C843   C     0.09909   0.83648   0.49709   0.00000  Uiso   1.00
C844   C     0.40135   0.66280   0.49770   0.00000  Uiso   1.00
C845   C     0.40134   0.83719   0.50230   0.00000  Uiso   1.00
C846   C     0.09911   0.66355   0.50291   0.00000  Uiso   1.00
C847   C     0.34910   0.58646   0.50291   0.00000  Uiso   1.00
C848   C     0.15134   0.91282   0.50230   0.00000  Uiso   1.00
C849   C     0.15135   0.58720   0.49770   0.00000  Uiso   1.00
C850   C     0.06232   0.80691   0.49945   0.00000  Uiso   1.00
C851   C     0.34910   0.91353   0.49709   0.00000  Uiso   1.00
C852   C     0.46839   0.83029   0.37504   0.00000  Uiso   1.00
C853   C     0.49104   0.86869   0.40034   0.00000  Uiso   1.00
C854   C     0.46844   0.66969   0.62495   0.00000  Uiso   1.00
C855   C     0.49112   0.63131   0.59964   0.00000  Uiso   1.00
C856   C     0.00727   0.66275   0.38147   0.00000  Uiso   1.00
C857   C     0.05121   0.64290   0.37696   0.00000  Uiso   1.00
C858   C     0.00725   0.83725   0.61853   0.00000  Uiso   1.00
C859   C     0.05118   0.85712   0.62306   0.00000  Uiso   1.00
C860   C     0.25727   0.58725   0.38147   0.00000  Uiso   1.00
C861   C     0.31232   0.94310   0.49945   0.00000  Uiso   1.00
C862   C     0.30120   0.60711   0.37695   0.00000  Uiso   1.00
C863   C     0.25725   0.91275   0.61853   0.00000  Uiso   1.00
C864   C     0.30119   0.89288   0.62305   0.00000  Uiso   1.00
C865   C     0.21840   0.91971   0.37504   0.00000  Uiso   1.00
C866   C     0.24107   0.88131   0.40035   0.00000  Uiso   1.00
C867   C     0.21842   0.58030   0.62496   0.00000  Uiso   1.00
C868   C     0.24109   0.61869   0.59965   0.00000  Uiso   1.00
C869   C     0.18774   0.55703   0.49955   0.00000  Uiso   1.00
C870   C     0.18774   0.94297   0.50045   0.00000  Uiso   1.00
C871   C     0.31232   0.55690   0.50055   0.00000  Uiso   1.00
C872   C     0.49511   0.79082   0.35663   0.00000  Uiso   1.00
H873   H     0.00629   0.85560   0.43041   0.00000  Uiso   1.00
H874   H     0.44228   0.68438   0.60675   0.00000  Uiso   1.00
H875   H     0.07432   0.67080   0.37083   0.00000  Uiso   1.00
H876   H     0.05947   0.62394   0.40769   0.00000  Uiso   1.00
H877   H     0.05273   0.61749   0.34955   0.00000  Uiso   1.00
H878   H     0.00013   0.66649   0.41643   0.00000  Uiso   1.00
H879   H     0.48533   0.63510   0.37136   0.00000  Uiso   1.00
H880   H     0.07431   0.82922   0.62918   0.00000  Uiso   1.00
H881   H     0.05944   0.87609   0.59233   0.00000  Uiso   1.00
H882   H     0.05269   0.88252   0.65048   0.00000  Uiso   1.00
H883   H     0.00012   0.83351   0.58357   0.00000  Uiso   1.00
H884   H     0.01443   0.88626   0.37914   0.00000  Uiso   1.00
H885   H     0.48530   0.86489   0.62864   0.00000  Uiso   1.00
H886   H     0.30947   0.62606   0.40768   0.00000  Uiso   1.00
H887   H     0.32432   0.57921   0.37081   0.00000  Uiso   1.00
H888   H     0.30271   0.63252   0.34954   0.00000  Uiso   1.00
H889   H     0.23532   0.61489   0.37137   0.00000  Uiso   1.00
H890   H     0.25013   0.58351   0.41643   0.00000  Uiso   1.00
H891   H     0.30945   0.87392   0.59233   0.00000  Uiso   1.00
H892   H     0.32431   0.92078   0.62919   0.00000  Uiso   1.00
H893   H     0.30269   0.86747   0.65047   0.00000  Uiso   1.00
H894   H     0.23530   0.88511   0.62863   0.00000  Uiso   1.00
H895   H     0.46769   0.89522   0.41085   0.00000  Uiso   1.00
H896   H     0.25012   0.91649   0.58357   0.00000  Uiso   1.00
H897   H     0.26451   0.86381   0.37918   0.00000  Uiso   1.00
H898   H     0.25624   0.89439   0.43046   0.00000  Uiso   1.00
H899   H     0.21773   0.85473   0.41078   0.00000  Uiso   1.00
H900   H     0.19226   0.93442   0.39324   0.00000  Uiso   1.00
H901   H     0.19974   0.90243   0.34937   0.00000  Uiso   1.00
H902   H     0.26455   0.63617   0.62082   0.00000  Uiso   1.00
H903   H     0.25625   0.60562   0.56953   0.00000  Uiso   1.00
H904   H     0.21776   0.64529   0.58924   0.00000  Uiso   1.00
H905   H     0.19227   0.56559   0.60676   0.00000  Uiso   1.00
H906   H     0.44972   0.84755   0.34937   0.00000  Uiso   1.00
H907   H     0.19975   0.59758   0.65063   0.00000  Uiso   1.00
H908   H     0.44225   0.81556   0.39324   0.00000  Uiso   1.00
H909   H     0.00620   0.64437   0.56947   0.00000  Uiso   1.00
H910   H     0.01466   0.61390   0.62078   0.00000  Uiso   1.00
H911   H     0.46782   0.60464   0.58932   0.00000  Uiso   1.00
H912   H     0.44977   0.65240   0.65062   0.00000  Uiso   1.00
I913   I     0.39904   0.66063   0.39484   0.00000  Uiso   1.00
I914   I     0.35030   0.58899   0.60621   0.00000  Uiso   1.00
I915   I     0.38786   0.53630   0.42269   0.00000  Uiso   1.00
I916   I     0.14901   0.91066   0.60516   0.00000  Uiso   1.00
I917   I     0.38786   0.96368   0.57731   0.00000  Uiso   1.00
I918   I     0.14903   0.58938   0.39484   0.00000  Uiso   1.00
I919   I     0.11213   0.53777   0.57851   0.00000  Uiso   1.00
I920   I     0.35029   0.91098   0.39379   0.00000  Uiso   1.00
I921   I     0.13786   0.78633   0.57731   0.00000  Uiso   1.00
I922   I     0.10027   0.83903   0.39379   0.00000  Uiso   1.00
I923   I     0.36214   0.71224   0.57852   0.00000  Uiso   1.00
I924   I     0.10033   0.66103   0.60621   0.00000  Uiso   1.00
I925   I     0.36211   0.78773   0.42151   0.00000  Uiso   1.00
I926   I     0.39901   0.83935   0.60516   0.00000  Uiso   1.00
I927   I     0.13787   0.71371   0.42270   0.00000  Uiso   1.00
I928   I     0.11212   0.96227   0.42150   0.00000  Uiso   1.00
N929   N     0.00000   0.75000   0.61907   0.00000  Uiso   1.00
N930   N     0.00000   0.75000   0.38093   0.00000  Uiso   1.00
N931   N     0.25000   0.50000   0.61907   0.00000  Uiso   1.00
N932   N     0.25000   0.50000   0.38093   0.00000  Uiso   1.00
O933   O     0.04580   0.70419   0.53821   0.00000  Uiso   1.00
O934   O     0.20419   0.54581   0.46179   0.00000  Uiso   1.00
O935   O     0.20419   0.54581   0.53821   0.00000  Uiso   1.00
O936   O     0.29580   0.95419   0.46179   0.00000  Uiso   1.00
O937   O     0.20419   0.95419   0.46179   0.00000  Uiso   1.00
O938   O     0.29580   0.54581   0.53821   0.00000  Uiso   1.00
O939   O     0.29580   0.54581   0.46179   0.00000  Uiso   1.00
O940   O     0.20419   0.95419   0.53821   0.00000  Uiso   1.00
O941   O     0.45419   0.79581   0.46179   0.00000  Uiso   1.00
O942   O     0.45419   0.79581   0.53821   0.00000  Uiso   1.00
O943   O     0.04580   0.70419   0.46179   0.00000  Uiso   1.00
O944   O     0.45419   0.70419   0.46179   0.00000  Uiso   1.00
O945   O     0.04580   0.79581   0.53821   0.00000  Uiso   1.00
O946   O     0.04580   0.79581   0.46179   0.00000  Uiso   1.00
O947   O     0.45419   0.70419   0.53821   0.00000  Uiso   1.00
O948   O     0.29580   0.95419   0.53821   0.00000  Uiso   1.00
Zn949  Zn    0.00000   0.75000   0.55104   0.00000  Uiso   1.00
Zn950  Zn    0.00000   0.75000   0.44896   0.00000  Uiso   1.00
Zn951  Zn    0.25000   0.50000   0.55104   0.00000  Uiso   1.00
Zn952  Zn    0.25000   0.50000   0.44896   0.00000  Uiso   1.00
C953   C     0.56232   0.69310   0.50055   0.00000  Uiso   1.00
C954   C     0.99512   0.70918   0.64337   0.00000  Uiso   1.00
C955   C     0.50184   0.70897   0.35720   0.00000  Uiso   1.00
C956   C     0.50183   0.79103   0.64280   0.00000  Uiso   1.00
C957   C     0.75184   0.54103   0.35720   0.00000  Uiso   1.00
C958   C     0.75183   0.95897   0.64280   0.00000  Uiso   1.00
C959   C     0.74511   0.95918   0.35663   0.00000  Uiso   1.00
C960   C     0.74511   0.54082   0.64337   0.00000  Uiso   1.00
C961   C     0.89505   0.63433   0.46036   0.00000  Uiso   1.00
C962   C     0.62289   0.84335   0.53508   0.00000  Uiso   1.00
C963   C     0.60565   0.86467   0.45956   0.00000  Uiso   1.00
C964   C     0.93774   0.80703   0.50045   0.00000  Uiso   1.00
C965   C     0.87793   0.65558   0.53602   0.00000  Uiso   1.00
C966   C     0.60567   0.63536   0.54045   0.00000  Uiso   1.00
C967   C     0.87792   0.84441   0.46398   0.00000  Uiso   1.00
C968   C     0.89504   0.86566   0.53964   0.00000  Uiso   1.00
C969   C     0.62291   0.65667   0.46492   0.00000  Uiso   1.00
C970   C     0.62792   0.90560   0.46398   0.00000  Uiso   1.00
C971   C     0.85567   0.61465   0.54045   0.00000  Uiso   1.00
C972   C     0.87290   0.59334   0.46492   0.00000  Uiso   1.00
C973   C     0.64503   0.88435   0.53964   0.00000  Uiso   1.00
C974   C     0.87290   0.90665   0.53508   0.00000  Uiso   1.00
C975   C     0.93774   0.69297   0.49955   0.00000  Uiso   1.00
C976   C     0.64505   0.61567   0.46036   0.00000  Uiso   1.00
C977   C     0.62793   0.59443   0.53602   0.00000  Uiso   1.00
C978   C     0.85566   0.88534   0.45956   0.00000  Uiso   1.00
C979   C     0.59909   0.83648   0.49709   0.00000  Uiso   1.00
C980   C     0.90135   0.66280   0.49770   0.00000  Uiso   1.00
C981   C     0.90134   0.83719   0.50230   0.00000  Uiso   1.00
C982   C     0.59911   0.66355   0.50291   0.00000  Uiso   1.00
C983   C     0.84910   0.58646   0.50291   0.00000  Uiso   1.00
C984   C     0.65134   0.91282   0.50230   0.00000  Uiso   1.00
C985   C     0.65135   0.58720   0.49770   0.00000  Uiso   1.00
C986   C     0.56232   0.80691   0.49945   0.00000  Uiso   1.00
C987   C     0.84910   0.91353   0.49709   0.00000  Uiso   1.00
C988   C     0.96839   0.83029   0.37504   0.00000  Uiso   1.00
C989   C     0.99104   0.86869   0.40034   0.00000  Uiso   1.00
C990   C     0.96844   0.66969   0.62495   0.00000  Uiso   1.00
C991   C     0.99112   0.63131   0.59964   0.00000  Uiso   1.00
C992   C     0.50727   0.66275   0.38147   0.00000  Uiso   1.00
C993   C     0.55121   0.64290   0.37696   0.00000  Uiso   1.00
C994   C     0.50725   0.83725   0.61853   0.00000  Uiso   1.00
C995   C     0.55118   0.85712   0.62306   0.00000  Uiso   1.00
C996   C     0.75727   0.58725   0.38147   0.00000  Uiso   1.00
C997   C     0.81232   0.94310   0.49945   0.00000  Uiso   1.00
C998   C     0.80120   0.60711   0.37695   0.00000  Uiso   1.00
C999   C     0.75725   0.91275   0.61853   0.00000  Uiso   1.00
C1000  C     0.80119   0.89288   0.62305   0.00000  Uiso   1.00
C1001  C     0.71840   0.91971   0.37504   0.00000  Uiso   1.00
C1002  C     0.74107   0.88131   0.40035   0.00000  Uiso   1.00
C1003  C     0.71842   0.58030   0.62496   0.00000  Uiso   1.00
C1004  C     0.74109   0.61869   0.59965   0.00000  Uiso   1.00
C1005  C     0.68774   0.55703   0.49955   0.00000  Uiso   1.00
C1006  C     0.68774   0.94297   0.50045   0.00000  Uiso   1.00
C1007  C     0.81232   0.55690   0.50055   0.00000  Uiso   1.00
C1008  C     0.99511   0.79082   0.35663   0.00000  Uiso   1.00
H1009  H     0.50629   0.85560   0.43041   0.00000  Uiso   1.00
H1010  H     0.94228   0.68438   0.60675   0.00000  Uiso   1.00
H1011  H     0.57432   0.67080   0.37083   0.00000  Uiso   1.00
H1012  H     0.55947   0.62394   0.40769   0.00000  Uiso   1.00
H1013  H     0.55273   0.61749   0.34955   0.00000  Uiso   1.00
H1014  H     0.50013   0.66649   0.41643   0.00000  Uiso   1.00
H1015  H     0.98533   0.63510   0.37136   0.00000  Uiso   1.00
H1016  H     0.57431   0.82922   0.62918   0.00000  Uiso   1.00
H1017  H     0.55944   0.87609   0.59233   0.00000  Uiso   1.00
H1018  H     0.55269   0.88252   0.65048   0.00000  Uiso   1.00
H1019  H     0.50012   0.83351   0.58357   0.00000  Uiso   1.00
H1020  H     0.51443   0.88626   0.37914   0.00000  Uiso   1.00
H1021  H     0.98530   0.86489   0.62864   0.00000  Uiso   1.00
H1022  H     0.80947   0.62606   0.40768   0.00000  Uiso   1.00
H1023  H     0.82432   0.57921   0.37081   0.00000  Uiso   1.00
H1024  H     0.80271   0.63252   0.34954   0.00000  Uiso   1.00
H1025  H     0.73532   0.61489   0.37137   0.00000  Uiso   1.00
H1026  H     0.75013   0.58351   0.41643   0.00000  Uiso   1.00
H1027  H     0.80945   0.87392   0.59233   0.00000  Uiso   1.00
H1028  H     0.82431   0.92078   0.62919   0.00000  Uiso   1.00
H1029  H     0.80269   0.86747   0.65047   0.00000  Uiso   1.00
H1030  H     0.73530   0.88511   0.62863   0.00000  Uiso   1.00
H1031  H     0.96769   0.89522   0.41085   0.00000  Uiso   1.00
H1032  H     0.75012   0.91649   0.58357   0.00000  Uiso   1.00
H1033  H     0.76451   0.86381   0.37918   0.00000  Uiso   1.00
H1034  H     0.75624   0.89439   0.43046   0.00000  Uiso   1.00
H1035  H     0.71773   0.85473   0.41078   0.00000  Uiso   1.00
H1036  H     0.69226   0.93442   0.39324   0.00000  Uiso   1.00
H1037  H     0.69974   0.90243   0.34937   0.00000  Uiso   1.00
H1038  H     0.76455   0.63617   0.62082   0.00000  Uiso   1.00
H1039  H     0.75625   0.60562   0.56953   0.00000  Uiso   1.00
H1040  H     0.71776   0.64529   0.58924   0.00000  Uiso   1.00
H1041  H     0.69227   0.56559   0.60676   0.00000  Uiso   1.00
H1042  H     0.94972   0.84755   0.34937   0.00000  Uiso   1.00
H1043  H     0.69975   0.59758   0.65063   0.00000  Uiso   1.00
H1044  H     0.94225   0.81556   0.39324   0.00000  Uiso   1.00
H1045  H     0.50620   0.64437   0.56947   0.00000  Uiso   1.00
H1046  H     0.51466   0.61390   0.62078   0.00000  Uiso   1.00
H1047  H     0.96782   0.60464   0.58932   0.00000  Uiso   1.00
H1048  H     0.94977   0.65240   0.65062   0.00000  Uiso   1.00
I1049  I     0.89904   0.66063   0.39484   0.00000  Uiso   1.00
I1050  I     0.85030   0.58899   0.60621   0.00000  Uiso   1.00
I1051  I     0.88786   0.53630   0.42269   0.00000  Uiso   1.00
I1052  I     0.64901   0.91066   0.60516   0.00000  Uiso   1.00
I1053  I     0.88786   0.96368   0.57731   0.00000  Uiso   1.00
I1054  I     0.64903   0.58938   0.39484   0.00000  Uiso   1.00
I1055  I     0.61213   0.53777   0.57851   0.00000  Uiso   1.00
I1056  I     0.85029   0.91098   0.39379   0.00000  Uiso   1.00
I1057  I     0.63786   0.78633   0.57731   0.00000  Uiso   1.00
I1058  I     0.60027   0.83903   0.39379   0.00000  Uiso   1.00
I1059  I     0.86214   0.71224   0.57852   0.00000  Uiso   1.00
I1060  I     0.60033   0.66103   0.60621   0.00000  Uiso   1.00
I1061  I     0.86211   0.78773   0.42151   0.00000  Uiso   1.00
I1062  I     0.89901   0.83935   0.60516   0.00000  Uiso   1.00
I1063  I     0.63787   0.71371   0.42270   0.00000  Uiso   1.00
I1064  I     0.61212   0.96227   0.42150   0.00000  Uiso   1.00
N1065  N     0.50000   0.75000   0.61907   0.00000  Uiso   1.00
N1066  N     0.50000   0.75000   0.38093   0.00000  Uiso   1.00
N1067  N     0.75000   0.50000   0.61907   0.00000  Uiso   1.00
N1068  N     0.75000   0.50000   0.38093   0.00000  Uiso   1.00
O1069  O     0.54580   0.70419   0.53821   0.00000  Uiso   1.00
O1070  O     0.70419   0.54581   0.46179   0.00000  Uiso   1.00
O1071  O     0.70419   0.54581   0.53821   0.00000  Uiso   1.00
O1072  O     0.79580   0.95419   0.46179   0.00000  Uiso   1.00
O1073  O     0.70419   0.95419   0.46179   0.00000  Uiso   1.00
O1074  O     0.79580   0.54581   0.53821   0.00000  Uiso   1.00
O1075  O     0.79580   0.54581   0.46179   0.00000  Uiso   1.00
O1076  O     0.70419   0.95419   0.53821   0.00000  Uiso   1.00
O1077  O     0.95419   0.79581   0.46179   0.00000  Uiso   1.00
O1078  O     0.95419   0.79581   0.53821   0.00000  Uiso   1.00
O1079  O     0.54580   0.70419   0.46179   0.00000  Uiso   1.00
O1080  O     0.95419   0.70419   0.46179   0.00000  Uiso   1.00
O1081  O     0.54580   0.79581   0.53821   0.00000  Uiso   1.00
O1082  O     0.54580   0.79581   0.46179   0.00000  Uiso   1.00
O1083  O     0.95419   0.70419   0.53821   0.00000  Uiso   1.00
O1084  O     0.79580   0.95419   0.53821   0.00000  Uiso   1.00
Zn1085 Zn    0.50000   0.75000   0.55104   0.00000  Uiso   1.00
Zn1086 Zn    0.50000   0.75000   0.44896   0.00000  Uiso   1.00
Zn1087 Zn    0.75000   0.50000   0.55104   0.00000  Uiso   1.00
Zn1088 Zn    0.75000   0.50000   0.44896   0.00000  Uiso   1.00
C1089  C     0.06232   0.19310   0.83388   0.00000  Uiso   1.00
C1090  C     0.49512   0.20918   0.97670   0.00000  Uiso   1.00
C1091  C     0.00184   0.20897   0.69054   0.00000  Uiso   1.00
C1092  C     0.00183   0.29103   0.97613   0.00000  Uiso   1.00
C1093  C     0.25184   0.04103   0.69054   0.00000  Uiso   1.00
C1094  C     0.25183   0.45897   0.97613   0.00000  Uiso   1.00
C1095  C     0.24511   0.45918   0.68996   0.00000  Uiso   1.00
C1096  C     0.24511   0.04082   0.97671   0.00000  Uiso   1.00
C1097  C     0.39505   0.13433   0.79369   0.00000  Uiso   1.00
C1098  C     0.12289   0.34335   0.86842   0.00000  Uiso   1.00
C1099  C     0.10565   0.36467   0.79289   0.00000  Uiso   1.00
C1100  C     0.43774   0.30703   0.83378   0.00000  Uiso   1.00
C1101  C     0.37793   0.15558   0.86935   0.00000  Uiso   1.00
C1102  C     0.10567   0.13536   0.87378   0.00000  Uiso   1.00
C1103  C     0.37792   0.34441   0.79732   0.00000  Uiso   1.00
C1104  C     0.39504   0.36566   0.87297   0.00000  Uiso   1.00
C1105  C     0.12291   0.15667   0.79825   0.00000  Uiso   1.00
C1106  C     0.12792   0.40560   0.79732   0.00000  Uiso   1.00
C1107  C     0.35567   0.11465   0.87378   0.00000  Uiso   1.00
C1108  C     0.37290   0.09334   0.79825   0.00000  Uiso   1.00
C1109  C     0.14503   0.38435   0.87297   0.00000  Uiso   1.00
C1110  C     0.37290   0.40665   0.86842   0.00000  Uiso   1.00
C1111  C     0.43774   0.19297   0.83288   0.00000  Uiso   1.00
C1112  C     0.14505   0.11567   0.79370   0.00000  Uiso   1.00
C1113  C     0.12793   0.09443   0.86935   0.00000  Uiso   1.00
C1114  C     0.35566   0.38534   0.79289   0.00000  Uiso   1.00
C1115  C     0.09909   0.33648   0.83042   0.00000  Uiso   1.00
C1116  C     0.40135   0.16280   0.83103   0.00000  Uiso   1.00
C1117  C     0.40134   0.33719   0.83563   0.00000  Uiso   1.00
C1118  C     0.09911   0.16355   0.83625   0.00000  Uiso   1.00
C1119  C     0.34910   0.08646   0.83625   0.00000  Uiso   1.00
C1120  C     0.15134   0.41282   0.83563   0.00000  Uiso   1.00
C1121  C     0.15135   0.08720   0.83104   0.00000  Uiso   1.00
C1122  C     0.06232   0.30691   0.83278   0.00000  Uiso   1.00
C1123  C     0.34910   0.41353   0.83042   0.00000  Uiso   1.00
C1124  C     0.46839   0.33029   0.70837   0.00000  Uiso   1.00
C1125  C     0.49104   0.36869   0.73368   0.00000  Uiso   1.00
C1126  C     0.46844   0.16969   0.95829   0.00000  Uiso   1.00
C1127  C     0.49112   0.13131   0.93298   0.00000  Uiso   1.00
C1128  C     0.00727   0.16275   0.71480   0.00000  Uiso   1.00
C1129  C     0.05121   0.14290   0.71029   0.00000  Uiso   1.00
C1130  C     0.00725   0.33725   0.95187   0.00000  Uiso   1.00
C1131  C     0.05118   0.35712   0.95639   0.00000  Uiso   1.00
C1132  C     0.25727   0.08725   0.71480   0.00000  Uiso   1.00
C1133  C     0.31232   0.44310   0.83278   0.00000  Uiso   1.00
C1134  C     0.30120   0.10711   0.71028   0.00000  Uiso   1.00
C1135  C     0.25725   0.41275   0.95186   0.00000  Uiso   1.00
C1136  C     0.30119   0.39288   0.95639   0.00000  Uiso   1.00
C1137  C     0.21840   0.41971   0.70837   0.00000  Uiso   1.00
C1138  C     0.24107   0.38131   0.73369   0.00000  Uiso   1.00
C1139  C     0.21842   0.08030   0.95829   0.00000  Uiso   1.00
C1140  C     0.24109   0.11869   0.93298   0.00000  Uiso   1.00
C1141  C     0.18774   0.05703   0.83289   0.00000  Uiso   1.00
C1142  C     0.18774   0.44297   0.83378   0.00000  Uiso   1.00
C1143  C     0.31232   0.05690   0.83388   0.00000  Uiso   1.00
C1144  C     0.49511   0.29082   0.68996   0.00000  Uiso   1.00
H1145  H     0.00629   0.35560   0.76374   0.00000  Uiso   1.00
H1146  H     0.44228   0.18438   0.94009   0.00000  Uiso   1.00
H1147  H     0.07432   0.17080   0.70416   0.00000  Uiso   1.00
H1148  H     0.05947   0.12394   0.74102   0.00000  Uiso   1.00
H1149  H     0.05273   0.11749   0.68288   0.00000  Uiso   1.00
H1150  H     0.00013   0.16649   0.74976   0.00000  Uiso   1.00
H1151  H     0.48533   0.13510   0.70470   0.00000  Uiso   1.00
H1152  H     0.07431   0.32922   0.96252   0.00000  Uiso   1.00
H1153  H     0.05944   0.37609   0.92567   0.00000  Uiso   1.00
H1154  H     0.05269   0.38252   0.98381   0.00000  Uiso   1.00
H1155  H     0.00012   0.33351   0.91690   0.00000  Uiso   1.00
H1156  H     0.01443   0.38626   0.71248   0.00000  Uiso   1.00
H1157  H     0.48530   0.36489   0.96197   0.00000  Uiso   1.00
H1158  H     0.30947   0.12606   0.74101   0.00000  Uiso   1.00
H1159  H     0.32432   0.07921   0.70414   0.00000  Uiso   1.00
H1160  H     0.30271   0.13252   0.68287   0.00000  Uiso   1.00
H1161  H     0.23532   0.11489   0.70470   0.00000  Uiso   1.00
H1162  H     0.25013   0.08351   0.74977   0.00000  Uiso   1.00
H1163  H     0.30945   0.37392   0.92566   0.00000  Uiso   1.00
H1164  H     0.32431   0.42078   0.96252   0.00000  Uiso   1.00
H1165  H     0.30269   0.36747   0.98380   0.00000  Uiso   1.00
H1166  H     0.23530   0.38511   0.96196   0.00000  Uiso   1.00
H1167  H     0.46769   0.39522   0.74418   0.00000  Uiso   1.00
H1168  H     0.25012   0.41649   0.91690   0.00000  Uiso   1.00
H1169  H     0.26451   0.36381   0.71251   0.00000  Uiso   1.00
H1170  H     0.25624   0.39439   0.76379   0.00000  Uiso   1.00
H1171  H     0.21773   0.35473   0.74411   0.00000  Uiso   1.00
H1172  H     0.19226   0.43442   0.72657   0.00000  Uiso   1.00
H1173  H     0.19974   0.40243   0.68270   0.00000  Uiso   1.00
H1174  H     0.26455   0.13617   0.95415   0.00000  Uiso   1.00
H1175  H     0.25625   0.10562   0.90286   0.00000  Uiso   1.00
H1176  H     0.21776   0.14529   0.92257   0.00000  Uiso   1.00
H1177  H     0.19227   0.06559   0.94009   0.00000  Uiso   1.00
H1178  H     0.44972   0.34755   0.68270   0.00000  Uiso   1.00
H1179  H     0.19975   0.09758   0.98396   0.00000  Uiso   1.00
H1180  H     0.44225   0.31556   0.72657   0.00000  Uiso   1.00
H1181  H     0.00620   0.14437   0.90280   0.00000  Uiso   1.00
H1182  H     0.01466   0.11390   0.95411   0.00000  Uiso   1.00
H1183  H     0.46782   0.10464   0.92265   0.00000  Uiso   1.00
H1184  H     0.44977   0.15240   0.98395   0.00000  Uiso   1.00
I1185  I     0.39904   0.16063   0.72817   0.00000  Uiso   1.00
I1186  I     0.35030   0.08899   0.93955   0.00000  Uiso   1.00
I1187  I     0.38786   0.03630   0.75602   0.00000  Uiso   1.00
I1188  I     0.14901   0.41066   0.93849   0.00000  Uiso   1.00
I1189  I     0.38786   0.46368   0.91065   0.00000  Uiso   1.00
I1190  I     0.14903   0.08938   0.72818   0.00000  Uiso   1.00
I1191  I     0.11213   0.03777   0.91185   0.00000  Uiso   1.00
I1192  I     0.35029   0.41098   0.72712   0.00000  Uiso   1.00
I1193  I     0.13786   0.28633   0.91064   0.00000  Uiso   1.00
I1194  I     0.10027   0.33903   0.72712   0.00000  Uiso   1.00
I1195  I     0.36214   0.21224   0.91185   0.00000  Uiso   1.00
I1196  I     0.10033   0.16103   0.93955   0.00000  Uiso   1.00
I1197  I     0.36211   0.28773   0.75484   0.00000  Uiso   1.00
I1198  I     0.39901   0.33935   0.93849   0.00000  Uiso   1.00
I1199  I     0.13787   0.21371   0.75603   0.00000  Uiso   1.00
I1200  I     0.11212   0.46227   0.75483   0.00000  Uiso   1.00
N1201  N     0.00000   0.25000   0.95240   0.00000  Uiso   1.00
N1202  N     0.00000   0.25000   0.71427   0.00000  Uiso   1.00
N1203  N     0.25000   0.00000   0.95240   0.00000  Uiso   1.00
N1204  N     0.25000   0.00000   0.71427   0.00000  Uiso   1.00
O1205  O     0.04580   0.20419   0.87154   0.00000  Uiso   1.00
O1206  O     0.20419   0.04581   0.79513   0.00000  Uiso   1.00
O1207  O     0.20419   0.04581   0.87154   0.00000  Uiso   1.00
O1208  O     0.29580   0.45419   0.79513   0.00000  Uiso   1.00
O1209  O     0.20419   0.45419   0.79513   0.00000  Uiso   1.00
O1210  O     0.29580   0.04581   0.87154   0.00000  Uiso   1.00
O1211  O     0.29580   0.04581   0.79513   0.00000  Uiso   1.00
O1212  O     0.20419   0.45419   0.87154   0.00000  Uiso   1.00
O1213  O     0.45419   0.29581   0.79513   0.00000  Uiso   1.00
O1214  O     0.45419   0.29581   0.87154   0.00000  Uiso   1.00
O1215  O     0.04580   0.20419   0.79513   0.00000  Uiso   1.00
O1216  O     0.45419   0.20419   0.79513   0.00000  Uiso   1.00
O1217  O     0.04580   0.29581   0.87154   0.00000  Uiso   1.00
O1218  O     0.04580   0.29581   0.79513   0.00000  Uiso   1.00
O1219  O     0.45419   0.20419   0.87154   0.00000  Uiso   1.00
O1220  O     0.29580   0.45419   0.87154   0.00000  Uiso   1.00
Zn1221 Zn    0.00000   0.25000   0.88437   0.00000  Uiso   1.00
Zn1222 Zn    0.00000   0.25000   0.78229   0.00000  Uiso   1.00
Zn1223 Zn    0.25000   0.00000   0.88437   0.00000  Uiso   1.00
Zn1224 Zn    0.25000   0.00000   0.78229   0.00000  Uiso   1.00
C1225  C     0.56232   0.19310   0.83388   0.00000  Uiso   1.00
C1226  C     0.99512   0.20918   0.97670   0.00000  Uiso   1.00
C1227  C     0.50184   0.20897   0.69054   0.00000  Uiso   1.00
C1228  C     0.50183   0.29103   0.97613   0.00000  Uiso   1.00
C1229  C     0.75184   0.04103   0.69054   0.00000  Uiso   1.00
C1230  C     0.75183   0.45897   0.97613   0.00000  Uiso   1.00
C1231  C     0.74511   0.45918   0.68996   0.00000  Uiso   1.00
C1232  C     0.74511   0.04082   0.97671   0.00000  Uiso   1.00
C1233  C     0.89505   0.13433   0.79369   0.00000  Uiso   1.00
C1234  C     0.62289   0.34335   0.86842   0.00000  Uiso   1.00
C1235  C     0.60565   0.36467   0.79289   0.00000  Uiso   1.00
C1236  C     0.93774   0.30703   0.83378   0.00000  Uiso   1.00
C1237  C     0.87793   0.15558   0.86935   0.00000  Uiso   1.00
C1238  C     0.60567   0.13536   0.87378   0.00000  Uiso   1.00
C1239  C     0.87792   0.34441   0.79732   0.00000  Uiso   1.00
C1240  C     0.89504   0.36566   0.87297   0.00000  Uiso   1.00
C1241  C     0.62291   0.15667   0.79825   0.00000  Uiso   1.00
C1242  C     0.62792   0.40560   0.79732   0.00000  Uiso   1.00
C1243  C     0.85567   0.11465   0.87378   0.00000  Uiso   1.00
C1244  C     0.87290   0.09334   0.79825   0.00000  Uiso   1.00
C1245  C     0.64503   0.38435   0.87297   0.00000  Uiso   1.00
C1246  C     0.87290   0.40665   0.86842   0.00000  Uiso   1.00
C1247  C     0.93774   0.19297   0.83288   0.00000  Uiso   1.00
C1248  C     0.64505   0.11567   0.79370   0.00000  Uiso   1.00
C1249  C     0.62793   0.09443   0.86935   0.00000  Uiso   1.00
C1250  C     0.85566   0.38534   0.79289   0.00000  Uiso   1.00
C1251  C     0.59909   0.33648   0.83042   0.00000  Uiso   1.00
C1252  C     0.90135   0.16280   0.83103   0.00000  Uiso   1.00
C1253  C     0.90134   0.33719   0.83563   0.00000  Uiso   1.00
C1254  C     0.59911   0.16355   0.83625   0.00000  Uiso   1.00
C1255  C     0.84910   0.08646   0.83625   0.00000  Uiso   1.00
C1256  C     0.65134   0.41282   0.83563   0.00000  Uiso   1.00
C1257  C     0.65135   0.08720   0.83104   0.00000  Uiso   1.00
C1258  C     0.56232   0.30691   0.83278   0.00000  Uiso   1.00
C1259  C     0.84910   0.41353   0.83042   0.00000  Uiso   1.00
C1260  C     0.96839   0.33029   0.70837   0.00000  Uiso   1.00
C1261  C     0.99104   0.36869   0.73368   0.00000  Uiso   1.00
C1262  C     0.96844   0.16969   0.95829   0.00000  Uiso   1.00
C1263  C     0.99112   0.13131   0.93298   0.00000  Uiso   1.00
C1264  C     0.50727   0.16275   0.71480   0.00000  Uiso   1.00
C1265  C     0.55121   0.14290   0.71029   0.00000  Uiso   1.00
C1266  C     0.50725   0.33725   0.95187   0.00000  Uiso   1.00
C1267  C     0.55118   0.35712   0.95639   0.00000  Uiso   1.00
C1268  C     0.75727   0.08725   0.71480   0.00000  Uiso   1.00
C1269  C     0.81232   0.44310   0.83278   0.00000  Uiso   1.00
C1270  C     0.80120   0.10711   0.71028   0.00000  Uiso   1.00
C1271  C     0.75725   0.41275   0.95186   0.00000  Uiso   1.00
C1272  C     0.80119   0.39288   0.95639   0.00000  Uiso   1.00
C1273  C     0.71840   0.41971   0.70837   0.00000  Uiso   1.00
C1274  C     0.74107   0.38131   0.73369   0.00000  Uiso   1.00
C1275  C     0.71842   0.08030   0.95829   0.00000  Uiso   1.00
C1276  C     0.74109   0.11869   0.93298   0.00000  Uiso   1.00
C1277  C     0.68774   0.05703   0.83289   0.00000  Uiso   1.00
C1278  C     0.68774   0.44297   0.83378   0.00000  Uiso   1.00
C1279  C     0.81232   0.05690   0.83388   0.00000  Uiso   1.00
C1280  C     0.99511   0.29082   0.68996   0.00000  Uiso   1.00
H1281  H     0.50629   0.35560   0.76374   0.00000  Uiso   1.00
H1282  H     0.94228   0.18438   0.94009   0.00000  Uiso   1.00
H1283  H     0.57432   0.17080   0.70416   0.00000  Uiso   1.00
H1284  H     0.55947   0.12394   0.74102   0.00000  Uiso   1.00
H1285  H     0.55273   0.11749   0.68288   0.00000  Uiso   1.00
H1286  H     0.50013   0.16649   0.74976   0.00000  Uiso   1.00
H1287  H     0.98533   0.13510   0.70470   0.00000  Uiso   1.00
H1288  H     0.57431   0.32922   0.96252   0.00000  Uiso   1.00
H1289  H     0.55944   0.37609   0.92567   0.00000  Uiso   1.00
H1290  H     0.55269   0.38252   0.98381   0.00000  Uiso   1.00
H1291  H     0.50012   0.33351   0.91690   0.00000  Uiso   1.00
H1292  H     0.51443   0.38626   0.71248   0.00000  Uiso   1.00
H1293  H     0.98530   0.36489   0.96197   0.00000  Uiso   1.00
H1294  H     0.80947   0.12606   0.74101   0.00000  Uiso   1.00
H1295  H     0.82432   0.07921   0.70414   0.00000  Uiso   1.00
H1296  H     0.80271   0.13252   0.68287   0.00000  Uiso   1.00
H1297  H     0.73532   0.11489   0.70470   0.00000  Uiso   1.00
H1298  H     0.75013   0.08351   0.74977   0.00000  Uiso   1.00
H1299  H     0.80945   0.37392   0.92566   0.00000  Uiso   1.00
H1300  H     0.82431   0.42078   0.96252   0.00000  Uiso   1.00
H1301  H     0.80269   0.36747   0.98380   0.00000  Uiso   1.00
H1302  H     0.73530   0.38511   0.96196   0.00000  Uiso   1.00
H1303  H     0.96769   0.39522   0.74418   0.00000  Uiso   1.00
H1304  H     0.75012   0.41649   0.91690   0.00000  Uiso   1.00
H1305  H     0.76451   0.36381   0.71251   0.00000  Uiso   1.00
H1306  H     0.75624   0.39439   0.76379   0.00000  Uiso   1.00
H1307  H     0.71773   0.35473   0.74411   0.00000  Uiso   1.00
H1308  H     0.69226   0.43442   0.72657   0.00000  Uiso   1.00
H1309  H     0.69974   0.40243   0.68270   0.00000  Uiso   1.00
H1310  H     0.76455   0.13617   0.95415   0.00000  Uiso   1.00
H1311  H     0.75625   0.10562   0.90286   0.00000  Uiso   1.00
H1312  H     0.71776   0.14529   0.92257   0.00000  Uiso   1.00
H1313  H     0.69227   0.06559   0.94009   0.00000  Uiso   1.00
H1314  H     0.94972   0.34755   0.68270   0.00000  Uiso   1.00
H1315  H     0.69975   0.09758   0.98396   0.00000  Uiso   1.00
H1316  H     0.94225   0.31556   0.72657   0.00000  Uiso   1.00
H1317  H     0.50620   0.14437   0.90280   0.00000  Uiso   1.00
H1318  H     0.51466   0.11390   0.95411   0.00000  Uiso   1.00
H1319  H     0.96782   0.10464   0.92265   0.00000  Uiso   1.00
H1320  H     0.94977   0.15240   0.98395   0.00000  Uiso   1.00
I1321  I     0.89904   0.16063   0.72817   0.00000  Uiso   1.00
I1322  I     0.85030   0.08899   0.93955   0.00000  Uiso   1.00
I1323  I     0.88786   0.03630   0.75602   0.00000  Uiso   1.00
I1324  I     0.64901   0.41066   0.93849   0.00000  Uiso   1.00
I1325  I     0.88786   0.46368   0.91065   0.00000  Uiso   1.00
I1326  I     0.64903   0.08938   0.72818   0.00000  Uiso   1.00
I1327  I     0.61213   0.03777   0.91185   0.00000  Uiso   1.00
I1328  I     0.85029   0.41098   0.72712   0.00000  Uiso   1.00
I1329  I     0.63786   0.28633   0.91064   0.00000  Uiso   1.00
I1330  I     0.60027   0.33903   0.72712   0.00000  Uiso   1.00
I1331  I     0.86214   0.21224   0.91185   0.00000  Uiso   1.00
I1332  I     0.60033   0.16103   0.93955   0.00000  Uiso   1.00
I1333  I     0.86211   0.28773   0.75484   0.00000  Uiso   1.00
I1334  I     0.89901   0.33935   0.93849   0.00000  Uiso   1.00
I1335  I     0.63787   0.21371   0.75603   0.00000  Uiso   1.00
I1336  I     0.61212   0.46227   0.75483   0.00000  Uiso   1.00
N1337  N     0.50000   0.25000   0.95240   0.00000  Uiso   1.00
N1338  N     0.50000   0.25000   0.71427   0.00000  Uiso   1.00
N1339  N     0.75000   0.00000   0.95240   0.00000  Uiso   1.00
N1340  N     0.75000   0.00000   0.71427   0.00000  Uiso   1.00
O1341  O     0.54580   0.20419   0.87154   0.00000  Uiso   1.00
O1342  O     0.70419   0.04581   0.79513   0.00000  Uiso   1.00
O1343  O     0.70419   0.04581   0.87154   0.00000  Uiso   1.00
O1344  O     0.79580   0.45419   0.79513   0.00000  Uiso   1.00
O1345  O     0.70419   0.45419   0.79513   0.00000  Uiso   1.00
O1346  O     0.79580   0.04581   0.87154   0.00000  Uiso   1.00
O1347  O     0.79580   0.04581   0.79513   0.00000  Uiso   1.00
O1348  O     0.70419   0.45419   0.87154   0.00000  Uiso   1.00
O1349  O     0.95419   0.29581   0.79513   0.00000  Uiso   1.00
O1350  O     0.95419   0.29581   0.87154   0.00000  Uiso   1.00
O1351  O     0.54580   0.20419   0.79513   0.00000  Uiso   1.00
O1352  O     0.95419   0.20419   0.79513   0.00000  Uiso   1.00
O1353  O     0.54580   0.29581   0.87154   0.00000  Uiso   1.00
O1354  O     0.54580   0.29581   0.79513   0.00000  Uiso   1.00
O1355  O     0.95419   0.20419   0.87154   0.00000  Uiso   1.00
O1356  O     0.79580   0.45419   0.87154   0.00000  Uiso   1.00
Zn1357 Zn    0.50000   0.25000   0.88437   0.00000  Uiso   1.00
Zn1358 Zn    0.50000   0.25000   0.78229   0.00000  Uiso   1.00
Zn1359 Zn    0.75000   0.00000   0.88437   0.00000  Uiso   1.00
Zn1360 Zn    0.75000   0.00000   0.78229   0.00000  Uiso   1.00
C1361  C     0.06232   0.69310   0.83388   0.00000  Uiso   1.00
C1362  C     0.49512   0.70918   0.97670   0.00000  Uiso   1.00
C1363  C     0.00184   0.70897   0.69054   0.00000  Uiso   1.00
C1364  C     0.00183   0.79103   0.97613   0.00000  Uiso   1.00
C1365  C     0.25184   0.54103   0.69054   0.00000  Uiso   1.00
C1366  C     0.25183   0.95897   0.97613   0.00000  Uiso   1.00
C1367  C     0.24511   0.95918   0.68996   0.00000  Uiso   1.00
C1368  C     0.24511   0.54082   0.97671   0.00000  Uiso   1.00
C1369  C     0.39505   0.63433   0.79369   0.00000  Uiso   1.00
C1370  C     0.12289   0.84335   0.86842   0.00000  Uiso   1.00
C1371  C     0.10565   0.86467   0.79289   0.00000  Uiso   1.00
C1372  C     0.43774   0.80703   0.83378   0.00000  Uiso   1.00
C1373  C     0.37793   0.65558   0.86935   0.00000  Uiso   1.00
C1374  C     0.10567   0.63536   0.87378   0.00000  Uiso   1.00
C1375  C     0.37792   0.84441   0.79732   0.00000  Uiso   1.00
C1376  C     0.39504   0.86566   0.87297   0.00000  Uiso   1.00
C1377  C     0.12291   0.65667   0.79825   0.00000  Uiso   1.00
C1378  C     0.12792   0.90560   0.79732   0.00000  Uiso   1.00
C1379  C     0.35567   0.61465   0.87378   0.00000  Uiso   1.00
C1380  C     0.37290   0.59334   0.79825   0.00000  Uiso   1.00
C1381  C     0.14503   0.88435   0.87297   0.00000  Uiso   1.00
C1382  C     0.37290   0.90665   0.86842   0.00000  Uiso   1.00
C1383  C     0.43774   0.69297   0.83288   0.00000  Uiso   1.00
C1384  C     0.14505   0.61567   0.79370   0.00000  Uiso   1.00
C1385  C     0.12793   0.59443   0.86935   0.00000  Uiso   1.00
C1386  C     0.35566   0.88534   0.79289   0.00000  Uiso   1.00
C1387  C     0.09909   0.83648   0.83042   0.00000  Uiso   1.00
C1388  C     0.40135   0.66280   0.83103   0.00000  Uiso   1.00
C1389  C     0.40134   0.83719   0.83563   0.00000  Uiso   1.00
C1390  C     0.09911   0.66355   0.83625   0.00000  Uiso   1.00
C1391  C     0.34910   0.58646   0.83625   0.00000  Uiso   1.00
C1392  C     0.15134   0.91282   0.83563   0.00000  Uiso   1.00
C1393  C     0.15135   0.58720   0.83104   0.00000  Uiso   1.00
C1394  C     0.06232   0.80691   0.83278   0.00000  Uiso   1.00
C1395  C     0.34910   0.91353   0.83042   0.00000  Uiso   1.00
C1396  C     0.46839   0.83029   0.70837   0.00000  Uiso   1.00
C1397  C     0.49104   0.86869   0.73368   0.00000  Uiso   1.00
C1398  C     0.46844   0.66969   0.95829   0.00000  Uiso   1.00
C1399  C     0.49112   0.63131   0.93298   0.00000  Uiso   1.00
C1400  C     0.00727   0.66275   0.71480   0.00000  Uiso   1.00
C1401  C     0.05121   0.64290   0.71029   0.00000  Uiso   1.00
C1402  C     0.00725   0.83725   0.95187   0.00000  Uiso   1.00
C1403  C     0.05118   0.85712   0.95639   0.00000  Uiso   1.00
C1404  C     0.25727   0.58725   0.71480   0.00000  Uiso   1.00
C1405  C     0.31232   0.94310   0.83278   0.00000  Uiso   1.00
C1406  C     0.30120   0.60711   0.71028   0.00000  Uiso   1.00
C1407  C     0.25725   0.91275   0.95186   0.00000  Uiso   1.00
C1408  C     0.30119   0.89288   0.95639   0.00000  Uiso   1.00
C1409  C     0.21840   0.91971   0.70837   0.00000  Uiso   1.00
C1410  C     0.24107   0.88131   0.73369   0.00000  Uiso   1.00
C1411  C     0.21842   0.58030   0.95829   0.00000  Uiso   1.00
C1412  C     0.24109   0.61869   0.93298   0.00000  Uiso   1.00
C1413  C     0.18774   0.55703   0.83289   0.00000  Uiso   1.00
C1414  C     0.18774   0.94297   0.83378   0.00000  Uiso   1.00
C1415  C     0.31232   0.55690   0.83388   0.00000  Uiso   1.00
C1416  C     0.49511   0.79082   0.68996   0.00000  Uiso   1.00
H1417  H     0.00629   0.85560   0.76374   0.00000  Uiso   1.00
H1418  H     0.44228   0.68438   0.94009   0.00000  Uiso   1.00
H1419  H     0.07432   0.67080   0.70416   0.00000  Uiso   1.00
H1420  H     0.05947   0.62394   0.74102   0.00000  Uiso   1.00
H1421  H     0.05273   0.61749   0.68288   0.00000  Uiso   1.00
H1422  H     0.00013   0.66649   0.74976   0.00000  Uiso   1.00
H1423  H     0.48533   0.63510   0.70470   0.00000  Uiso   1.00
H1424  H     0.07431   0.82922   0.96252   0.00000  Uiso   1.00
H1425  H     0.05944   0.87609   0.92567   0.00000  Uiso   1.00
H1426  H     0.05269   0.88252   0.98381   0.00000  Uiso   1.00
H1427  H     0.00012   0.83351   0.91690   0.00000  Uiso   1.00
H1428  H     0.01443   0.88626   0.71248   0.00000  Uiso   1.00
H1429  H     0.48530   0.86489   0.96197   0.00000  Uiso   1.00
H1430  H     0.30947   0.62606   0.74101   0.00000  Uiso   1.00
H1431  H     0.32432   0.57921   0.70414   0.00000  Uiso   1.00
H1432  H     0.30271   0.63252   0.68287   0.00000  Uiso   1.00
H1433  H     0.23532   0.61489   0.70470   0.00000  Uiso   1.00
H1434  H     0.25013   0.58351   0.74977   0.00000  Uiso   1.00
H1435  H     0.30945   0.87392   0.92566   0.00000  Uiso   1.00
H1436  H     0.32431   0.92078   0.96252   0.00000  Uiso   1.00
H1437  H     0.30269   0.86747   0.98380   0.00000  Uiso   1.00
H1438  H     0.23530   0.88511   0.96196   0.00000  Uiso   1.00
H1439  H     0.46769   0.89522   0.74418   0.00000  Uiso   1.00
H1440  H     0.25012   0.91649   0.91690   0.00000  Uiso   1.00
H1441  H     0.26451   0.86381   0.71251   0.00000  Uiso   1.00
H1442  H     0.25624   0.89439   0.76379   0.00000  Uiso   1.00
H1443  H     0.21773   0.85473   0.74411   0.00000  Uiso   1.00
H1444  H     0.19226   0.93442   0.72657   0.00000  Uiso   1.00
H1445  H     0.19974   0.90243   0.68270   0.00000  Uiso   1.00
H1446  H     0.26455   0.63617   0.95415   0.00000  Uiso   1.00
H1447  H     0.25625   0.60562   0.90286   0.00000  Uiso   1.00
H1448  H     0.21776   0.64529   0.92257   0.00000  Uiso   1.00
H1449  H     0.19227   0.56559   0.94009   0.00000  Uiso   1.00
H1450  H     0.44972   0.84755   0.68270   0.00000  Uiso   1.00
H1451  H     0.19975   0.59758   0.98396   0.00000  Uiso   1.00
H1452  H     0.44225   0.81556   0.72657   0.00000  Uiso   1.00
H1453  H     0.00620   0.64437   0.90280   0.00000  Uiso   1.00
H1454  H     0.01466   0.61390   0.95411   0.00000  Uiso   1.00
H1455  H     0.46782   0.60464   0.92265   0.00000  Uiso   1.00
H1456  H     0.44977   0.65240   0.98395   0.00000  Uiso   1.00
I1457  I     0.39904   0.66063   0.72817   0.00000  Uiso   1.00
I1458  I     0.35030   0.58899   0.93955   0.00000  Uiso   1.00
I1459  I     0.38786   0.53630   0.75602   0.00000  Uiso   1.00
I1460  I     0.14901   0.91066   0.93849   0.00000  Uiso   1.00
I1461  I     0.38786   0.96368   0.91065   0.00000  Uiso   1.00
I1462  I     0.14903   0.58938   0.72818   0.00000  Uiso   1.00
I1463  I     0.11213   0.53777   0.91185   0.00000  Uiso   1.00
I1464  I     0.35029   0.91098   0.72712   0.00000  Uiso   1.00
I1465  I     0.13786   0.78633   0.91064   0.00000  Uiso   1.00
I1466  I     0.10027   0.83903   0.72712   0.00000  Uiso   1.00
I1467  I     0.36214   0.71224   0.91185   0.00000  Uiso   1.00
I1468  I     0.10033   0.66103   0.93955   0.00000  Uiso   1.00
I1469  I     0.36211   0.78773   0.75484   0.00000  Uiso   1.00
I1470  I     0.39901   0.83935   0.93849   0.00000  Uiso   1.00
I1471  I     0.13787   0.71371   0.75603   0.00000  Uiso   1.00
I1472  I     0.11212   0.96227   0.75483   0.00000  Uiso   1.00
N1473  N     0.00000   0.75000   0.95240   0.00000  Uiso   1.00
N1474  N     0.00000   0.75000   0.71427   0.00000  Uiso   1.00
N1475  N     0.25000   0.50000   0.95240   0.00000  Uiso   1.00
N1476  N     0.25000   0.50000   0.71427   0.00000  Uiso   1.00
O1477  O     0.04580   0.70419   0.87154   0.00000  Uiso   1.00
O1478  O     0.20419   0.54581   0.79513   0.00000  Uiso   1.00
O1479  O     0.20419   0.54581   0.87154   0.00000  Uiso   1.00
O1480  O     0.29580   0.95419   0.79513   0.00000  Uiso   1.00
O1481  O     0.20419   0.95419   0.79513   0.00000  Uiso   1.00
O1482  O     0.29580   0.54581   0.87154   0.00000  Uiso   1.00
O1483  O     0.29580   0.54581   0.79513   0.00000  Uiso   1.00
O1484  O     0.20419   0.95419   0.87154   0.00000  Uiso   1.00
O1485  O     0.45419   0.79581   0.79513   0.00000  Uiso   1.00
O1486  O     0.45419   0.79581   0.87154   0.00000  Uiso   1.00
O1487  O     0.04580   0.70419   0.79513   0.00000  Uiso   1.00
O1488  O     0.45419   0.70419   0.79513   0.00000  Uiso   1.00
O1489  O     0.04580   0.79581   0.87154   0.00000  Uiso   1.00
O1490  O     0.04580   0.79581   0.79513   0.00000  Uiso   1.00
O1491  O     0.45419   0.70419   0.87154   0.00000  Uiso   1.00
O1492  O     0.29580   0.95419   0.87154   0.00000  Uiso   1.00
Zn1493 Zn    0.00000   0.75000   0.88437   0.00000  Uiso   1.00
Zn1494 Zn    0.00000   0.75000   0.78229   0.00000  Uiso   1.00
Zn1495 Zn    0.25000   0.50000   0.88437   0.00000  Uiso   1.00
Zn1496 Zn    0.25000   0.50000   0.78229   0.00000  Uiso   1.00
C1497  C     0.56232   0.69310   0.83388   0.00000  Uiso   1.00
C1498  C     0.99512   0.70918   0.97670   0.00000  Uiso   1.00
C1499  C     0.50184   0.70897   0.69054   0.00000  Uiso   1.00
C1500  C     0.50183   0.79103   0.97613   0.00000  Uiso   1.00
C1501  C     0.75184   0.54103   0.69054   0.00000  Uiso   1.00
C1502  C     0.75183   0.95897   0.97613   0.00000  Uiso   1.00
C1503  C     0.74511   0.95918   0.68996   0.00000  Uiso   1.00
C1504  C     0.74511   0.54082   0.97671   0.00000  Uiso   1.00
C1505  C     0.89505   0.63433   0.79369   0.00000  Uiso   1.00
C1506  C     0.62289   0.84335   0.86842   0.00000  Uiso   1.00
C1507  C     0.60565   0.86467   0.79289   0.00000  Uiso   1.00
C1508  C     0.93774   0.80703   0.83378   0.00000  Uiso   1.00
C1509  C     0.87793   0.65558   0.86935   0.00000  Uiso   1.00
C1510  C     0.60567   0.63536   0.87378   0.00000  Uiso   1.00
C1511  C     0.87792   0.84441   0.79732   0.00000  Uiso   1.00
C1512  C     0.89504   0.86566   0.87297   0.00000  Uiso   1.00
C1513  C     0.62291   0.65667   0.79825   0.00000  Uiso   1.00
C1514  C     0.62792   0.90560   0.79732   0.00000  Uiso   1.00
C1515  C     0.85567   0.61465   0.87378   0.00000  Uiso   1.00
C1516  C     0.87290   0.59334   0.79825   0.00000  Uiso   1.00
C1517  C     0.64503   0.88435   0.87297   0.00000  Uiso   1.00
C1518  C     0.87290   0.90665   0.86842   0.00000  Uiso   1.00
C1519  C     0.93774   0.69297   0.83288   0.00000  Uiso   1.00
C1520  C     0.64505   0.61567   0.79370   0.00000  Uiso   1.00
C1521  C     0.62793   0.59443   0.86935   0.00000  Uiso   1.00
C1522  C     0.85566   0.88534   0.79289   0.00000  Uiso   1.00
C1523  C     0.59909   0.83648   0.83042   0.00000  Uiso   1.00
C1524  C     0.90135   0.66280   0.83103   0.00000  Uiso   1.00
C1525  C     0.90134   0.83719   0.83563   0.00000  Uiso   1.00
C1526  C     0.59911   0.66355   0.83625   0.00000  Uiso   1.00
C1527  C     0.84910   0.58646   0.83625   0.00000  Uiso   1.00
C1528  C     0.65134   0.91282   0.83563   0.00000  Uiso   1.00
C1529  C     0.65135   0.58720   0.83104   0.00000  Uiso   1.00
C1530  C     0.56232   0.80691   0.83278   0.00000  Uiso   1.00
C1531  C     0.84910   0.91353   0.83042   0.00000  Uiso   1.00
C1532  C     0.96839   0.83029   0.70837   0.00000  Uiso   1.00
C1533  C     0.99104   0.86869   0.73368   0.00000  Uiso   1.00
C1534  C     0.96844   0.66969   0.95829   0.00000  Uiso   1.00
C1535  C     0.99112   0.63131   0.93298   0.00000  Uiso   1.00
C1536  C     0.50727   0.66275   0.71480   0.00000  Uiso   1.00
C1537  C     0.55121   0.64290   0.71029   0.00000  Uiso   1.00
C1538  C     0.50725   0.83725   0.95187   0.00000  Uiso   1.00
C1539  C     0.55118   0.85712   0.95639   0.00000  Uiso   1.00
C1540  C     0.75727   0.58725   0.71480   0.00000  Uiso   1.00
C1541  C     0.81232   0.94310   0.83278   0.00000  Uiso   1.00
C1542  C     0.80120   0.60711   0.71028   0.00000  Uiso   1.00
C1543  C     0.75725   0.91275   0.95186   0.00000  Uiso   1.00
C1544  C     0.80119   0.89288   0.95639   0.00000  Uiso   1.00
C1545  C     0.71840   0.91971   0.70837   0.00000  Uiso   1.00
C1546  C     0.74107   0.88131   0.73369   0.00000  Uiso   1.00
C1547  C     0.71842   0.58030   0.95829   0.00000  Uiso   1.00
C1548  C     0.74109   0.61869   0.93298   0.00000  Uiso   1.00
C1549  C     0.68774   0.55703   0.83289   0.00000  Uiso   1.00
C1550  C     0.68774   0.94297   0.83378   0.00000  Uiso   1.00
C1551  C     0.81232   0.55690   0.83388   0.00000  Uiso   1.00
C1552  C     0.99511   0.79082   0.68996   0.00000  Uiso   1.00
H1553  H     0.50629   0.85560   0.76374   0.00000  Uiso   1.00
H1554  H     0.94228   0.68438   0.94009   0.00000  Uiso   1.00
H1555  H     0.57432   0.67080   0.70416   0.00000  Uiso   1.00
H1556  H     0.55947   0.62394   0.74102   0.00000  Uiso   1.00
H1557  H     0.55273   0.61749   0.68288   0.00000  Uiso   1.00
H1558  H     0.50013   0.66649   0.74976   0.00000  Uiso   1.00
H1559  H     0.98533   0.63510   0.70470   0.00000  Uiso   1.00
H1560  H     0.57431   0.82922   0.96252   0.00000  Uiso   1.00
H1561  H     0.55944   0.87609   0.92567   0.00000  Uiso   1.00
H1562  H     0.55269   0.88252   0.98381   0.00000  Uiso   1.00
H1563  H     0.50012   0.83351   0.91690   0.00000  Uiso   1.00
H1564  H     0.51443   0.88626   0.71248   0.00000  Uiso   1.00
H1565  H     0.98530   0.86489   0.96197   0.00000  Uiso   1.00
H1566  H     0.80947   0.62606   0.74101   0.00000  Uiso   1.00
H1567  H     0.82432   0.57921   0.70414   0.00000  Uiso   1.00
H1568  H     0.80271   0.63252   0.68287   0.00000  Uiso   1.00
H1569  H     0.73532   0.61489   0.70470   0.00000  Uiso   1.00
H1570  H     0.75013   0.58351   0.74977   0.00000  Uiso   1.00
H1571  H     0.80945   0.87392   0.92566   0.00000  Uiso   1.00
H1572  H     0.82431   0.92078   0.96252   0.00000  Uiso   1.00
H1573  H     0.80269   0.86747   0.98380   0.00000  Uiso   1.00
H1574  H     0.73530   0.88511   0.96196   0.00000  Uiso   1.00
H1575  H     0.96769   0.89522   0.74418   0.00000  Uiso   1.00
H1576  H     0.75012   0.91649   0.91690   0.00000  Uiso   1.00
H1577  H     0.76451   0.86381   0.71251   0.00000  Uiso   1.00
H1578  H     0.75624   0.89439   0.76379   0.00000  Uiso   1.00
H1579  H     0.71773   0.85473   0.74411   0.00000  Uiso   1.00
H1580  H     0.69226   0.93442   0.72657   0.00000  Uiso   1.00
H1581  H     0.69974   0.90243   0.68270   0.00000  Uiso   1.00
H1582  H     0.76455   0.63617   0.95415   0.00000  Uiso   1.00
H1583  H     0.75625   0.60562   0.90286   0.00000  Uiso   1.00
H1584  H     0.71776   0.64529   0.92257   0.00000  Uiso   1.00
H1585  H     0.69227   0.56559   0.94009   0.00000  Uiso   1.00
H1586  H     0.94972   0.84755   0.68270   0.00000  Uiso   1.00
H1587  H     0.69975   0.59758   0.98396   0.00000  Uiso   1.00
H1588  H     0.94225   0.81556   0.72657   0.00000  Uiso   1.00
H1589  H     0.50620   0.64437   0.90280   0.00000  Uiso   1.00
H1590  H     0.51466   0.61390   0.95411   0.00000  Uiso   1.00
H1591  H     0.96782   0.60464   0.92265   0.00000  Uiso   1.00
H1592  H     0.94977   0.65240   0.98395   0.00000  Uiso   1.00
I1593  I     0.89904   0.66063   0.72817   0.00000  Uiso   1.00
I1594  I     0.85030   0.58899   0.93955   0.00000  Uiso   1.00
I1595  I     0.88786   0.53630   0.75602   0.00000  Uiso   1.00
I1596  I     0.64901   0.91066   0.93849   0.00000  Uiso   1.00
I1597  I     0.88786   0.96368   0.91065   0.00000  Uiso   1.00
I1598  I     0.64903   0.58938   0.72818   0.00000  Uiso   1.00
I1599  I     0.61213   0.53777   0.91185   0.00000  Uiso   1.00
I1600  I     0.85029   0.91098   0.72712   0.00000  Uiso   1.00
I1601  I     0.63786   0.78633   0.91064   0.00000  Uiso   1.00
I1602  I     0.60027   0.83903   0.72712   0.00000  Uiso   1.00
I1603  I     0.86214   0.71224   0.91185   0.00000  Uiso   1.00
I1604  I     0.60033   0.66103   0.93955   0.00000  Uiso   1.00
I1605  I     0.86211   0.78773   0.75484   0.00000  Uiso   1.00
I1606  I     0.89901   0.83935   0.93849   0.00000  Uiso   1.00
I1607  I     0.63787   0.71371   0.75603   0.00000  Uiso   1.00
I1608  I     0.61212   0.96227   0.75483   0.00000  Uiso   1.00
N1609  N     0.50000   0.75000   0.95240   0.00000  Uiso   1.00
N1610  N     0.50000   0.75000   0.71427   0.00000  Uiso   1.00
N1611  N     0.75000   0.50000   0.95240   0.00000  Uiso   1.00
N1612  N     0.75000   0.50000   0.71427   0.00000  Uiso   1.00
O1613  O     0.54580   0.70419   0.87154   0.00000  Uiso   1.00
O1614  O     0.70419   0.54581   0.79513   0.00000  Uiso   1.00
O1615  O     0.70419   0.54581   0.87154   0.00000  Uiso   1.00
O1616  O     0.79580   0.95419   0.79513   0.00000  Uiso   1.00
O1617  O     0.70419   0.95419   0.79513   0.00000  Uiso   1.00
O1618  O     0.79580   0.54581   0.87154   0.00000  Uiso   1.00
O1619  O     0.79580   0.54581   0.79513   0.00000  Uiso   1.00
O1620  O     0.70419   0.95419   0.87154   0.00000  Uiso   1.00
O1621  O     0.95419   0.79581   0.79513   0.00000  Uiso   1.00
O1622  O     0.95419   0.79581   0.87154   0.00000  Uiso   1.00
O1623  O     0.54580   0.70419   0.79513   0.00000  Uiso   1.00
O1624  O     0.95419   0.70419   0.79513   0.00000  Uiso   1.00
O1625  O     0.54580   0.79581   0.87154   0.00000  Uiso   1.00
O1626  O     0.54580   0.79581   0.79513   0.00000  Uiso   1.00
O1627  O     0.95419   0.70419   0.87154   0.00000  Uiso   1.00
O1628  O     0.79580   0.95419   0.87154   0.00000  Uiso   1.00
Zn1629 Zn    0.50000   0.75000   0.88437   0.00000  Uiso   1.00
Zn1630 Zn    0.50000   0.75000   0.78229   0.00000  Uiso   1.00
Zn1631 Zn    0.75000   0.50000   0.88437   0.00000  Uiso   1.00
Zn1632 Zn    0.75000   0.50000   0.78229   0.00000  Uiso   1.00
loop_
_geom_bond_atom_site_label_1
_geom_bond_atom_site_label_2
_geom_bond_distance
_geom_bond_site_symmetry_2
_ccdc_geom_bond_type
C1     O117    1.295   .     A
C1     O127    1.324   .     A
C1     C30     1.447   .     S
C2     C38     1.523   .     S
C2     C683    1.443   .     S
C2     N249    1.393   .     S
C3     C40     1.527   .     S
C3     N114    1.382   .     A
C3     C1226   1.443   1_454 S
C4     N113    1.382   .     A
C4     C42     1.527   .     S
C4     C736    1.443   1_455 S
C5     C44     1.527   .     S
C5     N116    1.382   .     A
C5     C1096   1.443   1_554 S
C6     C47     1.527   .     S
C6     C551    1.443   .     S
C6     N387    1.382   .     S
C7     C49     1.523   .     S
C7     C1094   1.443   1_554 S
C7     N388    1.393   .     S
C8     N115    1.393   .     A
C8     C51     1.523   .     S
C8     C549    1.443   .     S
C9     I97     2.126   .     S
C9     C20     1.379   .     A
C9     C28     1.409   .     A
C10    C27     1.391   .     A
C10    C21     1.379   .     A
C10    I105    2.132   .     S
C11    C18     1.379   .     A
C11    C27     1.411   .     A
C11    I106    2.129   .     S
C12    C29     1.447   .     S
C12    O126    1.297   .     A
C12    O125    1.321   .     A
C13    I107    2.135   .     S
C13    C28     1.394   .     A
C13    C19     1.379   .     A
C14    I108    2.129   .     S
C14    C30     1.411   .     A
C14    C25     1.379   .     A
C15    I109    2.135   .     S
C15    C29     1.394   .     A
C15    C26     1.379   .     A
C16    I110    2.125   .     S
C16    C29     1.409   .     A
C16    C22     1.379   .     A
C17    C30     1.391   .     A
C17    I111    2.132   .     S
C17    C24     1.379   .     A
C18    I112    2.135   .     S
C18    C32     1.394   .     A
C19    C31     1.411   .     A
C19    I98     2.129   .     S
C20    I99     2.132   .     S
C20    C31     1.391   .     A
C21    C32     1.409   .     A
C21    I100    2.126   .     S
C22    C35     1.391   .     A
C22    I101    2.132   .     S
C23    O131    1.321   .     A
C23    C28     1.447   .     S
C23    O128    1.297   .     A
C24    C33     1.409   .     A
C24    I102    2.125   .     S
C25    I103    2.135   .     S
C25    C33     1.394   .     A
C26    I104    2.129   .     S
C26    C35     1.411   .     A
C27    C34     1.447   .     S
C31    C55     1.447   .     S
C32    C54     1.447   .     S
C33    C53     1.447   .     S
C34    O129    1.324   .     A
C34    O130    1.295   .     A
C35    C45     1.447   .     S
C36    C37     1.524   .     S
C36    H92     1.083   .     S
C36    C56     1.523   .     S
C36    H90     1.096   .     S
C37    H79     1.111   .     S
C37    H193    1.097   .     S
C37    H204    1.104   .     S
C38    C39     1.524   .     S
C38    H58     1.083   .     S
C38    H96     1.097   .     S
C39    H95     1.111   .     S
C39    H229    1.098   .     S
C39    H230    1.104   .     S
C40    H62     1.087   .     S
C40    C41     1.516   .     S
C40    H199    1.101   1_455 S
C41    H61     1.106   .     S
C41    H59     1.104   .     S
C41    H60     1.109   .     S
C42    H67     1.087   .     S
C42    C43     1.516   .     S
C42    H205    1.101   1_455 S
C43    H64     1.104   .     S
C43    H65     1.109   .     S
C43    H66     1.106   .     S
C44    C46     1.516   .     S
C44    H74     1.087   .     S
C44    H73     1.101   .     S
C45    O120    1.295   .     A
C45    O132    1.324   .     A
C46    H72     1.106   .     S
C46    H71     1.104   .     S
C46    H70     1.109   .     S
C47    H80     1.087   .     S
C47    C48     1.516   .     S
C47    H78     1.101   .     S
C48    H76     1.104   .     S
C48    H75     1.109   .     S
C48    H77     1.106   .     S
C49    H84     1.083   .     S
C49    H85     1.097   .     S
C49    C50     1.524   .     S
C50    H83     1.111   .     S
C50    H82     1.097   .     S
C50    H81     1.104   .     S
C51    H91     1.096   .     S
C51    C52     1.524   .     S
C51    H89     1.083   .     S
C52    H88     1.111   .     S
C52    H87     1.097   .     S
C52    H86     1.104   .     S
C53    O118    1.297   .     A
C53    O119    1.321   .     A
C54    O121    1.321   .     A
C54    O124    1.297   .     A
C55    O122    1.295   .     A
C55    O123    1.324   .     A
C56    C1228   1.443   1_554 S
C56    N250    1.393   .     S
H57    C173    1.097   1_455 S
H63    C176    1.101   .     S
H68    C173    1.104   1_455 S
H69    C178    1.101   .     S
H93    C175    1.098   1_455 S
H94    C175    1.104   1_455 S
N113   Zn133   2.058   .     S
N113   C138    1.393   1_455 S
N114   Zn134   2.058   .     S
N114   C192    1.393   1_455 S
N115   Zn135   2.058   .     S
N115   C278    1.382   1_545 S
N116   Zn136   2.058   .     S
N116   C279    1.393   1_545 S
O117   Zn133   2.002   .     S
O118   Zn136   2.002   .     S
O119   Zn135   2.002   .     S
O120   Zn408   2.002   .     S
O121   Zn408   2.002   .     S
O122   Zn135   2.002   .     S
O123   Zn136   2.002   .     S
O124   Zn407   2.002   .     S
O125   Zn270   2.002   .     S
O126   Zn269   2.002   .     S
O127   Zn134   2.002   .     S
O128   Zn270   2.002   .     S
O129   Zn133   2.002   .     S
O130   Zn134   2.002   .     S
O131   Zn269   2.002   .     S
O132   Zn407   2.002   .     S
Zn133  O262    2.002   1_455 S
Zn133  O267    2.002   1_455 S
Zn134  O261    2.002   1_455 S
Zn134  O264    2.002   1_455 S
Zn135  O396    2.002   1_545 S
Zn135  O404    2.002   1_545 S
Zn136  O393    2.002   1_545 S
Zn136  O392    2.002   1_545 S
C137   O253    1.295   .     A
C137   O263    1.324   .     A
C137   C166    1.447   .     S
C138   C174    1.523   .     S
C138   C547    1.443   1_655 S
C138   N113    1.393   1_655 S
C139   C176    1.527   .     S
C139   N250    1.382   .     A
C139   C1090   1.443   1_554 S
C140   N249    1.382   .     A
C140   C178    1.527   .     S
C140   C600    1.443   .     S
C141   C180    1.527   .     S
C141   N252    1.382   .     A
C141   C1232   1.443   1_554 S
C142   C183    1.527   .     S
C142   C687    1.443   .     S
C142   N523    1.382   .     S
C143   C185    1.523   .     S
C143   C1230   1.443   1_554 S
C143   N524    1.393   .     S
C144   N251    1.393   .     A
C144   C187    1.523   .     S
C144   C685    1.443   .     S
C145   I233    2.126   .     S
C145   C156    1.379   .     A
C145   C164    1.409   .     A
C146   C163    1.391   .     A
C146   C157    1.379   .     A
C146   I241    2.132   .     S
C147   C154    1.379   .     A
C147   C163    1.411   .     A
C147   I242    2.129   .     S
C148   C165    1.447   .     S
C148   O262    1.297   .     A
C148   O261    1.321   .     A
C149   I243    2.135   .     S
C149   C164    1.394   .     A
C149   C155    1.379   .     A
C150   I244    2.129   .     S
C150   C166    1.411   .     A
C150   C161    1.379   .     A
C151   I245    2.135   .     S
C151   C165    1.394   .     A
C151   C162    1.379   .     A
C152   I246    2.125   .     S
C152   C165    1.409   .     A
C152   C158    1.379   .     A
C153   C166    1.391   .     A
C153   I247    2.132   .     S
C153   C160    1.379   .     A
C154   I248    2.135   .     S
C154   C168    1.394   .     A
C155   C167    1.411   .     A
C155   I234    2.129   .     S
C156   I235    2.132   .     S
C156   C167    1.391   .     A
C157   C168    1.409   .     A
C157   I236    2.126   .     S
C158   C171    1.391   .     A
C158   I237    2.132   .     S
C159   O267    1.321   .     A
C159   C164    1.447   .     S
C159   O264    1.297   .     A
C160   C169    1.409   .     A
C160   I238    2.125   .     S
C161   I239    2.135   .     S
C161   C169    1.394   .     A
C162   I240    2.129   .     S
C162   C171    1.411   .     A
C163   C170    1.447   .     S
C167   C191    1.447   .     S
C168   C190    1.447   .     S
C169   C189    1.447   .     S
C170   O265    1.324   .     A
C170   O266    1.295   .     A
C171   C181    1.447   .     S
C172   C173    1.524   .     S
C172   H228    1.083   .     S
C172   C192    1.523   .     S
C172   H226    1.096   .     S
C173   H215    1.111   .     S
C173   H57     1.097   1_655 S
C173   H68     1.104   1_655 S
C174   C175    1.524   .     S
C174   H194    1.083   .     S
C174   H232    1.097   .     S
C175   H231    1.111   .     S
C175   H93     1.098   1_655 S
C175   H94     1.104   1_655 S
C176   H198    1.087   .     S
C176   C177    1.516   .     S
C177   H197    1.106   .     S
C177   H195    1.104   .     S
C177   H196    1.109   .     S
C178   H203    1.087   .     S
C178   C179    1.516   .     S
C179   H200    1.104   .     S
C179   H201    1.109   .     S
C179   H202    1.106   .     S
C180   C182    1.516   .     S
C180   H210    1.087   .     S
C180   H209    1.101   .     S
C181   O256    1.295   .     A
C181   O268    1.324   .     A
C182   H208    1.106   .     S
C182   H207    1.104   .     S
C182   H206    1.109   .     S
C183   H216    1.087   .     S
C183   C184    1.516   .     S
C183   H214    1.101   .     S
C184   H212    1.104   .     S
C184   H211    1.109   .     S
C184   H213    1.106   .     S
C185   H220    1.083   .     S
C185   H221    1.097   .     S
C185   C186    1.524   .     S
C186   H219    1.111   .     S
C186   H218    1.097   .     S
C186   H217    1.104   .     S
C187   H227    1.096   .     S
C187   C188    1.524   .     S
C187   H225    1.083   .     S
C188   H224    1.111   .     S
C188   H223    1.097   .     S
C188   H222    1.104   .     S
C189   O254    1.297   .     A
C189   O255    1.321   .     A
C190   O257    1.321   .     A
C190   O260    1.297   .     A
C191   O258    1.295   .     A
C191   O259    1.324   .     A
C192   C1092   1.443   1_654 S
C192   N114    1.393   1_655 S
H199   C40     1.101   1_655 S
H205   C42     1.101   1_655 S
N249   Zn269   2.058   .     S
N250   Zn270   2.058   .     S
N251   Zn271   2.058   .     S
N251   C414    1.382   1_545 S
N252   Zn272   2.058   .     S
N252   C415    1.393   1_545 S
O253   Zn269   2.002   .     S
O254   Zn272   2.002   .     S
O255   Zn271   2.002   .     S
O256   Zn544   2.002   .     S
O257   Zn544   2.002   .     S
O258   Zn271   2.002   .     S
O259   Zn272   2.002   .     S
O260   Zn543   2.002   .     S
O261   Zn134   2.002   1_655 S
O262   Zn133   2.002   1_655 S
O263   Zn270   2.002   .     S
O264   Zn134   2.002   1_655 S
O265   Zn269   2.002   .     S
O266   Zn270   2.002   .     S
O267   Zn133   2.002   1_655 S
O268   Zn543   2.002   .     S
Zn271  O532    2.002   1_545 S
Zn271  O540    2.002   1_545 S
Zn272  O529    2.002   1_545 S
Zn272  O528    2.002   1_545 S
C273   O389    1.295   .     A
C273   O399    1.324   .     A
C273   C302    1.447   .     S
C274   C310    1.523   .     S
C274   C955    1.443   .     S
C274   N521    1.393   .     S
C275   C312    1.527   .     S
C275   N386    1.382   .     A
C275   C1498   1.443   1_454 S
C276   N385    1.382   .     A
C276   C314    1.527   .     S
C276   C1008   1.443   1_455 S
C277   C316    1.527   .     S
C277   N388    1.382   .     A
C277   C1368   1.443   1_554 S
C278   C319    1.527   .     S
C278   C823    1.443   .     S
C278   N115    1.382   1_565 S
C279   C321    1.523   .     S
C279   C1366   1.443   1_554 S
C279   N116    1.393   1_565 S
C280   N387    1.393   .     A
C280   C323    1.523   .     S
C280   C821    1.443   .     S
C281   I369    2.126   .     S
C281   C292    1.379   .     A
C281   C300    1.409   .     A
C282   C299    1.391   .     A
C282   C293    1.379   .     A
C282   I377    2.132   .     S
C283   C290    1.379   .     A
C283   C299    1.411   .     A
C283   I378    2.129   .     S
C284   C301    1.447   .     S
C284   O398    1.297   .     A
C284   O397    1.321   .     A
C285   I379    2.135   .     S
C285   C300    1.394   .     A
C285   C291    1.379   .     A
C286   I380    2.129   .     S
C286   C302    1.411   .     A
C286   C297    1.379   .     A
C287   I381    2.135   .     S
C287   C301    1.394   .     A
C287   C298    1.379   .     A
C288   I382    2.125   .     S
C288   C301    1.409   .     A
C288   C294    1.379   .     A
C289   C302    1.391   .     A
C289   I383    2.132   .     S
C289   C296    1.379   .     A
C290   I384    2.135   .     S
C290   C304    1.394   .     A
C291   C303    1.411   .     A
C291   I370    2.129   .     S
C292   I371    2.132   .     S
C292   C303    1.391   .     A
C293   C304    1.409   .     A
C293   I372    2.126   .     S
C294   C307    1.391   .     A
C294   I373    2.132   .     S
C295   O403    1.321   .     A
C295   C300    1.447   .     S
C295   O400    1.297   .     A
C296   C305    1.409   .     A
C296   I374    2.125   .     S
C297   I375    2.135   .     S
C297   C305    1.394   .     A
C298   I376    2.129   .     S
C298   C307    1.411   .     A
C299   C306    1.447   .     S
C303   C327    1.447   .     S
C304   C326    1.447   .     S
C305   C325    1.447   .     S
C306   O401    1.324   .     A
C306   O402    1.295   .     A
C307   C317    1.447   .     S
C308   C309    1.524   .     S
C308   H364    1.083   .     S
C308   C328    1.523   .     S
C308   H362    1.096   .     S
C309   H351    1.111   .     S
C309   H465    1.097   .     S
C309   H476    1.104   .     S
C310   C311    1.524   .     S
C310   H330    1.083   .     S
C310   H368    1.097   .     S
C311   H367    1.111   .     S
C311   H501    1.098   .     S
C311   H502    1.104   .     S
C312   H334    1.087   .     S
C312   C313    1.516   .     S
C312   H471    1.101   1_455 S
C313   H333    1.106   .     S
C313   H331    1.104   .     S
C313   H332    1.109   .     S
C314   H339    1.087   .     S
C314   C315    1.516   .     S
C314   H477    1.101   1_455 S
C315   H336    1.104   .     S
C315   H337    1.109   .     S
C315   H338    1.106   .     S
C316   C318    1.516   .     S
C316   H346    1.087   .     S
C316   H345    1.101   .     S
C317   O392    1.295   .     A
C317   O404    1.324   .     A
C318   H344    1.106   .     S
C318   H343    1.104   .     S
C318   H342    1.109   .     S
C319   H352    1.087   .     S
C319   C320    1.516   .     S
C319   H350    1.101   .     S
C320   H348    1.104   .     S
C320   H347    1.109   .     S
C320   H349    1.106   .     S
C321   H356    1.083   .     S
C321   H357    1.097   .     S
C321   C322    1.524   .     S
C322   H355    1.111   .     S
C322   H354    1.097   .     S
C322   H353    1.104   .     S
C323   H363    1.096   .     S
C323   C324    1.524   .     S
C323   H361    1.083   .     S
C324   H360    1.111   .     S
C324   H359    1.097   .     S
C324   H358    1.104   .     S
C325   O390    1.297   .     A
C325   O391    1.321   .     A
C326   O393    1.321   .     A
C326   O396    1.297   .     A
C327   O394    1.295   .     A
C327   O395    1.324   .     A
C328   C1500   1.443   1_554 S
C328   N522    1.393   .     S
H329   C445    1.097   1_455 S
H335   C448    1.101   .     S
H340   C445    1.104   1_455 S
H341   C450    1.101   .     S
H365   C447    1.098   1_455 S
H366   C447    1.104   1_455 S
N385   Zn405   2.058   .     S
N385   C410    1.393   1_455 S
N386   Zn406   2.058   .     S
N386   C464    1.393   1_455 S
N387   Zn407   2.058   .     S
N388   Zn408   2.058   .     S
O389   Zn405   2.002   .     S
O390   Zn408   2.002   .     S
O391   Zn407   2.002   .     S
O392   Zn136   2.002   1_565 S
O393   Zn136   2.002   1_565 S
O394   Zn407   2.002   .     S
O395   Zn408   2.002   .     S
O396   Zn135   2.002   1_565 S
O397   Zn542   2.002   .     S
O398   Zn541   2.002   .     S
O399   Zn406   2.002   .     S
O400   Zn542   2.002   .     S
O401   Zn405   2.002   .     S
O402   Zn406   2.002   .     S
O403   Zn541   2.002   .     S
O404   Zn135   2.002   1_565 S
Zn405  O534    2.002   1_455 S
Zn405  O539    2.002   1_455 S
Zn406  O533    2.002   1_455 S
Zn406  O536    2.002   1_455 S
C409   O525    1.295   .     A
C409   O535    1.324   .     A
C409   C438    1.447   .     S
C410   C446    1.523   .     S
C410   C819    1.443   1_655 S
C410   N385    1.393   1_655 S
C411   C448    1.527   .     S
C411   N522    1.382   .     A
C411   C1362   1.443   1_554 S
C412   N521    1.382   .     A
C412   C450    1.527   .     S
C412   C872    1.443   .     S
C413   C452    1.527   .     S
C413   N524    1.382   .     A
C413   C1504   1.443   1_554 S
C414   C455    1.527   .     S
C414   C959    1.443   .     S
C414   N251    1.382   1_565 S
C415   C457    1.523   .     S
C415   C1502   1.443   1_554 S
C415   N252    1.393   1_565 S
C416   N523    1.393   .     A
C416   C459    1.523   .     S
C416   C957    1.443   .     S
C417   I505    2.126   .     S
C417   C428    1.379   .     A
C417   C436    1.409   .     A
C418   C435    1.391   .     A
C418   C429    1.379   .     A
C418   I513    2.132   .     S
C419   C426    1.379   .     A
C419   C435    1.411   .     A
C419   I514    2.129   .     S
C420   C437    1.447   .     S
C420   O534    1.297   .     A
C420   O533    1.321   .     A
C421   I515    2.135   .     S
C421   C436    1.394   .     A
C421   C427    1.379   .     A
C422   I516    2.129   .     S
C422   C438    1.411   .     A
C422   C433    1.379   .     A
C423   I517    2.135   .     S
C423   C437    1.394   .     A
C423   C434    1.379   .     A
C424   I518    2.125   .     S
C424   C437    1.409   .     A
C424   C430    1.379   .     A
C425   C438    1.391   .     A
C425   I519    2.132   .     S
C425   C432    1.379   .     A
C426   I520    2.135   .     S
C426   C440    1.394   .     A
C427   C439    1.411   .     A
C427   I506    2.129   .     S
C428   I507    2.132   .     S
C428   C439    1.391   .     A
C429   C440    1.409   .     A
C429   I508    2.126   .     S
C430   C443    1.391   .     A
C430   I509    2.132   .     S
C431   O539    1.321   .     A
C431   C436    1.447   .     S
C431   O536    1.297   .     A
C432   C441    1.409   .     A
C432   I510    2.125   .     S
C433   I511    2.135   .     S
C433   C441    1.394   .     A
C434   I512    2.129   .     S
C434   C443    1.411   .     A
C435   C442    1.447   .     S
C439   C463    1.447   .     S
C440   C462    1.447   .     S
C441   C461    1.447   .     S
C442   O537    1.324   .     A
C442   O538    1.295   .     A
C443   C453    1.447   .     S
C444   C445    1.524   .     S
C444   H500    1.083   .     S
C444   C464    1.523   .     S
C444   H498    1.096   .     S
C445   H487    1.111   .     S
C445   H329    1.097   1_655 S
C445   H340    1.104   1_655 S
C446   C447    1.524   .     S
C446   H466    1.083   .     S
C446   H504    1.097   .     S
C447   H503    1.111   .     S
C447   H365    1.098   1_655 S
C447   H366    1.104   1_655 S
C448   H470    1.087   .     S
C448   C449    1.516   .     S
C449   H469    1.106   .     S
C449   H467    1.104   .     S
C449   H468    1.109   .     S
C450   H475    1.087   .     S
C450   C451    1.516   .     S
C451   H472    1.104   .     S
C451   H473    1.109   .     S
C451   H474    1.106   .     S
C452   C454    1.516   .     S
C452   H482    1.087   .     S
C452   H481    1.101   .     S
C453   O528    1.295   .     A
C453   O540    1.324   .     A
C454   H480    1.106   .     S
C454   H479    1.104   .     S
C454   H478    1.109   .     S
C455   H488    1.087   .     S
C455   C456    1.516   .     S
C455   H486    1.101   .     S
C456   H484    1.104   .     S
C456   H483    1.109   .     S
C456   H485    1.106   .     S
C457   H492    1.083   .     S
C457   H493    1.097   .     S
C457   C458    1.524   .     S
C458   H491    1.111   .     S
C458   H490    1.097   .     S
C458   H489    1.104   .     S
C459   H499    1.096   .     S
C459   C460    1.524   .     S
C459   H497    1.083   .     S
C460   H496    1.111   .     S
C460   H495    1.097   .     S
C460   H494    1.104   .     S
C461   O526    1.297   .     A
C461   O527    1.321   .     A
C462   O529    1.321   .     A
C462   O532    1.297   .     A
C463   O530    1.295   .     A
C463   O531    1.324   .     A
C464   C1364   1.443   1_654 S
C464   N386    1.393   1_655 S
H471   C312    1.101   1_655 S
H477   C314    1.101   1_655 S
N521   Zn541   2.058   .     S
N522   Zn542   2.058   .     S
N523   Zn543   2.058   .     S
N524   Zn544   2.058   .     S
O525   Zn541   2.002   .     S
O526   Zn544   2.002   .     S
O527   Zn543   2.002   .     S
O528   Zn272   2.002   1_565 S
O529   Zn272   2.002   1_565 S
O530   Zn543   2.002   .     S
O531   Zn544   2.002   .     S
O532   Zn271   2.002   1_565 S
O533   Zn406   2.002   1_655 S
O534   Zn405   2.002   1_655 S
O535   Zn542   2.002   .     S
O536   Zn406   2.002   1_655 S
O537   Zn541   2.002   .     S
O538   Zn542   2.002   .     S
O539   Zn405   2.002   1_655 S
O540   Zn271   2.002   1_565 S
C545   O661    1.295   .     A
C545   O671    1.324   .     A
C545   C574    1.447   .     S
C546   C582    1.523   .     S
C546   C1227   1.443   .     S
C546   N793    1.393   .     S
C547   C584    1.527   .     S
C547   N658    1.382   .     A
C547   C138    1.443   1_455 S
C548   N657    1.382   .     A
C548   C586    1.527   .     S
C548   C1280   1.443   1_455 S
C549   C588    1.527   .     S
C549   N660    1.382   .     A
C550   C591    1.527   .     S
C550   C1095   1.443   .     S
C550   N931    1.382   .     S
C551   C593    1.523   .     S
C551   N932    1.393   .     S
C552   N659    1.393   .     A
C552   C595    1.523   .     S
C552   C1093   1.443   .     S
C553   I641    2.126   .     S
C553   C564    1.379   .     A
C553   C572    1.409   .     A
C554   C571    1.391   .     A
C554   C565    1.379   .     A
C554   I649    2.132   .     S
C555   C562    1.379   .     A
C555   C571    1.411   .     A
C555   I650    2.129   .     S
C556   C573    1.447   .     S
C556   O670    1.297   .     A
C556   O669    1.321   .     A
C557   I651    2.135   .     S
C557   C572    1.394   .     A
C557   C563    1.379   .     A
C558   I652    2.129   .     S
C558   C574    1.411   .     A
C558   C569    1.379   .     A
C559   I653    2.135   .     S
C559   C573    1.394   .     A
C559   C570    1.379   .     A
C560   I654    2.125   .     S
C560   C573    1.409   .     A
C560   C566    1.379   .     A
C561   C574    1.391   .     A
C561   I655    2.132   .     S
C561   C568    1.379   .     A
C562   I656    2.135   .     S
C562   C576    1.394   .     A
C563   C575    1.411   .     A
C563   I642    2.129   .     S
C564   I643    2.132   .     S
C564   C575    1.391   .     A
C565   C576    1.409   .     A
C565   I644    2.126   .     S
C566   C579    1.391   .     A
C566   I645    2.132   .     S
C567   O675    1.321   .     A
C567   C572    1.447   .     S
C567   O672    1.297   .     A
C568   C577    1.409   .     A
C568   I646    2.125   .     S
C569   I647    2.135   .     S
C569   C577    1.394   .     A
C570   I648    2.129   .     S
C570   C579    1.411   .     A
C571   C578    1.447   .     S
C575   C599    1.447   .     S
C576   C598    1.447   .     S
C577   C597    1.447   .     S
C578   O673    1.324   .     A
C578   O674    1.295   .     A
C579   C589    1.447   .     S
C580   C581    1.524   .     S
C580   H636    1.083   .     S
C580   C600    1.523   .     S
C580   H634    1.096   .     S
C581   H623    1.111   .     S
C581   H737    1.097   .     S
C581   H748    1.104   .     S
C582   C583    1.524   .     S
C582   H602    1.083   .     S
C582   H640    1.097   .     S
C583   H639    1.111   .     S
C583   H773    1.098   .     S
C583   H774    1.104   .     S
C584   H606    1.087   .     S
C584   C585    1.516   .     S
C584   H743    1.101   1_455 S
C585   H605    1.106   .     S
C585   H603    1.104   .     S
C585   H604    1.109   .     S
C586   H611    1.087   .     S
C586   C587    1.516   .     S
C586   H749    1.101   1_455 S
C587   H608    1.104   .     S
C587   H609    1.109   .     S
C587   H610    1.106   .     S
C588   C590    1.516   .     S
C588   H618    1.087   .     S
C588   H617    1.101   .     S
C589   O664    1.295   .     A
C589   O676    1.324   .     A
C590   H616    1.106   .     S
C590   H615    1.104   .     S
C590   H614    1.109   .     S
C591   H624    1.087   .     S
C591   C592    1.516   .     S
C591   H622    1.101   .     S
C592   H620    1.104   .     S
C592   H619    1.109   .     S
C592   H621    1.106   .     S
C593   H628    1.083   .     S
C593   H629    1.097   .     S
C593   C594    1.524   .     S
C594   H627    1.111   .     S
C594   H626    1.097   .     S
C594   H625    1.104   .     S
C595   H635    1.096   .     S
C595   C596    1.524   .     S
C595   H633    1.083   .     S
C596   H632    1.111   .     S
C596   H631    1.097   .     S
C596   H630    1.104   .     S
C597   O662    1.297   .     A
C597   O663    1.321   .     A
C598   O665    1.321   .     A
C598   O668    1.297   .     A
C599   O666    1.295   .     A
C599   O667    1.324   .     A
C600   N794    1.393   .     S
H601   C717    1.097   1_455 S
H607   C720    1.101   .     S
H612   C717    1.104   1_455 S
H613   C722    1.101   .     S
H637   C719    1.098   1_455 S
H638   C719    1.104   1_455 S
N657   Zn677   2.058   .     S
N657   C682    1.393   1_455 S
N658   Zn678   2.058   .     S
N658   C736    1.393   1_455 S
N659   Zn679   2.058   .     S
N659   C822    1.382   1_545 S
N660   Zn680   2.058   .     S
N660   C823    1.393   1_545 S
O661   Zn677   2.002   .     S
O662   Zn680   2.002   .     S
O663   Zn679   2.002   .     S
O664   Zn952   2.002   .     S
O665   Zn952   2.002   .     S
O666   Zn679   2.002   .     S
O667   Zn680   2.002   .     S
O668   Zn951   2.002   .     S
O669   Zn814   2.002   .     S
O670   Zn813   2.002   .     S
O671   Zn678   2.002   .     S
O672   Zn814   2.002   .     S
O673   Zn677   2.002   .     S
O674   Zn678   2.002   .     S
O675   Zn813   2.002   .     S
O676   Zn951   2.002   .     S
Zn677  O806    2.002   1_455 S
Zn677  O811    2.002   1_455 S
Zn678  O805    2.002   1_455 S
Zn678  O808    2.002   1_455 S
Zn679  O940    2.002   1_545 S
Zn679  O948    2.002   1_545 S
Zn680  O937    2.002   1_545 S
Zn680  O936    2.002   1_545 S
C681   O797    1.295   .     A
C681   O807    1.324   .     A
C681   C710    1.447   .     S
C682   C718    1.523   .     S
C682   C1091   1.443   1_655 S
C682   N657    1.393   1_655 S
C683   C720    1.527   .     S
C683   N794    1.382   .     A
C684   N793    1.382   .     A
C684   C722    1.527   .     S
C684   C1144   1.443   .     S
C685   C724    1.527   .     S
C685   N796    1.382   .     A
C686   C727    1.527   .     S
C686   C1231   1.443   .     S
C686   N1067   1.382   .     S
C687   C729    1.523   .     S
C687   N1068   1.393   .     S
C688   N795    1.393   .     A
C688   C731    1.523   .     S
C688   C1229   1.443   .     S
C689   I777    2.126   .     S
C689   C700    1.379   .     A
C689   C708    1.409   .     A
C690   C707    1.391   .     A
C690   C701    1.379   .     A
C690   I785    2.132   .     S
C691   C698    1.379   .     A
C691   C707    1.411   .     A
C691   I786    2.129   .     S
C692   C709    1.447   .     S
C692   O806    1.297   .     A
C692   O805    1.321   .     A
C693   I787    2.135   .     S
C693   C708    1.394   .     A
C693   C699    1.379   .     A
C694   I788    2.129   .     S
C694   C710    1.411   .     A
C694   C705    1.379   .     A
C695   I789    2.135   .     S
C695   C709    1.394   .     A
C695   C706    1.379   .     A
C696   I790    2.125   .     S
C696   C709    1.409   .     A
C696   C702    1.379   .     A
C697   C710    1.391   .     A
C697   I791    2.132   .     S
C697   C704    1.379   .     A
C698   I792    2.135   .     S
C698   C712    1.394   .     A
C699   C711    1.411   .     A
C699   I778    2.129   .     S
C700   I779    2.132   .     S
C700   C711    1.391   .     A
C701   C712    1.409   .     A
C701   I780    2.126   .     S
C702   C715    1.391   .     A
C702   I781    2.132   .     S
C703   O811    1.321   .     A
C703   C708    1.447   .     S
C703   O808    1.297   .     A
C704   C713    1.409   .     A
C704   I782    2.125   .     S
C705   I783    2.135   .     S
C705   C713    1.394   .     A
C706   I784    2.129   .     S
C706   C715    1.411   .     A
C707   C714    1.447   .     S
C711   C735    1.447   .     S
C712   C734    1.447   .     S
C713   C733    1.447   .     S
C714   O809    1.324   .     A
C714   O810    1.295   .     A
C715   C725    1.447   .     S
C716   C717    1.524   .     S
C716   H772    1.083   .     S
C716   C736    1.523   .     S
C716   H770    1.096   .     S
C717   H759    1.111   .     S
C717   H601    1.097   1_655 S
C717   H612    1.104   1_655 S
C718   C719    1.524   .     S
C718   H738    1.083   .     S
C718   H776    1.097   .     S
C719   H775    1.111   .     S
C719   H637    1.098   1_655 S
C719   H638    1.104   1_655 S
C720   H742    1.087   .     S
C720   C721    1.516   .     S
C721   H741    1.106   .     S
C721   H739    1.104   .     S
C721   H740    1.109   .     S
C722   H747    1.087   .     S
C722   C723    1.516   .     S
C723   H744    1.104   .     S
C723   H745    1.109   .     S
C723   H746    1.106   .     S
C724   C726    1.516   .     S
C724   H754    1.087   .     S
C724   H753    1.101   .     S
C725   O800    1.295   .     A
C725   O812    1.324   .     A
C726   H752    1.106   .     S
C726   H751    1.104   .     S
C726   H750    1.109   .     S
C727   H760    1.087   .     S
C727   C728    1.516   .     S
C727   H758    1.101   .     S
C728   H756    1.104   .     S
C728   H755    1.109   .     S
C728   H757    1.106   .     S
C729   H764    1.083   .     S
C729   H765    1.097   .     S
C729   C730    1.524   .     S
C730   H763    1.111   .     S
C730   H762    1.097   .     S
C730   H761    1.104   .     S
C731   H771    1.096   .     S
C731   C732    1.524   .     S
C731   H769    1.083   .     S
C732   H768    1.111   .     S
C732   H767    1.097   .     S
C732   H766    1.104   .     S
C733   O798    1.297   .     A
C733   O799    1.321   .     A
C734   O801    1.321   .     A
C734   O804    1.297   .     A
C735   O802    1.295   .     A
C735   O803    1.324   .     A
C736   C4      1.443   1_655 S
C736   N658    1.393   1_655 S
H743   C584    1.101   1_655 S
H749   C586    1.101   1_655 S
N793   Zn813   2.058   .     S
N794   Zn814   2.058   .     S
N795   Zn815   2.058   .     S
N795   C958    1.382   1_545 S
N796   Zn816   2.058   .     S
N796   C959    1.393   1_545 S
O797   Zn813   2.002   .     S
O798   Zn816   2.002   .     S
O799   Zn815   2.002   .     S
O800   Zn1088  2.002   .     S
O801   Zn1088  2.002   .     S
O802   Zn815   2.002   .     S
O803   Zn816   2.002   .     S
O804   Zn1087  2.002   .     S
O805   Zn678   2.002   1_655 S
O806   Zn677   2.002   1_655 S
O807   Zn814   2.002   .     S
O808   Zn678   2.002   1_655 S
O809   Zn813   2.002   .     S
O810   Zn814   2.002   .     S
O811   Zn677   2.002   1_655 S
O812   Zn1087  2.002   .     S
Zn815  O1076   2.002   1_545 S
Zn815  O1084   2.002   1_545 S
Zn816  O1073   2.002   1_545 S
Zn816  O1072   2.002   1_545 S
C817   O933    1.295   .     A
C817   O943    1.324   .     A
C817   C846    1.447   .     S
C818   C854    1.523   .     S
C818   C1499   1.443   .     S
C818   N1065   1.393   .     S
C819   C856    1.527   .     S
C819   N930    1.382   .     A
C819   C410    1.443   1_455 S
C820   N929    1.382   .     A
C820   C858    1.527   .     S
C820   C1552   1.443   1_455 S
C821   C860    1.527   .     S
C821   N932    1.382   .     A
C822   C863    1.527   .     S
C822   C1367   1.443   .     S
C822   N659    1.382   1_565 S
C823   C865    1.523   .     S
C823   N660    1.393   1_565 S
C824   N931    1.393   .     A
C824   C867    1.523   .     S
C824   C1365   1.443   .     S
C825   I913    2.126   .     S
C825   C836    1.379   .     A
C825   C844    1.409   .     A
C826   C843    1.391   .     A
C826   C837    1.379   .     A
C826   I921    2.132   .     S
C827   C834    1.379   .     A
C827   C843    1.411   .     A
C827   I922    2.129   .     S
C828   C845    1.447   .     S
C828   O942    1.297   .     A
C828   O941    1.321   .     A
C829   I923    2.135   .     S
C829   C844    1.394   .     A
C829   C835    1.379   .     A
C830   I924    2.129   .     S
C830   C846    1.411   .     A
C830   C841    1.379   .     A
C831   I925    2.135   .     S
C831   C845    1.394   .     A
C831   C842    1.379   .     A
C832   I926    2.125   .     S
C832   C845    1.409   .     A
C832   C838    1.379   .     A
C833   C846    1.391   .     A
C833   I927    2.132   .     S
C833   C840    1.379   .     A
C834   I928    2.135   .     S
C834   C848    1.394   .     A
C835   C847    1.411   .     A
C835   I914    2.129   .     S
C836   I915    2.132   .     S
C836   C847    1.391   .     A
C837   C848    1.409   .     A
C837   I916    2.126   .     S
C838   C851    1.391   .     A
C838   I917    2.132   .     S
C839   O947    1.321   .     A
C839   C844    1.447   .     S
C839   O944    1.297   .     A
C840   C849    1.409   .     A
C840   I918    2.125   .     S
C841   I919    2.135   .     S
C841   C849    1.394   .     A
C842   I920    2.129   .     S
C842   C851    1.411   .     A
C843   C850    1.447   .     S
C847   C871    1.447   .     S
C848   C870    1.447   .     S
C849   C869    1.447   .     S
C850   O945    1.324   .     A
C850   O946    1.295   .     A
C851   C861    1.447   .     S
C852   C853    1.524   .     S
C852   H908    1.083   .     S
C852   C872    1.523   .     S
C852   H906    1.096   .     S
C853   H895    1.111   .     S
C853   H1009   1.097   .     S
C853   H1020   1.104   .     S
C854   C855    1.524   .     S
C854   H874    1.083   .     S
C854   H912    1.097   .     S
C855   H911    1.111   .     S
C855   H1045   1.098   .     S
C855   H1046   1.104   .     S
C856   H878    1.087   .     S
C856   C857    1.516   .     S
C856   H1015   1.101   1_455 S
C857   H877    1.106   .     S
C857   H875    1.104   .     S
C857   H876    1.109   .     S
C858   H883    1.087   .     S
C858   C859    1.516   .     S
C858   H1021   1.101   1_455 S
C859   H880    1.104   .     S
C859   H881    1.109   .     S
C859   H882    1.106   .     S
C860   C862    1.516   .     S
C860   H890    1.087   .     S
C860   H889    1.101   .     S
C861   O936    1.295   .     A
C861   O948    1.324   .     A
C862   H888    1.106   .     S
C862   H887    1.104   .     S
C862   H886    1.109   .     S
C863   H896    1.087   .     S
C863   C864    1.516   .     S
C863   H894    1.101   .     S
C864   H892    1.104   .     S
C864   H891    1.109   .     S
C864   H893    1.106   .     S
C865   H900    1.083   .     S
C865   H901    1.097   .     S
C865   C866    1.524   .     S
C866   H899    1.111   .     S
C866   H898    1.097   .     S
C866   H897    1.104   .     S
C867   H907    1.096   .     S
C867   C868    1.524   .     S
C867   H905    1.083   .     S
C868   H904    1.111   .     S
C868   H903    1.097   .     S
C868   H902    1.104   .     S
C869   O934    1.297   .     A
C869   O935    1.321   .     A
C870   O937    1.321   .     A
C870   O940    1.297   .     A
C871   O938    1.295   .     A
C871   O939    1.324   .     A
C872   N1066   1.393   .     S
H873   C989    1.097   1_455 S
H879   C992    1.101   .     S
H884   C989    1.104   1_455 S
H885   C994    1.101   .     S
H909   C991    1.098   1_455 S
H910   C991    1.104   1_455 S
N929   Zn949   2.058   .     S
N929   C954    1.393   1_455 S
N930   Zn950   2.058   .     S
N930   C1008   1.393   1_455 S
N931   Zn951   2.058   .     S
N932   Zn952   2.058   .     S
O933   Zn949   2.002   .     S
O934   Zn952   2.002   .     S
O935   Zn951   2.002   .     S
O936   Zn680   2.002   1_565 S
O937   Zn680   2.002   1_565 S
O938   Zn951   2.002   .     S
O939   Zn952   2.002   .     S
O940   Zn679   2.002   1_565 S
O941   Zn1086  2.002   .     S
O942   Zn1085  2.002   .     S
O943   Zn950   2.002   .     S
O944   Zn1086  2.002   .     S
O945   Zn949   2.002   .     S
O946   Zn950   2.002   .     S
O947   Zn1085  2.002   .     S
O948   Zn679   2.002   1_565 S
Zn949  O1078   2.002   1_455 S
Zn949  O1083   2.002   1_455 S
Zn950  O1077   2.002   1_455 S
Zn950  O1080   2.002   1_455 S
C953   O1069   1.295   .     A
C953   O1079   1.324   .     A
C953   C982    1.447   .     S
C954   C990    1.523   .     S
C954   C1363   1.443   1_655 S
C954   N929    1.393   1_655 S
C955   C992    1.527   .     S
C955   N1066   1.382   .     A
C956   N1065   1.382   .     A
C956   C994    1.527   .     S
C956   C1416   1.443   .     S
C957   C996    1.527   .     S
C957   N1068   1.382   .     A
C958   C999    1.527   .     S
C958   C1503   1.443   .     S
C958   N795    1.382   1_565 S
C959   C1001   1.523   .     S
C959   N796    1.393   1_565 S
C960   N1067   1.393   .     A
C960   C1003   1.523   .     S
C960   C1501   1.443   .     S
C961   I1049   2.126   .     S
C961   C972    1.379   .     A
C961   C980    1.409   .     A
C962   C979    1.391   .     A
C962   C973    1.379   .     A
C962   I1057   2.132   .     S
C963   C970    1.379   .     A
C963   C979    1.411   .     A
C963   I1058   2.129   .     S
C964   C981    1.447   .     S
C964   O1078   1.297   .     A
C964   O1077   1.321   .     A
C965   I1059   2.135   .     S
C965   C980    1.394   .     A
C965   C971    1.379   .     A
C966   I1060   2.129   .     S
C966   C982    1.411   .     A
C966   C977    1.379   .     A
C967   I1061   2.135   .     S
C967   C981    1.394   .     A
C967   C978    1.379   .     A
C968   I1062   2.125   .     S
C968   C981    1.409   .     A
C968   C974    1.379   .     A
C969   C982    1.391   .     A
C969   I1063   2.132   .     S
C969   C976    1.379   .     A
C970   I1064   2.135   .     S
C970   C984    1.394   .     A
C971   C983    1.411   .     A
C971   I1050   2.129   .     S
C972   I1051   2.132   .     S
C972   C983    1.391   .     A
C973   C984    1.409   .     A
C973   I1052   2.126   .     S
C974   C987    1.391   .     A
C974   I1053   2.132   .     S
C975   O1083   1.321   .     A
C975   C980    1.447   .     S
C975   O1080   1.297   .     A
C976   C985    1.409   .     A
C976   I1054   2.125   .     S
C977   I1055   2.135   .     S
C977   C985    1.394   .     A
C978   I1056   2.129   .     S
C978   C987    1.411   .     A
C979   C986    1.447   .     S
C983   C1007   1.447   .     S
C984   C1006   1.447   .     S
C985   C1005   1.447   .     S
C986   O1081   1.324   .     A
C986   O1082   1.295   .     A
C987   C997    1.447   .     S
C988   C989    1.524   .     S
C988   H1044   1.083   .     S
C988   C1008   1.523   .     S
C988   H1042   1.096   .     S
C989   H1031   1.111   .     S
C989   H873    1.097   1_655 S
C989   H884    1.104   1_655 S
C990   C991    1.524   .     S
C990   H1010   1.083   .     S
C990   H1048   1.097   .     S
C991   H1047   1.111   .     S
C991   H909    1.098   1_655 S
C991   H910    1.104   1_655 S
C992   H1014   1.087   .     S
C992   C993    1.516   .     S
C993   H1013   1.106   .     S
C993   H1011   1.104   .     S
C993   H1012   1.109   .     S
C994   H1019   1.087   .     S
C994   C995    1.516   .     S
C995   H1016   1.104   .     S
C995   H1017   1.109   .     S
C995   H1018   1.106   .     S
C996   C998    1.516   .     S
C996   H1026   1.087   .     S
C996   H1025   1.101   .     S
C997   O1072   1.295   .     A
C997   O1084   1.324   .     A
C998   H1024   1.106   .     S
C998   H1023   1.104   .     S
C998   H1022   1.109   .     S
C999   H1032   1.087   .     S
C999   C1000   1.516   .     S
C999   H1030   1.101   .     S
C1000  H1028   1.104   .     S
C1000  H1027   1.109   .     S
C1000  H1029   1.106   .     S
C1001  H1036   1.083   .     S
C1001  H1037   1.097   .     S
C1001  C1002   1.524   .     S
C1002  H1035   1.111   .     S
C1002  H1034   1.097   .     S
C1002  H1033   1.104   .     S
C1003  H1043   1.096   .     S
C1003  C1004   1.524   .     S
C1003  H1041   1.083   .     S
C1004  H1040   1.111   .     S
C1004  H1039   1.097   .     S
C1004  H1038   1.104   .     S
C1005  O1070   1.297   .     A
C1005  O1071   1.321   .     A
C1006  O1073   1.321   .     A
C1006  O1076   1.297   .     A
C1007  O1074   1.295   .     A
C1007  O1075   1.324   .     A
C1008  C276    1.443   1_655 S
C1008  N930    1.393   1_655 S
H1015  C856    1.101   1_655 S
H1021  C858    1.101   1_655 S
N1065  Zn1085  2.058   .     S
N1066  Zn1086  2.058   .     S
N1067  Zn1087  2.058   .     S
N1068  Zn1088  2.058   .     S
O1069  Zn1085  2.002   .     S
O1070  Zn1088  2.002   .     S
O1071  Zn1087  2.002   .     S
O1072  Zn816   2.002   1_565 S
O1073  Zn816   2.002   1_565 S
O1074  Zn1087  2.002   .     S
O1075  Zn1088  2.002   .     S
O1076  Zn815   2.002   1_565 S
O1077  Zn950   2.002   1_655 S
O1078  Zn949   2.002   1_655 S
O1079  Zn1086  2.002   .     S
O1080  Zn950   2.002   1_655 S
O1081  Zn1085  2.002   .     S
O1082  Zn1086  2.002   .     S
O1083  Zn949   2.002   1_655 S
O1084  Zn815   2.002   1_565 S
C1089  O1205   1.295   .     A
C1089  O1215   1.324   .     A
C1089  C1118   1.447   .     S
C1090  C1126   1.523   .     S
C1090  C139    1.443   1_556 S
C1090  N1337   1.393   .     S
C1091  C1128   1.527   .     S
C1091  N1202   1.382   .     A
C1091  C682    1.443   1_455 S
C1092  N1201   1.382   .     A
C1092  C1130   1.527   .     S
C1092  C192    1.443   1_456 S
C1093  C1132   1.527   .     S
C1093  N1204   1.382   .     A
C1094  C1135   1.527   .     S
C1094  C7      1.443   1_556 S
C1094  N1475   1.382   .     S
C1095  C1137   1.523   .     S
C1095  N1476   1.393   .     S
C1096  N1203   1.393   .     A
C1096  C1139   1.523   .     S
C1096  C5      1.443   1_556 S
C1097  I1185   2.126   .     S
C1097  C1108   1.379   .     A
C1097  C1116   1.409   .     A
C1098  C1115   1.391   .     A
C1098  C1109   1.379   .     A
C1098  I1193   2.132   .     S
C1099  C1106   1.379   .     A
C1099  C1115   1.411   .     A
C1099  I1194   2.129   .     S
C1100  C1117   1.447   .     S
C1100  O1214   1.297   .     A
C1100  O1213   1.321   .     A
C1101  I1195   2.135   .     S
C1101  C1116   1.394   .     A
C1101  C1107   1.379   .     A
C1102  I1196   2.129   .     S
C1102  C1118   1.411   .     A
C1102  C1113   1.379   .     A
C1103  I1197   2.135   .     S
C1103  C1117   1.394   .     A
C1103  C1114   1.379   .     A
C1104  I1198   2.125   .     S
C1104  C1117   1.409   .     A
C1104  C1110   1.379   .     A
C1105  C1118   1.391   .     A
C1105  I1199   2.132   .     S
C1105  C1112   1.379   .     A
C1106  I1200   2.135   .     S
C1106  C1120   1.394   .     A
C1107  C1119   1.411   .     A
C1107  I1186   2.129   .     S
C1108  I1187   2.132   .     S
C1108  C1119   1.391   .     A
C1109  C1120   1.409   .     A
C1109  I1188   2.126   .     S
C1110  C1123   1.391   .     A
C1110  I1189   2.132   .     S
C1111  O1219   1.321   .     A
C1111  C1116   1.447   .     S
C1111  O1216   1.297   .     A
C1112  C1121   1.409   .     A
C1112  I1190   2.125   .     S
C1113  I1191   2.135   .     S
C1113  C1121   1.394   .     A
C1114  I1192   2.129   .     S
C1114  C1123   1.411   .     A
C1115  C1122   1.447   .     S
C1119  C1143   1.447   .     S
C1120  C1142   1.447   .     S
C1121  C1141   1.447   .     S
C1122  O1217   1.324   .     A
C1122  O1218   1.295   .     A
C1123  C1133   1.447   .     S
C1124  C1125   1.524   .     S
C1124  H1180   1.083   .     S
C1124  C1144   1.523   .     S
C1124  H1178   1.096   .     S
C1125  H1167   1.111   .     S
C1125  H1281   1.097   .     S
C1125  H1292   1.104   .     S
C1126  C1127   1.524   .     S
C1126  H1146   1.083   .     S
C1126  H1184   1.097   .     S
C1127  H1183   1.111   .     S
C1127  H1317   1.098   .     S
C1127  H1318   1.104   .     S
C1128  H1150   1.087   .     S
C1128  C1129   1.516   .     S
C1128  H1287   1.101   1_455 S
C1129  H1149   1.106   .     S
C1129  H1147   1.104   .     S
C1129  H1148   1.109   .     S
C1130  H1155   1.087   .     S
C1130  C1131   1.516   .     S
C1130  H1293   1.101   1_455 S
C1131  H1152   1.104   .     S
C1131  H1153   1.109   .     S
C1131  H1154   1.106   .     S
C1132  C1134   1.516   .     S
C1132  H1162   1.087   .     S
C1132  H1161   1.101   .     S
C1133  O1208   1.295   .     A
C1133  O1220   1.324   .     A
C1134  H1160   1.106   .     S
C1134  H1159   1.104   .     S
C1134  H1158   1.109   .     S
C1135  H1168   1.087   .     S
C1135  C1136   1.516   .     S
C1135  H1166   1.101   .     S
C1136  H1164   1.104   .     S
C1136  H1163   1.109   .     S
C1136  H1165   1.106   .     S
C1137  H1172   1.083   .     S
C1137  H1173   1.097   .     S
C1137  C1138   1.524   .     S
C1138  H1171   1.111   .     S
C1138  H1170   1.097   .     S
C1138  H1169   1.104   .     S
C1139  H1179   1.096   .     S
C1139  C1140   1.524   .     S
C1139  H1177   1.083   .     S
C1140  H1176   1.111   .     S
C1140  H1175   1.097   .     S
C1140  H1174   1.104   .     S
C1141  O1206   1.297   .     A
C1141  O1207   1.321   .     A
C1142  O1209   1.321   .     A
C1142  O1212   1.297   .     A
C1143  O1210   1.295   .     A
C1143  O1211   1.324   .     A
C1144  N1338   1.393   .     S
H1145  C1261   1.097   1_455 S
H1151  C1264   1.101   .     S
H1156  C1261   1.104   1_455 S
H1157  C1266   1.101   .     S
H1181  C1263   1.098   1_455 S
H1182  C1263   1.104   1_455 S
N1201  Zn1221  2.058   .     S
N1201  C1226   1.393   1_455 S
N1202  Zn1222  2.058   .     S
N1202  C1280   1.393   1_455 S
N1203  Zn1223  2.058   .     S
N1203  C1366   1.382   1_545 S
N1204  Zn1224  2.058   .     S
N1204  C1367   1.393   1_545 S
O1205  Zn1221  2.002   .     S
O1206  Zn1224  2.002   .     S
O1207  Zn1223  2.002   .     S
O1208  Zn1496  2.002   .     S
O1209  Zn1496  2.002   .     S
O1210  Zn1223  2.002   .     S
O1211  Zn1224  2.002   .     S
O1212  Zn1495  2.002   .     S
O1213  Zn1358  2.002   .     S
O1214  Zn1357  2.002   .     S
O1215  Zn1222  2.002   .     S
O1216  Zn1358  2.002   .     S
O1217  Zn1221  2.002   .     S
O1218  Zn1222  2.002   .     S
O1219  Zn1357  2.002   .     S
O1220  Zn1495  2.002   .     S
Zn1221 O1350   2.002   1_455 S
Zn1221 O1355   2.002   1_455 S
Zn1222 O1349   2.002   1_455 S
Zn1222 O1352   2.002   1_455 S
Zn1223 O1484   2.002   1_545 S
Zn1223 O1492   2.002   1_545 S
Zn1224 O1481   2.002   1_545 S
Zn1224 O1480   2.002   1_545 S
C1225  O1341   1.295   .     A
C1225  O1351   1.324   .     A
C1225  C1254   1.447   .     S
C1226  C1262   1.523   .     S
C1226  C3      1.443   1_656 S
C1226  N1201   1.393   1_655 S
C1227  C1264   1.527   .     S
C1227  N1338   1.382   .     A
C1228  N1337   1.382   .     A
C1228  C1266   1.527   .     S
C1228  C56     1.443   1_556 S
C1229  C1268   1.527   .     S
C1229  N1340   1.382   .     A
C1230  C1271   1.527   .     S
C1230  C143    1.443   1_556 S
C1230  N1611   1.382   .     S
C1231  C1273   1.523   .     S
C1231  N1612   1.393   .     S
C1232  N1339   1.393   .     A
C1232  C1275   1.523   .     S
C1232  C141    1.443   1_556 S
C1233  I1321   2.126   .     S
C1233  C1244   1.379   .     A
C1233  C1252   1.409   .     A
C1234  C1251   1.391   .     A
C1234  C1245   1.379   .     A
C1234  I1329   2.132   .     S
C1235  C1242   1.379   .     A
C1235  C1251   1.411   .     A
C1235  I1330   2.129   .     S
C1236  C1253   1.447   .     S
C1236  O1350   1.297   .     A
C1236  O1349   1.321   .     A
C1237  I1331   2.135   .     S
C1237  C1252   1.394   .     A
C1237  C1243   1.379   .     A
C1238  I1332   2.129   .     S
C1238  C1254   1.411   .     A
C1238  C1249   1.379   .     A
C1239  I1333   2.135   .     S
C1239  C1253   1.394   .     A
C1239  C1250   1.379   .     A
C1240  I1334   2.125   .     S
C1240  C1253   1.409   .     A
C1240  C1246   1.379   .     A
C1241  C1254   1.391   .     A
C1241  I1335   2.132   .     S
C1241  C1248   1.379   .     A
C1242  I1336   2.135   .     S
C1242  C1256   1.394   .     A
C1243  C1255   1.411   .     A
C1243  I1322   2.129   .     S
C1244  I1323   2.132   .     S
C1244  C1255   1.391   .     A
C1245  C1256   1.409   .     A
C1245  I1324   2.126   .     S
C1246  C1259   1.391   .     A
C1246  I1325   2.132   .     S
C1247  O1355   1.321   .     A
C1247  C1252   1.447   .     S
C1247  O1352   1.297   .     A
C1248  C1257   1.409   .     A
C1248  I1326   2.125   .     S
C1249  I1327   2.135   .     S
C1249  C1257   1.394   .     A
C1250  I1328   2.129   .     S
C1250  C1259   1.411   .     A
C1251  C1258   1.447   .     S
C1255  C1279   1.447   .     S
C1256  C1278   1.447   .     S
C1257  C1277   1.447   .     S
C1258  O1353   1.324   .     A
C1258  O1354   1.295   .     A
C1259  C1269   1.447   .     S
C1260  C1261   1.524   .     S
C1260  H1316   1.083   .     S
C1260  C1280   1.523   .     S
C1260  H1314   1.096   .     S
C1261  H1303   1.111   .     S
C1261  H1145   1.097   1_655 S
C1261  H1156   1.104   1_655 S
C1262  C1263   1.524   .     S
C1262  H1282   1.083   .     S
C1262  H1320   1.097   .     S
C1263  H1319   1.111   .     S
C1263  H1181   1.098   1_655 S
C1263  H1182   1.104   1_655 S
C1264  H1286   1.087   .     S
C1264  C1265   1.516   .     S
C1265  H1285   1.106   .     S
C1265  H1283   1.104   .     S
C1265  H1284   1.109   .     S
C1266  H1291   1.087   .     S
C1266  C1267   1.516   .     S
C1267  H1288   1.104   .     S
C1267  H1289   1.109   .     S
C1267  H1290   1.106   .     S
C1268  C1270   1.516   .     S
C1268  H1298   1.087   .     S
C1268  H1297   1.101   .     S
C1269  O1344   1.295   .     A
C1269  O1356   1.324   .     A
C1270  H1296   1.106   .     S
C1270  H1295   1.104   .     S
C1270  H1294   1.109   .     S
C1271  H1304   1.087   .     S
C1271  C1272   1.516   .     S
C1271  H1302   1.101   .     S
C1272  H1300   1.104   .     S
C1272  H1299   1.109   .     S
C1272  H1301   1.106   .     S
C1273  H1308   1.083   .     S
C1273  H1309   1.097   .     S
C1273  C1274   1.524   .     S
C1274  H1307   1.111   .     S
C1274  H1306   1.097   .     S
C1274  H1305   1.104   .     S
C1275  H1315   1.096   .     S
C1275  C1276   1.524   .     S
C1275  H1313   1.083   .     S
C1276  H1312   1.111   .     S
C1276  H1311   1.097   .     S
C1276  H1310   1.104   .     S
C1277  O1342   1.297   .     A
C1277  O1343   1.321   .     A
C1278  O1345   1.321   .     A
C1278  O1348   1.297   .     A
C1279  O1346   1.295   .     A
C1279  O1347   1.324   .     A
C1280  C548    1.443   1_655 S
C1280  N1202   1.393   1_655 S
H1287  C1128   1.101   1_655 S
H1293  C1130   1.101   1_655 S
N1337  Zn1357  2.058   .     S
N1338  Zn1358  2.058   .     S
N1339  Zn1359  2.058   .     S
N1339  C1502   1.382   1_545 S
N1340  Zn1360  2.058   .     S
N1340  C1503   1.393   1_545 S
O1341  Zn1357  2.002   .     S
O1342  Zn1360  2.002   .     S
O1343  Zn1359  2.002   .     S
O1344  Zn1632  2.002   .     S
O1345  Zn1632  2.002   .     S
O1346  Zn1359  2.002   .     S
O1347  Zn1360  2.002   .     S
O1348  Zn1631  2.002   .     S
O1349  Zn1222  2.002   1_655 S
O1350  Zn1221  2.002   1_655 S
O1351  Zn1358  2.002   .     S
O1352  Zn1222  2.002   1_655 S
O1353  Zn1357  2.002   .     S
O1354  Zn1358  2.002   .     S
O1355  Zn1221  2.002   1_655 S
O1356  Zn1631  2.002   .     S
Zn1359 O1620   2.002   1_545 S
Zn1359 O1628   2.002   1_545 S
Zn1360 O1617   2.002   1_545 S
Zn1360 O1616   2.002   1_545 S
C1361  O1477   1.295   .     A
C1361  O1487   1.324   .     A
C1361  C1390   1.447   .     S
C1362  C1398   1.523   .     S
C1362  C411    1.443   1_556 S
C1362  N1609   1.393   .     S
C1363  C1400   1.527   .     S
C1363  N1474   1.382   .     A
C1363  C954    1.443   1_455 S
C1364  N1473   1.382   .     A
C1364  C1402   1.527   .     S
C1364  C464    1.443   1_456 S
C1365  C1404   1.527   .     S
C1365  N1476   1.382   .     A
C1366  C1407   1.527   .     S
C1366  C279    1.443   1_556 S
C1366  N1203   1.382   1_565 S
C1367  C1409   1.523   .     S
C1367  N1204   1.393   1_565 S
C1368  N1475   1.393   .     A
C1368  C1411   1.523   .     S
C1368  C277    1.443   1_556 S
C1369  I1457   2.126   .     S
C1369  C1380   1.379   .     A
C1369  C1388   1.409   .     A
C1370  C1387   1.391   .     A
C1370  C1381   1.379   .     A
C1370  I1465   2.132   .     S
C1371  C1378   1.379   .     A
C1371  C1387   1.411   .     A
C1371  I1466   2.129   .     S
C1372  C1389   1.447   .     S
C1372  O1486   1.297   .     A
C1372  O1485   1.321   .     A
C1373  I1467   2.135   .     S
C1373  C1388   1.394   .     A
C1373  C1379   1.379   .     A
C1374  I1468   2.129   .     S
C1374  C1390   1.411   .     A
C1374  C1385   1.379   .     A
C1375  I1469   2.135   .     S
C1375  C1389   1.394   .     A
C1375  C1386   1.379   .     A
C1376  I1470   2.125   .     S
C1376  C1389   1.409   .     A
C1376  C1382   1.379   .     A
C1377  C1390   1.391   .     A
C1377  I1471   2.132   .     S
C1377  C1384   1.379   .     A
C1378  I1472   2.135   .     S
C1378  C1392   1.394   .     A
C1379  C1391   1.411   .     A
C1379  I1458   2.129   .     S
C1380  I1459   2.132   .     S
C1380  C1391   1.391   .     A
C1381  C1392   1.409   .     A
C1381  I1460   2.126   .     S
C1382  C1395   1.391   .     A
C1382  I1461   2.132   .     S
C1383  O1491   1.321   .     A
C1383  C1388   1.447   .     S
C1383  O1488   1.297   .     A
C1384  C1393   1.409   .     A
C1384  I1462   2.125   .     S
C1385  I1463   2.135   .     S
C1385  C1393   1.394   .     A
C1386  I1464   2.129   .     S
C1386  C1395   1.411   .     A
C1387  C1394   1.447   .     S
C1391  C1415   1.447   .     S
C1392  C1414   1.447   .     S
C1393  C1413   1.447   .     S
C1394  O1489   1.324   .     A
C1394  O1490   1.295   .     A
C1395  C1405   1.447   .     S
C1396  C1397   1.524   .     S
C1396  H1452   1.083   .     S
C1396  C1416   1.523   .     S
C1396  H1450   1.096   .     S
C1397  H1439   1.111   .     S
C1397  H1553   1.097   .     S
C1397  H1564   1.104   .     S
C1398  C1399   1.524   .     S
C1398  H1418   1.083   .     S
C1398  H1456   1.097   .     S
C1399  H1455   1.111   .     S
C1399  H1589   1.098   .     S
C1399  H1590   1.104   .     S
C1400  H1422   1.087   .     S
C1400  C1401   1.516   .     S
C1400  H1559   1.101   1_455 S
C1401  H1421   1.106   .     S
C1401  H1419   1.104   .     S
C1401  H1420   1.109   .     S
C1402  H1427   1.087   .     S
C1402  C1403   1.516   .     S
C1402  H1565   1.101   1_455 S
C1403  H1424   1.104   .     S
C1403  H1425   1.109   .     S
C1403  H1426   1.106   .     S
C1404  C1406   1.516   .     S
C1404  H1434   1.087   .     S
C1404  H1433   1.101   .     S
C1405  O1480   1.295   .     A
C1405  O1492   1.324   .     A
C1406  H1432   1.106   .     S
C1406  H1431   1.104   .     S
C1406  H1430   1.109   .     S
C1407  H1440   1.087   .     S
C1407  C1408   1.516   .     S
C1407  H1438   1.101   .     S
C1408  H1436   1.104   .     S
C1408  H1435   1.109   .     S
C1408  H1437   1.106   .     S
C1409  H1444   1.083   .     S
C1409  H1445   1.097   .     S
C1409  C1410   1.524   .     S
C1410  H1443   1.111   .     S
C1410  H1442   1.097   .     S
C1410  H1441   1.104   .     S
C1411  H1451   1.096   .     S
C1411  C1412   1.524   .     S
C1411  H1449   1.083   .     S
C1412  H1448   1.111   .     S
C1412  H1447   1.097   .     S
C1412  H1446   1.104   .     S
C1413  O1478   1.297   .     A
C1413  O1479   1.321   .     A
C1414  O1481   1.321   .     A
C1414  O1484   1.297   .     A
C1415  O1482   1.295   .     A
C1415  O1483   1.324   .     A
C1416  N1610   1.393   .     S
H1417  C1533   1.097   1_455 S
H1423  C1536   1.101   .     S
H1428  C1533   1.104   1_455 S
H1429  C1538   1.101   .     S
H1453  C1535   1.098   1_455 S
H1454  C1535   1.104   1_455 S
N1473  Zn1493  2.058   .     S
N1473  C1498   1.393   1_455 S
N1474  Zn1494  2.058   .     S
N1474  C1552   1.393   1_455 S
N1475  Zn1495  2.058   .     S
N1476  Zn1496  2.058   .     S
O1477  Zn1493  2.002   .     S
O1478  Zn1496  2.002   .     S
O1479  Zn1495  2.002   .     S
O1480  Zn1224  2.002   1_565 S
O1481  Zn1224  2.002   1_565 S
O1482  Zn1495  2.002   .     S
O1483  Zn1496  2.002   .     S
O1484  Zn1223  2.002   1_565 S
O1485  Zn1630  2.002   .     S
O1486  Zn1629  2.002   .     S
O1487  Zn1494  2.002   .     S
O1488  Zn1630  2.002   .     S
O1489  Zn1493  2.002   .     S
O1490  Zn1494  2.002   .     S
O1491  Zn1629  2.002   .     S
O1492  Zn1223  2.002   1_565 S
Zn1493 O1622   2.002   1_455 S
Zn1493 O1627   2.002   1_455 S
Zn1494 O1621   2.002   1_455 S
Zn1494 O1624   2.002   1_455 S
C1497  O1613   1.295   .     A
C1497  O1623   1.324   .     A
C1497  C1526   1.447   .     S
C1498  C1534   1.523   .     S
C1498  C275    1.443   1_656 S
C1498  N1473   1.393   1_655 S
C1499  C1536   1.527   .     S
C1499  N1610   1.382   .     A
C1500  N1609   1.382   .     A
C1500  C1538   1.527   .     S
C1500  C328    1.443   1_556 S
C1501  C1540   1.527   .     S
C1501  N1612   1.382   .     A
C1502  C1543   1.527   .     S
C1502  C415    1.443   1_556 S
C1502  N1339   1.382   1_565 S
C1503  C1545   1.523   .     S
C1503  N1340   1.393   1_565 S
C1504  N1611   1.393   .     A
C1504  C1547   1.523   .     S
C1504  C413    1.443   1_556 S
C1505  I1593   2.126   .     S
C1505  C1516   1.379   .     A
C1505  C1524   1.409   .     A
C1506  C1523   1.391   .     A
C1506  C1517   1.379   .     A
C1506  I1601   2.132   .     S
C1507  C1514   1.379   .     A
C1507  C1523   1.411   .     A
C1507  I1602   2.129   .     S
C1508  C1525   1.447   .     S
C1508  O1622   1.297   .     A
C1508  O1621   1.321   .     A
C1509  I1603   2.135   .     S
C1509  C1524   1.394   .     A
C1509  C1515   1.379   .     A
C1510  I1604   2.129   .     S
C1510  C1526   1.411   .     A
C1510  C1521   1.379   .     A
C1511  I1605   2.135   .     S
C1511  C1525   1.394   .     A
C1511  C1522   1.379   .     A
C1512  I1606   2.125   .     S
C1512  C1525   1.409   .     A
C1512  C1518   1.379   .     A
C1513  C1526   1.391   .     A
C1513  I1607   2.132   .     S
C1513  C1520   1.379   .     A
C1514  I1608   2.135   .     S
C1514  C1528   1.394   .     A
C1515  C1527   1.411   .     A
C1515  I1594   2.129   .     S
C1516  I1595   2.132   .     S
C1516  C1527   1.391   .     A
C1517  C1528   1.409   .     A
C1517  I1596   2.126   .     S
C1518  C1531   1.391   .     A
C1518  I1597   2.132   .     S
C1519  O1627   1.321   .     A
C1519  C1524   1.447   .     S
C1519  O1624   1.297   .     A
C1520  C1529   1.409   .     A
C1520  I1598   2.125   .     S
C1521  I1599   2.135   .     S
C1521  C1529   1.394   .     A
C1522  I1600   2.129   .     S
C1522  C1531   1.411   .     A
C1523  C1530   1.447   .     S
C1527  C1551   1.447   .     S
C1528  C1550   1.447   .     S
C1529  C1549   1.447   .     S
C1530  O1625   1.324   .     A
C1530  O1626   1.295   .     A
C1531  C1541   1.447   .     S
C1532  C1533   1.524   .     S
C1532  H1588   1.083   .     S
C1532  C1552   1.523   .     S
C1532  H1586   1.096   .     S
C1533  H1575   1.111   .     S
C1533  H1417   1.097   1_655 S
C1533  H1428   1.104   1_655 S
C1534  C1535   1.524   .     S
C1534  H1554   1.083   .     S
C1534  H1592   1.097   .     S
C1535  H1591   1.111   .     S
C1535  H1453   1.098   1_655 S
C1535  H1454   1.104   1_655 S
C1536  H1558   1.087   .     S
C1536  C1537   1.516   .     S
C1537  H1557   1.106   .     S
C1537  H1555   1.104   .     S
C1537  H1556   1.109   .     S
C1538  H1563   1.087   .     S
C1538  C1539   1.516   .     S
C1539  H1560   1.104   .     S
C1539  H1561   1.109   .     S
C1539  H1562   1.106   .     S
C1540  C1542   1.516   .     S
C1540  H1570   1.087   .     S
C1540  H1569   1.101   .     S
C1541  O1616   1.295   .     A
C1541  O1628   1.324   .     A
C1542  H1568   1.106   .     S
C1542  H1567   1.104   .     S
C1542  H1566   1.109   .     S
C1543  H1576   1.087   .     S
C1543  C1544   1.516   .     S
C1543  H1574   1.101   .     S
C1544  H1572   1.104   .     S
C1544  H1571   1.109   .     S
C1544  H1573   1.106   .     S
C1545  H1580   1.083   .     S
C1545  H1581   1.097   .     S
C1545  C1546   1.524   .     S
C1546  H1579   1.111   .     S
C1546  H1578   1.097   .     S
C1546  H1577   1.104   .     S
C1547  H1587   1.096   .     S
C1547  C1548   1.524   .     S
C1547  H1585   1.083   .     S
C1548  H1584   1.111   .     S
C1548  H1583   1.097   .     S
C1548  H1582   1.104   .     S
C1549  O1614   1.297   .     A
C1549  O1615   1.321   .     A
C1550  O1617   1.321   .     A
C1550  O1620   1.297   .     A
C1551  O1618   1.295   .     A
C1551  O1619   1.324   .     A
C1552  C820    1.443   1_655 S
C1552  N1474   1.393   1_655 S
H1559  C1400   1.101   1_655 S
H1565  C1402   1.101   1_655 S
N1609  Zn1629  2.058   .     S
N1610  Zn1630  2.058   .     S
N1611  Zn1631  2.058   .     S
N1612  Zn1632  2.058   .     S
O1613  Zn1629  2.002   .     S
O1614  Zn1632  2.002   .     S
O1615  Zn1631  2.002   .     S
O1616  Zn1360  2.002   1_565 S
O1617  Zn1360  2.002   1_565 S
O1618  Zn1631  2.002   .     S
O1619  Zn1632  2.002   .     S
O1620  Zn1359  2.002   1_565 S
O1621  Zn1494  2.002   1_655 S
O1622  Zn1493  2.002   1_655 S
O1623  Zn1630  2.002   .     S
O1624  Zn1494  2.002   1_655 S
O1625  Zn1629  2.002   .     S
O1626  Zn1630  2.002   .     S
O1627  Zn1493  2.002   1_655 S
O1628  Zn1359  2.002   1_565 S
