data_str_m3_o1_o17_pcu_sym.159
_audit_creation_date              2020-01-03
_audit_creation_method            'Materials Studio'
_symmetry_space_group_name_H-M    'P1'
_symmetry_Int_Tables_number       1
_symmetry_cell_setting            triclinic
loop_
_symmetry_equiv_pos_as_xyz
  x,y,z
_cell_length_a                    32.5989
_cell_length_b                    29.8580
_cell_length_c                    29.7997
_cell_angle_alpha                 90.4356
_cell_angle_beta                  92.5769
_cell_angle_gamma                 92.2880
loop_
_atom_site_label
_atom_site_type_symbol
_atom_site_fract_x
_atom_site_fract_y
_atom_site_fract_z
_atom_site_U_iso_or_equiv
_atom_site_adp_type
_atom_site_occupancy
O1     O     0.10559   0.20487   0.24999   0.00000  Uiso   1.00
O2     O     0.22774   0.12846   0.25000   0.00000  Uiso   1.00
O3     O     0.22774   0.20487   0.25000   0.00000  Uiso   1.00
O4     O     0.10559   0.12846   0.24999   0.00000  Uiso   1.00
C5     C     0.08675   0.16581   0.25041   0.00000  Uiso   1.00
C6     C     0.24660   0.16746   0.24925   0.00000  Uiso   1.00
O7     O     0.16666   0.20489   0.18392   0.00000  Uiso   1.00
O8     O     0.16667   0.12844   0.31607   0.00000  Uiso   1.00
O9     O     0.16667   0.20489   0.31607   0.00000  Uiso   1.00
O10    O     0.16666   0.12844   0.18392   0.00000  Uiso   1.00
C11    C     0.16699   0.16662   0.16350   0.00000  Uiso   1.00
C12    C     0.16667   0.16649   0.33648   0.00000  Uiso   1.00
Zn13   Zn    0.16667   0.21771   0.25000   0.00000  Uiso   1.00
Zn14   Zn    0.16667   0.11563   0.25000   0.00000  Uiso   1.00
C15    C     0.20799   0.16456   0.40734   0.00000  Uiso   1.00
C16    C     0.13267   0.15748   0.08964   0.00000  Uiso   1.00
C17    C     0.16894   0.16409   0.38472   0.00000  Uiso   1.00
C18    C     0.16909   0.16631   0.11529   0.00000  Uiso   1.00
C19    C     0.13293   0.15120   0.40638   0.00000  Uiso   1.00
C20    C     0.20759   0.16985   0.09575   0.00000  Uiso   1.00
C21    C     0.13578   0.13936   0.45181   0.00000  Uiso   1.00
C22    C     0.20941   0.16595   0.04857   0.00000  Uiso   1.00
C23    C     0.17307   0.14894   0.47652   0.00000  Uiso   1.00
C24    C     0.17295   0.15151   0.02356   0.00000  Uiso   1.00
C25    C     0.21005   0.15684   0.45422   0.00000  Uiso   1.00
C26    C     0.13533   0.14320   0.04491   0.00000  Uiso   1.00
C27    C     0.10282   0.11764   0.47357   0.00000  Uiso   1.00
C28    C     0.24632   0.17407   0.02534   0.00000  Uiso   1.00
C29    C     0.10208   0.12049   0.02065   0.00000  Uiso   1.00
C30    C     0.24733   0.16058   0.48034   0.00000  Uiso   1.00
C31    C     0.01870   0.12935   0.23064   0.00000  Uiso   1.00
C32    C     0.31485   0.20385   0.26867   0.00000  Uiso   1.00
C33    C     0.30945   0.13154   0.22745   0.00000  Uiso   1.00
C34    C     0.02398   0.20077   0.27314   0.00000  Uiso   1.00
C35    C     0.29092   0.16865   0.24702   0.00000  Uiso   1.00
C36    C     0.04249   0.16431   0.25268   0.00000  Uiso   1.00
C37    C     0.19236   0.02534   0.27920   0.00000  Uiso   1.00
C38    C     0.14083   0.30812   0.22103   0.00000  Uiso   1.00
C39    C     0.14308   0.02265   0.21898   0.00000  Uiso   1.00
C40    C     0.19038   0.31076   0.28095   0.00000  Uiso   1.00
N41    N     0.16667   0.28573   0.25000   0.00000  Uiso   1.00
N42    N     0.16667   0.04760   0.25000   0.00000  Uiso   1.00
C43    C     0.24626   0.17779   0.38226   0.00000  Uiso   1.00
H44    H     0.26536   0.20358   0.40150   0.00000  Uiso   1.00
H45    H     0.26412   0.14795   0.37537   0.00000  Uiso   1.00
H46    H     0.23950   0.19257   0.34917   0.00000  Uiso   1.00
C47    C     0.09211   0.16861   0.10937   0.00000  Uiso   1.00
H48    H     0.06665   0.17055   0.08363   0.00000  Uiso   1.00
H49    H     0.08391   0.14412   0.13559   0.00000  Uiso   1.00
H50    H     0.09490   0.20248   0.12478   0.00000  Uiso   1.00
C51    C     0.09181   0.15557   0.38345   0.00000  Uiso   1.00
H52    H     0.06781   0.17183   0.40081   0.00000  Uiso   1.00
O53    O     0.08368   0.13870   0.34658   0.00000  Uiso   1.00
C54    C     0.24544   0.17418   0.12526   0.00000  Uiso   1.00
H55    H     0.27027   0.15175   0.12061   0.00000  Uiso   1.00
O56    O     0.24977   0.20395   0.15355   0.00000  Uiso   1.00
C57    C     0.07217   0.08612   0.44793   0.00000  Uiso   1.00
H58    H     0.04199   0.10187   0.44372   0.00000  Uiso   1.00
H59    H     0.08313   0.07626   0.41472   0.00000  Uiso   1.00
H60    H     0.06817   0.05400   0.46605   0.00000  Uiso   1.00
C61    C     0.28301   0.20189   0.04463   0.00000  Uiso   1.00
H62    H     0.27329   0.22854   0.06751   0.00000  Uiso   1.00
H63    H     0.30570   0.18020   0.06158   0.00000  Uiso   1.00
H64    H     0.29867   0.22045   0.01767   0.00000  Uiso   1.00
C65    C     0.06863   0.09568   0.04367   0.00000  Uiso   1.00
H66    H     0.03756   0.09401   0.02888   0.00000  Uiso   1.00
O67    O     0.07585   0.07552   0.07840   0.00000  Uiso   1.00
C68    C     0.28652   0.14386   0.46431   0.00000  Uiso   1.00
H69    H     0.31578   0.16061   0.47383   0.00000  Uiso   1.00
O70    O     0.28656   0.10900   0.44263   0.00000  Uiso   1.00
C71    C     0.03771   0.09058   0.20975   0.00000  Uiso   1.00
H72    H     0.05500   0.06768   0.23058   0.00000  Uiso   1.00
O73    O     0.03275   0.08318   0.16946   0.00000  Uiso   1.00
C74    C     0.29615   0.24378   0.28771   0.00000  Uiso   1.00
H75    H     0.27902   0.26588   0.26580   0.00000  Uiso   1.00
O76    O     0.30084   0.25284   0.32771   0.00000  Uiso   1.00
C77    C     0.28436   0.09495   0.20312   0.00000  Uiso   1.00
H78    H     0.25869   0.10297   0.18071   0.00000  Uiso   1.00
O79    O     0.29084   0.05548   0.20981   0.00000  Uiso   1.00
C80    C     0.04917   0.23545   0.29993   0.00000  Uiso   1.00
H81    H     0.07300   0.22530   0.32381   0.00000  Uiso   1.00
O82    O     0.04501   0.27543   0.29368   0.00000  Uiso   1.00
C83    C     0.22568   0.05067   0.30524   0.00000  Uiso   1.00
H84    H     0.22090   0.08249   0.32069   0.00000  Uiso   1.00
O85    O     0.26014   0.03608   0.30892   0.00000  Uiso   1.00
C86    C     0.10732   0.28296   0.19534   0.00000  Uiso   1.00
H87    H     0.11144   0.25005   0.18241   0.00000  Uiso   1.00
O88    O     0.07350   0.29872   0.18953   0.00000  Uiso   1.00
C89    C     0.12384   0.04530   0.18011   0.00000  Uiso   1.00
H90    H     0.11131   0.07770   0.18384   0.00000  Uiso   1.00
O91    O     0.12315   0.02828   0.14269   0.00000  Uiso   1.00
C92    C     0.21077   0.28786   0.31891   0.00000  Uiso   1.00
H93    H     0.22257   0.25547   0.31406   0.00000  Uiso   1.00
O94    O     0.21334   0.30453   0.35654   0.00000  Uiso   1.00
O95    O     0.43892   0.20487   0.24999   0.00000  Uiso   1.00
O96    O     0.56108   0.12846   0.25000   0.00000  Uiso   1.00
O97    O     0.56108   0.20487   0.25000   0.00000  Uiso   1.00
O98    O     0.43892   0.12846   0.24999   0.00000  Uiso   1.00
C99    C     0.42008   0.16581   0.25041   0.00000  Uiso   1.00
C100   C     0.57994   0.16746   0.24925   0.00000  Uiso   1.00
O101   O     0.49999   0.20489   0.18392   0.00000  Uiso   1.00
O102   O     0.50001   0.12844   0.31607   0.00000  Uiso   1.00
O103   O     0.50001   0.20489   0.31607   0.00000  Uiso   1.00
O104   O     0.49999   0.12844   0.18392   0.00000  Uiso   1.00
C105   C     0.50033   0.16662   0.16350   0.00000  Uiso   1.00
C106   C     0.50001   0.16649   0.33648   0.00000  Uiso   1.00
Zn107  Zn    0.50000   0.21771   0.25000   0.00000  Uiso   1.00
Zn108  Zn    0.50000   0.11563   0.25000   0.00000  Uiso   1.00
C109   C     0.54132   0.16456   0.40734   0.00000  Uiso   1.00
C110   C     0.46600   0.15748   0.08964   0.00000  Uiso   1.00
C111   C     0.50228   0.16409   0.38472   0.00000  Uiso   1.00
C112   C     0.50242   0.16631   0.11529   0.00000  Uiso   1.00
C113   C     0.46627   0.15120   0.40638   0.00000  Uiso   1.00
C114   C     0.54093   0.16985   0.09575   0.00000  Uiso   1.00
C115   C     0.46911   0.13936   0.45181   0.00000  Uiso   1.00
C116   C     0.54275   0.16595   0.04857   0.00000  Uiso   1.00
C117   C     0.50640   0.14894   0.47652   0.00000  Uiso   1.00
C118   C     0.50629   0.15151   0.02356   0.00000  Uiso   1.00
C119   C     0.54338   0.15684   0.45422   0.00000  Uiso   1.00
C120   C     0.46866   0.14320   0.04491   0.00000  Uiso   1.00
C121   C     0.43615   0.11764   0.47357   0.00000  Uiso   1.00
C122   C     0.57965   0.17407   0.02534   0.00000  Uiso   1.00
C123   C     0.43542   0.12049   0.02065   0.00000  Uiso   1.00
C124   C     0.58066   0.16058   0.48034   0.00000  Uiso   1.00
C125   C     0.35204   0.12935   0.23064   0.00000  Uiso   1.00
C126   C     0.64818   0.20385   0.26867   0.00000  Uiso   1.00
C127   C     0.64278   0.13154   0.22745   0.00000  Uiso   1.00
C128   C     0.35732   0.20077   0.27314   0.00000  Uiso   1.00
C129   C     0.62426   0.16865   0.24702   0.00000  Uiso   1.00
C130   C     0.37582   0.16431   0.25268   0.00000  Uiso   1.00
C131   C     0.52569   0.02534   0.27920   0.00000  Uiso   1.00
C132   C     0.47417   0.30812   0.22103   0.00000  Uiso   1.00
C133   C     0.47642   0.02265   0.21898   0.00000  Uiso   1.00
C134   C     0.52372   0.31076   0.28095   0.00000  Uiso   1.00
N135   N     0.50000   0.28573   0.25000   0.00000  Uiso   1.00
N136   N     0.50000   0.04760   0.25000   0.00000  Uiso   1.00
C137   C     0.57959   0.17779   0.38226   0.00000  Uiso   1.00
H138   H     0.59870   0.20358   0.40150   0.00000  Uiso   1.00
H139   H     0.59745   0.14795   0.37537   0.00000  Uiso   1.00
H140   H     0.57284   0.19257   0.34917   0.00000  Uiso   1.00
C141   C     0.42544   0.16861   0.10937   0.00000  Uiso   1.00
H142   H     0.39998   0.17055   0.08363   0.00000  Uiso   1.00
H143   H     0.41725   0.14412   0.13559   0.00000  Uiso   1.00
H144   H     0.42824   0.20248   0.12478   0.00000  Uiso   1.00
C145   C     0.42514   0.15557   0.38345   0.00000  Uiso   1.00
H146   H     0.40114   0.17183   0.40081   0.00000  Uiso   1.00
O147   O     0.41701   0.13870   0.34658   0.00000  Uiso   1.00
C148   C     0.57878   0.17418   0.12526   0.00000  Uiso   1.00
H149   H     0.60360   0.15175   0.12061   0.00000  Uiso   1.00
O150   O     0.58311   0.20395   0.15355   0.00000  Uiso   1.00
C151   C     0.40551   0.08612   0.44793   0.00000  Uiso   1.00
H152   H     0.37532   0.10187   0.44372   0.00000  Uiso   1.00
H153   H     0.41646   0.07626   0.41472   0.00000  Uiso   1.00
H154   H     0.40151   0.05400   0.46605   0.00000  Uiso   1.00
C155   C     0.61635   0.20189   0.04463   0.00000  Uiso   1.00
H156   H     0.60662   0.22854   0.06751   0.00000  Uiso   1.00
H157   H     0.63903   0.18020   0.06158   0.00000  Uiso   1.00
H158   H     0.63201   0.22045   0.01767   0.00000  Uiso   1.00
C159   C     0.40197   0.09568   0.04367   0.00000  Uiso   1.00
H160   H     0.37089   0.09401   0.02888   0.00000  Uiso   1.00
O161   O     0.40918   0.07552   0.07840   0.00000  Uiso   1.00
C162   C     0.61986   0.14386   0.46431   0.00000  Uiso   1.00
H163   H     0.64911   0.16061   0.47383   0.00000  Uiso   1.00
O164   O     0.61989   0.10900   0.44263   0.00000  Uiso   1.00
C165   C     0.37105   0.09058   0.20975   0.00000  Uiso   1.00
H166   H     0.38833   0.06768   0.23058   0.00000  Uiso   1.00
O167   O     0.36608   0.08318   0.16946   0.00000  Uiso   1.00
C168   C     0.62949   0.24378   0.28771   0.00000  Uiso   1.00
H169   H     0.61236   0.26588   0.26580   0.00000  Uiso   1.00
O170   O     0.63417   0.25284   0.32771   0.00000  Uiso   1.00
C171   C     0.61770   0.09495   0.20312   0.00000  Uiso   1.00
H172   H     0.59202   0.10297   0.18071   0.00000  Uiso   1.00
O173   O     0.62417   0.05548   0.20981   0.00000  Uiso   1.00
C174   C     0.38250   0.23545   0.29993   0.00000  Uiso   1.00
H175   H     0.40633   0.22530   0.32381   0.00000  Uiso   1.00
O176   O     0.37835   0.27543   0.29368   0.00000  Uiso   1.00
C177   C     0.55901   0.05067   0.30524   0.00000  Uiso   1.00
H178   H     0.55423   0.08249   0.32069   0.00000  Uiso   1.00
O179   O     0.59347   0.03608   0.30892   0.00000  Uiso   1.00
C180   C     0.44065   0.28296   0.19534   0.00000  Uiso   1.00
H181   H     0.44478   0.25005   0.18241   0.00000  Uiso   1.00
O182   O     0.40684   0.29872   0.18953   0.00000  Uiso   1.00
C183   C     0.45717   0.04530   0.18011   0.00000  Uiso   1.00
H184   H     0.44465   0.07770   0.18384   0.00000  Uiso   1.00
O185   O     0.45649   0.02828   0.14269   0.00000  Uiso   1.00
C186   C     0.54410   0.28786   0.31891   0.00000  Uiso   1.00
H187   H     0.55590   0.25547   0.31406   0.00000  Uiso   1.00
O188   O     0.54667   0.30453   0.35654   0.00000  Uiso   1.00
O189   O     0.77226   0.20487   0.24999   0.00000  Uiso   1.00
O190   O     0.89441   0.12846   0.25000   0.00000  Uiso   1.00
O191   O     0.89441   0.20487   0.25000   0.00000  Uiso   1.00
O192   O     0.77226   0.12846   0.24999   0.00000  Uiso   1.00
C193   C     0.75342   0.16581   0.25041   0.00000  Uiso   1.00
C194   C     0.91327   0.16746   0.24925   0.00000  Uiso   1.00
O195   O     0.83333   0.20489   0.18392   0.00000  Uiso   1.00
O196   O     0.83334   0.12844   0.31607   0.00000  Uiso   1.00
O197   O     0.83334   0.20489   0.31607   0.00000  Uiso   1.00
O198   O     0.83333   0.12844   0.18392   0.00000  Uiso   1.00
C199   C     0.83366   0.16662   0.16350   0.00000  Uiso   1.00
C200   C     0.83334   0.16649   0.33648   0.00000  Uiso   1.00
Zn201  Zn    0.83333   0.21771   0.25000   0.00000  Uiso   1.00
Zn202  Zn    0.83333   0.11563   0.25000   0.00000  Uiso   1.00
C203   C     0.87465   0.16456   0.40734   0.00000  Uiso   1.00
C204   C     0.79934   0.15748   0.08964   0.00000  Uiso   1.00
C205   C     0.83561   0.16409   0.38472   0.00000  Uiso   1.00
C206   C     0.83576   0.16631   0.11529   0.00000  Uiso   1.00
C207   C     0.79960   0.15120   0.40638   0.00000  Uiso   1.00
C208   C     0.87426   0.16985   0.09575   0.00000  Uiso   1.00
C209   C     0.80245   0.13936   0.45181   0.00000  Uiso   1.00
C210   C     0.87608   0.16595   0.04857   0.00000  Uiso   1.00
C211   C     0.83974   0.14894   0.47652   0.00000  Uiso   1.00
C212   C     0.83962   0.15151   0.02356   0.00000  Uiso   1.00
C213   C     0.87672   0.15684   0.45422   0.00000  Uiso   1.00
C214   C     0.80200   0.14320   0.04491   0.00000  Uiso   1.00
C215   C     0.76949   0.11764   0.47357   0.00000  Uiso   1.00
C216   C     0.91298   0.17407   0.02534   0.00000  Uiso   1.00
C217   C     0.76875   0.12049   0.02065   0.00000  Uiso   1.00
C218   C     0.91400   0.16058   0.48034   0.00000  Uiso   1.00
C219   C     0.68537   0.12935   0.23064   0.00000  Uiso   1.00
C220   C     0.98152   0.20385   0.26867   0.00000  Uiso   1.00
C221   C     0.97611   0.13154   0.22745   0.00000  Uiso   1.00
C222   C     0.69065   0.20077   0.27314   0.00000  Uiso   1.00
C223   C     0.95759   0.16865   0.24702   0.00000  Uiso   1.00
C224   C     0.70916   0.16431   0.25268   0.00000  Uiso   1.00
C225   C     0.85903   0.02534   0.27920   0.00000  Uiso   1.00
C226   C     0.80750   0.30812   0.22103   0.00000  Uiso   1.00
C227   C     0.80975   0.02265   0.21898   0.00000  Uiso   1.00
C228   C     0.85705   0.31076   0.28095   0.00000  Uiso   1.00
N229   N     0.83333   0.28573   0.25000   0.00000  Uiso   1.00
N230   N     0.83333   0.04760   0.25000   0.00000  Uiso   1.00
C231   C     0.91293   0.17779   0.38226   0.00000  Uiso   1.00
H232   H     0.93203   0.20358   0.40150   0.00000  Uiso   1.00
H233   H     0.93079   0.14795   0.37537   0.00000  Uiso   1.00
H234   H     0.90617   0.19257   0.34917   0.00000  Uiso   1.00
C235   C     0.75877   0.16861   0.10937   0.00000  Uiso   1.00
H236   H     0.73331   0.17055   0.08363   0.00000  Uiso   1.00
H237   H     0.75058   0.14412   0.13559   0.00000  Uiso   1.00
H238   H     0.76157   0.20248   0.12478   0.00000  Uiso   1.00
C239   C     0.75848   0.15557   0.38345   0.00000  Uiso   1.00
H240   H     0.73448   0.17183   0.40081   0.00000  Uiso   1.00
O241   O     0.75035   0.13870   0.34658   0.00000  Uiso   1.00
C242   C     0.91211   0.17418   0.12526   0.00000  Uiso   1.00
H243   H     0.93693   0.15175   0.12061   0.00000  Uiso   1.00
O244   O     0.91644   0.20395   0.15355   0.00000  Uiso   1.00
C245   C     0.73884   0.08612   0.44793   0.00000  Uiso   1.00
H246   H     0.70866   0.10187   0.44372   0.00000  Uiso   1.00
H247   H     0.74980   0.07626   0.41472   0.00000  Uiso   1.00
H248   H     0.73484   0.05400   0.46605   0.00000  Uiso   1.00
C249   C     0.94968   0.20189   0.04463   0.00000  Uiso   1.00
H250   H     0.93995   0.22854   0.06751   0.00000  Uiso   1.00
H251   H     0.97237   0.18020   0.06158   0.00000  Uiso   1.00
H252   H     0.96534   0.22045   0.01767   0.00000  Uiso   1.00
C253   C     0.73530   0.09568   0.04367   0.00000  Uiso   1.00
H254   H     0.70423   0.09401   0.02888   0.00000  Uiso   1.00
O255   O     0.74251   0.07552   0.07840   0.00000  Uiso   1.00
C256   C     0.95319   0.14386   0.46431   0.00000  Uiso   1.00
H257   H     0.98245   0.16061   0.47383   0.00000  Uiso   1.00
O258   O     0.95322   0.10900   0.44263   0.00000  Uiso   1.00
C259   C     0.70438   0.09058   0.20975   0.00000  Uiso   1.00
H260   H     0.72166   0.06768   0.23058   0.00000  Uiso   1.00
O261   O     0.69942   0.08318   0.16946   0.00000  Uiso   1.00
C262   C     0.96282   0.24378   0.28771   0.00000  Uiso   1.00
H263   H     0.94569   0.26588   0.26580   0.00000  Uiso   1.00
O264   O     0.96751   0.25284   0.32771   0.00000  Uiso   1.00
C265   C     0.95103   0.09495   0.20312   0.00000  Uiso   1.00
H266   H     0.92536   0.10297   0.18071   0.00000  Uiso   1.00
O267   O     0.95750   0.05548   0.20981   0.00000  Uiso   1.00
C268   C     0.71584   0.23545   0.29993   0.00000  Uiso   1.00
H269   H     0.73966   0.22530   0.32381   0.00000  Uiso   1.00
O270   O     0.71168   0.27543   0.29368   0.00000  Uiso   1.00
C271   C     0.89235   0.05067   0.30524   0.00000  Uiso   1.00
H272   H     0.88757   0.08249   0.32069   0.00000  Uiso   1.00
O273   O     0.92680   0.03608   0.30892   0.00000  Uiso   1.00
C274   C     0.77399   0.28296   0.19534   0.00000  Uiso   1.00
H275   H     0.77811   0.25005   0.18241   0.00000  Uiso   1.00
O276   O     0.74017   0.29872   0.18953   0.00000  Uiso   1.00
C277   C     0.79050   0.04530   0.18011   0.00000  Uiso   1.00
H278   H     0.77798   0.07770   0.18384   0.00000  Uiso   1.00
O279   O     0.78982   0.02828   0.14269   0.00000  Uiso   1.00
C280   C     0.87743   0.28786   0.31891   0.00000  Uiso   1.00
H281   H     0.88923   0.25547   0.31406   0.00000  Uiso   1.00
O282   O     0.88000   0.30453   0.35654   0.00000  Uiso   1.00
O283   O     0.10559   0.53821   0.24999   0.00000  Uiso   1.00
O284   O     0.22774   0.46179   0.25000   0.00000  Uiso   1.00
O285   O     0.22774   0.53821   0.25000   0.00000  Uiso   1.00
O286   O     0.10559   0.46179   0.24999   0.00000  Uiso   1.00
C287   C     0.08675   0.49914   0.25041   0.00000  Uiso   1.00
C288   C     0.24660   0.50080   0.24925   0.00000  Uiso   1.00
O289   O     0.16666   0.53823   0.18392   0.00000  Uiso   1.00
O290   O     0.16667   0.46177   0.31607   0.00000  Uiso   1.00
O291   O     0.16667   0.53823   0.31607   0.00000  Uiso   1.00
O292   O     0.16666   0.46177   0.18392   0.00000  Uiso   1.00
C293   C     0.16699   0.49995   0.16350   0.00000  Uiso   1.00
C294   C     0.16667   0.49982   0.33648   0.00000  Uiso   1.00
Zn295  Zn    0.16667   0.55104   0.25000   0.00000  Uiso   1.00
Zn296  Zn    0.16667   0.44896   0.25000   0.00000  Uiso   1.00
C297   C     0.20799   0.49789   0.40734   0.00000  Uiso   1.00
C298   C     0.13267   0.49081   0.08964   0.00000  Uiso   1.00
C299   C     0.16894   0.49742   0.38472   0.00000  Uiso   1.00
C300   C     0.16909   0.49965   0.11529   0.00000  Uiso   1.00
C301   C     0.13293   0.48454   0.40638   0.00000  Uiso   1.00
C302   C     0.20759   0.50318   0.09575   0.00000  Uiso   1.00
C303   C     0.13578   0.47269   0.45181   0.00000  Uiso   1.00
C304   C     0.20941   0.49929   0.04857   0.00000  Uiso   1.00
C305   C     0.17307   0.48227   0.47652   0.00000  Uiso   1.00
C306   C     0.17295   0.48484   0.02356   0.00000  Uiso   1.00
C307   C     0.21005   0.49017   0.45422   0.00000  Uiso   1.00
C308   C     0.13533   0.47654   0.04491   0.00000  Uiso   1.00
C309   C     0.10282   0.45097   0.47357   0.00000  Uiso   1.00
C310   C     0.24632   0.50741   0.02534   0.00000  Uiso   1.00
C311   C     0.10208   0.45382   0.02065   0.00000  Uiso   1.00
C312   C     0.24733   0.49392   0.48034   0.00000  Uiso   1.00
C313   C     0.01870   0.46268   0.23064   0.00000  Uiso   1.00
C314   C     0.31485   0.53718   0.26867   0.00000  Uiso   1.00
C315   C     0.30945   0.46487   0.22745   0.00000  Uiso   1.00
C316   C     0.02398   0.53410   0.27314   0.00000  Uiso   1.00
C317   C     0.29092   0.50199   0.24702   0.00000  Uiso   1.00
C318   C     0.04249   0.49764   0.25268   0.00000  Uiso   1.00
C319   C     0.19236   0.35867   0.27920   0.00000  Uiso   1.00
C320   C     0.14083   0.64145   0.22103   0.00000  Uiso   1.00
C321   C     0.14308   0.35598   0.21898   0.00000  Uiso   1.00
C322   C     0.19038   0.64409   0.28095   0.00000  Uiso   1.00
N323   N     0.16667   0.61907   0.25000   0.00000  Uiso   1.00
N324   N     0.16667   0.38093   0.25000   0.00000  Uiso   1.00
C325   C     0.24626   0.51113   0.38226   0.00000  Uiso   1.00
H326   H     0.26536   0.53691   0.40150   0.00000  Uiso   1.00
H327   H     0.26412   0.48128   0.37537   0.00000  Uiso   1.00
H328   H     0.23950   0.52591   0.34917   0.00000  Uiso   1.00
C329   C     0.09211   0.50195   0.10937   0.00000  Uiso   1.00
H330   H     0.06665   0.50388   0.08363   0.00000  Uiso   1.00
H331   H     0.08391   0.47745   0.13559   0.00000  Uiso   1.00
H332   H     0.09490   0.53582   0.12478   0.00000  Uiso   1.00
C333   C     0.09181   0.48891   0.38345   0.00000  Uiso   1.00
H334   H     0.06781   0.50516   0.40081   0.00000  Uiso   1.00
O335   O     0.08368   0.47203   0.34658   0.00000  Uiso   1.00
C336   C     0.24544   0.50751   0.12526   0.00000  Uiso   1.00
H337   H     0.27027   0.48508   0.12061   0.00000  Uiso   1.00
O338   O     0.24977   0.53728   0.15355   0.00000  Uiso   1.00
C339   C     0.07217   0.41945   0.44793   0.00000  Uiso   1.00
H340   H     0.04199   0.43520   0.44372   0.00000  Uiso   1.00
H341   H     0.08313   0.40959   0.41472   0.00000  Uiso   1.00
H342   H     0.06817   0.38733   0.46605   0.00000  Uiso   1.00
C343   C     0.28301   0.53523   0.04463   0.00000  Uiso   1.00
H344   H     0.27329   0.56187   0.06751   0.00000  Uiso   1.00
H345   H     0.30570   0.51353   0.06158   0.00000  Uiso   1.00
H346   H     0.29867   0.55378   0.01767   0.00000  Uiso   1.00
C347   C     0.06863   0.42901   0.04367   0.00000  Uiso   1.00
H348   H     0.03756   0.42734   0.02888   0.00000  Uiso   1.00
O349   O     0.07585   0.40886   0.07840   0.00000  Uiso   1.00
C350   C     0.28652   0.47720   0.46431   0.00000  Uiso   1.00
H351   H     0.31578   0.49395   0.47383   0.00000  Uiso   1.00
O352   O     0.28656   0.44233   0.44263   0.00000  Uiso   1.00
C353   C     0.03771   0.42391   0.20975   0.00000  Uiso   1.00
H354   H     0.05500   0.40101   0.23058   0.00000  Uiso   1.00
O355   O     0.03275   0.41651   0.16946   0.00000  Uiso   1.00
C356   C     0.29615   0.57712   0.28771   0.00000  Uiso   1.00
H357   H     0.27902   0.59921   0.26580   0.00000  Uiso   1.00
O358   O     0.30084   0.58617   0.32771   0.00000  Uiso   1.00
C359   C     0.28436   0.42828   0.20312   0.00000  Uiso   1.00
H360   H     0.25869   0.43630   0.18071   0.00000  Uiso   1.00
O361   O     0.29084   0.38882   0.20981   0.00000  Uiso   1.00
C362   C     0.04917   0.56879   0.29993   0.00000  Uiso   1.00
H363   H     0.07300   0.55863   0.32381   0.00000  Uiso   1.00
O364   O     0.04501   0.60877   0.29368   0.00000  Uiso   1.00
C365   C     0.22568   0.38400   0.30524   0.00000  Uiso   1.00
H366   H     0.22090   0.41583   0.32069   0.00000  Uiso   1.00
O367   O     0.26014   0.36941   0.30892   0.00000  Uiso   1.00
C368   C     0.10732   0.61629   0.19534   0.00000  Uiso   1.00
H369   H     0.11144   0.58338   0.18241   0.00000  Uiso   1.00
O370   O     0.07350   0.63205   0.18953   0.00000  Uiso   1.00
C371   C     0.12384   0.37864   0.18011   0.00000  Uiso   1.00
H372   H     0.11131   0.41103   0.18384   0.00000  Uiso   1.00
O373   O     0.12315   0.36162   0.14269   0.00000  Uiso   1.00
C374   C     0.21077   0.62120   0.31891   0.00000  Uiso   1.00
H375   H     0.22257   0.58880   0.31406   0.00000  Uiso   1.00
O376   O     0.21334   0.63787   0.35654   0.00000  Uiso   1.00
O377   O     0.43892   0.53821   0.24999   0.00000  Uiso   1.00
O378   O     0.56108   0.46179   0.25000   0.00000  Uiso   1.00
O379   O     0.56108   0.53821   0.25000   0.00000  Uiso   1.00
O380   O     0.43892   0.46179   0.24999   0.00000  Uiso   1.00
C381   C     0.42008   0.49914   0.25041   0.00000  Uiso   1.00
C382   C     0.57994   0.50080   0.24925   0.00000  Uiso   1.00
O383   O     0.49999   0.53823   0.18392   0.00000  Uiso   1.00
O384   O     0.50001   0.46177   0.31607   0.00000  Uiso   1.00
O385   O     0.50001   0.53823   0.31607   0.00000  Uiso   1.00
O386   O     0.49999   0.46177   0.18392   0.00000  Uiso   1.00
C387   C     0.50033   0.49995   0.16350   0.00000  Uiso   1.00
C388   C     0.50001   0.49982   0.33648   0.00000  Uiso   1.00
Zn389  Zn    0.50000   0.55104   0.25000   0.00000  Uiso   1.00
Zn390  Zn    0.50000   0.44896   0.25000   0.00000  Uiso   1.00
C391   C     0.54132   0.49789   0.40734   0.00000  Uiso   1.00
C392   C     0.46600   0.49081   0.08964   0.00000  Uiso   1.00
C393   C     0.50228   0.49742   0.38472   0.00000  Uiso   1.00
C394   C     0.50242   0.49965   0.11529   0.00000  Uiso   1.00
C395   C     0.46627   0.48454   0.40638   0.00000  Uiso   1.00
C396   C     0.54093   0.50318   0.09575   0.00000  Uiso   1.00
C397   C     0.46911   0.47269   0.45181   0.00000  Uiso   1.00
C398   C     0.54275   0.49929   0.04857   0.00000  Uiso   1.00
C399   C     0.50640   0.48227   0.47652   0.00000  Uiso   1.00
C400   C     0.50629   0.48484   0.02356   0.00000  Uiso   1.00
C401   C     0.54338   0.49017   0.45422   0.00000  Uiso   1.00
C402   C     0.46866   0.47654   0.04491   0.00000  Uiso   1.00
C403   C     0.43615   0.45097   0.47357   0.00000  Uiso   1.00
C404   C     0.57965   0.50741   0.02534   0.00000  Uiso   1.00
C405   C     0.43542   0.45382   0.02065   0.00000  Uiso   1.00
C406   C     0.58066   0.49392   0.48034   0.00000  Uiso   1.00
C407   C     0.35204   0.46268   0.23064   0.00000  Uiso   1.00
C408   C     0.64818   0.53718   0.26867   0.00000  Uiso   1.00
C409   C     0.64278   0.46487   0.22745   0.00000  Uiso   1.00
C410   C     0.35732   0.53410   0.27314   0.00000  Uiso   1.00
C411   C     0.62426   0.50199   0.24702   0.00000  Uiso   1.00
C412   C     0.37582   0.49764   0.25268   0.00000  Uiso   1.00
C413   C     0.52569   0.35867   0.27920   0.00000  Uiso   1.00
C414   C     0.47417   0.64145   0.22103   0.00000  Uiso   1.00
C415   C     0.47642   0.35598   0.21898   0.00000  Uiso   1.00
C416   C     0.52372   0.64409   0.28095   0.00000  Uiso   1.00
N417   N     0.50000   0.61907   0.25000   0.00000  Uiso   1.00
N418   N     0.50000   0.38093   0.25000   0.00000  Uiso   1.00
C419   C     0.57959   0.51113   0.38226   0.00000  Uiso   1.00
H420   H     0.59870   0.53691   0.40150   0.00000  Uiso   1.00
H421   H     0.59745   0.48128   0.37537   0.00000  Uiso   1.00
H422   H     0.57284   0.52591   0.34917   0.00000  Uiso   1.00
C423   C     0.42544   0.50195   0.10937   0.00000  Uiso   1.00
H424   H     0.39998   0.50388   0.08363   0.00000  Uiso   1.00
H425   H     0.41725   0.47745   0.13559   0.00000  Uiso   1.00
H426   H     0.42824   0.53582   0.12478   0.00000  Uiso   1.00
C427   C     0.42514   0.48891   0.38345   0.00000  Uiso   1.00
H428   H     0.40114   0.50516   0.40081   0.00000  Uiso   1.00
O429   O     0.41701   0.47203   0.34658   0.00000  Uiso   1.00
C430   C     0.57878   0.50751   0.12526   0.00000  Uiso   1.00
H431   H     0.60360   0.48508   0.12061   0.00000  Uiso   1.00
O432   O     0.58311   0.53728   0.15355   0.00000  Uiso   1.00
C433   C     0.40551   0.41945   0.44793   0.00000  Uiso   1.00
H434   H     0.37532   0.43520   0.44372   0.00000  Uiso   1.00
H435   H     0.41646   0.40959   0.41472   0.00000  Uiso   1.00
H436   H     0.40151   0.38733   0.46605   0.00000  Uiso   1.00
C437   C     0.61635   0.53523   0.04463   0.00000  Uiso   1.00
H438   H     0.60662   0.56187   0.06751   0.00000  Uiso   1.00
H439   H     0.63903   0.51353   0.06158   0.00000  Uiso   1.00
H440   H     0.63201   0.55378   0.01767   0.00000  Uiso   1.00
C441   C     0.40197   0.42901   0.04367   0.00000  Uiso   1.00
H442   H     0.37089   0.42734   0.02888   0.00000  Uiso   1.00
O443   O     0.40918   0.40886   0.07840   0.00000  Uiso   1.00
C444   C     0.61986   0.47720   0.46431   0.00000  Uiso   1.00
H445   H     0.64911   0.49395   0.47383   0.00000  Uiso   1.00
O446   O     0.61989   0.44233   0.44263   0.00000  Uiso   1.00
C447   C     0.37105   0.42391   0.20975   0.00000  Uiso   1.00
H448   H     0.38833   0.40101   0.23058   0.00000  Uiso   1.00
O449   O     0.36608   0.41651   0.16946   0.00000  Uiso   1.00
C450   C     0.62949   0.57712   0.28771   0.00000  Uiso   1.00
H451   H     0.61236   0.59921   0.26580   0.00000  Uiso   1.00
O452   O     0.63417   0.58617   0.32771   0.00000  Uiso   1.00
C453   C     0.61770   0.42828   0.20312   0.00000  Uiso   1.00
H454   H     0.59202   0.43630   0.18071   0.00000  Uiso   1.00
O455   O     0.62417   0.38882   0.20981   0.00000  Uiso   1.00
C456   C     0.38250   0.56879   0.29993   0.00000  Uiso   1.00
H457   H     0.40633   0.55863   0.32381   0.00000  Uiso   1.00
O458   O     0.37835   0.60877   0.29368   0.00000  Uiso   1.00
C459   C     0.55901   0.38400   0.30524   0.00000  Uiso   1.00
H460   H     0.55423   0.41583   0.32069   0.00000  Uiso   1.00
O461   O     0.59347   0.36941   0.30892   0.00000  Uiso   1.00
C462   C     0.44065   0.61629   0.19534   0.00000  Uiso   1.00
H463   H     0.44478   0.58338   0.18241   0.00000  Uiso   1.00
O464   O     0.40684   0.63205   0.18953   0.00000  Uiso   1.00
C465   C     0.45717   0.37864   0.18011   0.00000  Uiso   1.00
H466   H     0.44465   0.41103   0.18384   0.00000  Uiso   1.00
O467   O     0.45649   0.36162   0.14269   0.00000  Uiso   1.00
C468   C     0.54410   0.62120   0.31891   0.00000  Uiso   1.00
H469   H     0.55590   0.58880   0.31406   0.00000  Uiso   1.00
O470   O     0.54667   0.63787   0.35654   0.00000  Uiso   1.00
O471   O     0.77226   0.53821   0.24999   0.00000  Uiso   1.00
O472   O     0.89441   0.46179   0.25000   0.00000  Uiso   1.00
O473   O     0.89441   0.53821   0.25000   0.00000  Uiso   1.00
O474   O     0.77226   0.46179   0.24999   0.00000  Uiso   1.00
C475   C     0.75342   0.49914   0.25041   0.00000  Uiso   1.00
C476   C     0.91327   0.50080   0.24925   0.00000  Uiso   1.00
O477   O     0.83333   0.53823   0.18392   0.00000  Uiso   1.00
O478   O     0.83334   0.46177   0.31607   0.00000  Uiso   1.00
O479   O     0.83334   0.53823   0.31607   0.00000  Uiso   1.00
O480   O     0.83333   0.46177   0.18392   0.00000  Uiso   1.00
C481   C     0.83366   0.49995   0.16350   0.00000  Uiso   1.00
C482   C     0.83334   0.49982   0.33648   0.00000  Uiso   1.00
Zn483  Zn    0.83333   0.55104   0.25000   0.00000  Uiso   1.00
Zn484  Zn    0.83333   0.44896   0.25000   0.00000  Uiso   1.00
C485   C     0.87465   0.49789   0.40734   0.00000  Uiso   1.00
C486   C     0.79934   0.49081   0.08964   0.00000  Uiso   1.00
C487   C     0.83561   0.49742   0.38472   0.00000  Uiso   1.00
C488   C     0.83576   0.49965   0.11529   0.00000  Uiso   1.00
C489   C     0.79960   0.48454   0.40638   0.00000  Uiso   1.00
C490   C     0.87426   0.50318   0.09575   0.00000  Uiso   1.00
C491   C     0.80245   0.47269   0.45181   0.00000  Uiso   1.00
C492   C     0.87608   0.49929   0.04857   0.00000  Uiso   1.00
C493   C     0.83974   0.48227   0.47652   0.00000  Uiso   1.00
C494   C     0.83962   0.48484   0.02356   0.00000  Uiso   1.00
C495   C     0.87672   0.49017   0.45422   0.00000  Uiso   1.00
C496   C     0.80200   0.47654   0.04491   0.00000  Uiso   1.00
C497   C     0.76949   0.45097   0.47357   0.00000  Uiso   1.00
C498   C     0.91298   0.50741   0.02534   0.00000  Uiso   1.00
C499   C     0.76875   0.45382   0.02065   0.00000  Uiso   1.00
C500   C     0.91400   0.49392   0.48034   0.00000  Uiso   1.00
C501   C     0.68537   0.46268   0.23064   0.00000  Uiso   1.00
C502   C     0.98152   0.53718   0.26867   0.00000  Uiso   1.00
C503   C     0.97611   0.46487   0.22745   0.00000  Uiso   1.00
C504   C     0.69065   0.53410   0.27314   0.00000  Uiso   1.00
C505   C     0.95759   0.50199   0.24702   0.00000  Uiso   1.00
C506   C     0.70916   0.49764   0.25268   0.00000  Uiso   1.00
C507   C     0.85903   0.35867   0.27920   0.00000  Uiso   1.00
C508   C     0.80750   0.64145   0.22103   0.00000  Uiso   1.00
C509   C     0.80975   0.35598   0.21898   0.00000  Uiso   1.00
C510   C     0.85705   0.64409   0.28095   0.00000  Uiso   1.00
N511   N     0.83333   0.61907   0.25000   0.00000  Uiso   1.00
N512   N     0.83333   0.38093   0.25000   0.00000  Uiso   1.00
C513   C     0.91293   0.51113   0.38226   0.00000  Uiso   1.00
H514   H     0.93203   0.53691   0.40150   0.00000  Uiso   1.00
H515   H     0.93079   0.48128   0.37537   0.00000  Uiso   1.00
H516   H     0.90617   0.52591   0.34917   0.00000  Uiso   1.00
C517   C     0.75877   0.50195   0.10937   0.00000  Uiso   1.00
H518   H     0.73331   0.50388   0.08363   0.00000  Uiso   1.00
H519   H     0.75058   0.47745   0.13559   0.00000  Uiso   1.00
H520   H     0.76157   0.53582   0.12478   0.00000  Uiso   1.00
C521   C     0.75848   0.48891   0.38345   0.00000  Uiso   1.00
H522   H     0.73448   0.50516   0.40081   0.00000  Uiso   1.00
O523   O     0.75035   0.47203   0.34658   0.00000  Uiso   1.00
C524   C     0.91211   0.50751   0.12526   0.00000  Uiso   1.00
H525   H     0.93693   0.48508   0.12061   0.00000  Uiso   1.00
O526   O     0.91644   0.53728   0.15355   0.00000  Uiso   1.00
C527   C     0.73884   0.41945   0.44793   0.00000  Uiso   1.00
H528   H     0.70866   0.43520   0.44372   0.00000  Uiso   1.00
H529   H     0.74980   0.40959   0.41472   0.00000  Uiso   1.00
H530   H     0.73484   0.38733   0.46605   0.00000  Uiso   1.00
C531   C     0.94968   0.53523   0.04463   0.00000  Uiso   1.00
H532   H     0.93995   0.56187   0.06751   0.00000  Uiso   1.00
H533   H     0.97237   0.51353   0.06158   0.00000  Uiso   1.00
H534   H     0.96534   0.55378   0.01767   0.00000  Uiso   1.00
C535   C     0.73530   0.42901   0.04367   0.00000  Uiso   1.00
H536   H     0.70423   0.42734   0.02888   0.00000  Uiso   1.00
O537   O     0.74251   0.40886   0.07840   0.00000  Uiso   1.00
C538   C     0.95319   0.47720   0.46431   0.00000  Uiso   1.00
H539   H     0.98245   0.49395   0.47383   0.00000  Uiso   1.00
O540   O     0.95322   0.44233   0.44263   0.00000  Uiso   1.00
C541   C     0.70438   0.42391   0.20975   0.00000  Uiso   1.00
H542   H     0.72166   0.40101   0.23058   0.00000  Uiso   1.00
O543   O     0.69942   0.41651   0.16946   0.00000  Uiso   1.00
C544   C     0.96282   0.57712   0.28771   0.00000  Uiso   1.00
H545   H     0.94569   0.59921   0.26580   0.00000  Uiso   1.00
O546   O     0.96751   0.58617   0.32771   0.00000  Uiso   1.00
C547   C     0.95103   0.42828   0.20312   0.00000  Uiso   1.00
H548   H     0.92536   0.43630   0.18071   0.00000  Uiso   1.00
O549   O     0.95750   0.38882   0.20981   0.00000  Uiso   1.00
C550   C     0.71584   0.56879   0.29993   0.00000  Uiso   1.00
H551   H     0.73966   0.55863   0.32381   0.00000  Uiso   1.00
O552   O     0.71168   0.60877   0.29368   0.00000  Uiso   1.00
C553   C     0.89235   0.38400   0.30524   0.00000  Uiso   1.00
H554   H     0.88757   0.41583   0.32069   0.00000  Uiso   1.00
O555   O     0.92680   0.36941   0.30892   0.00000  Uiso   1.00
C556   C     0.77399   0.61629   0.19534   0.00000  Uiso   1.00
H557   H     0.77811   0.58338   0.18241   0.00000  Uiso   1.00
O558   O     0.74017   0.63205   0.18953   0.00000  Uiso   1.00
C559   C     0.79050   0.37864   0.18011   0.00000  Uiso   1.00
H560   H     0.77798   0.41103   0.18384   0.00000  Uiso   1.00
O561   O     0.78982   0.36162   0.14269   0.00000  Uiso   1.00
C562   C     0.87743   0.62120   0.31891   0.00000  Uiso   1.00
H563   H     0.88923   0.58880   0.31406   0.00000  Uiso   1.00
O564   O     0.88000   0.63787   0.35654   0.00000  Uiso   1.00
O565   O     0.10559   0.87154   0.24999   0.00000  Uiso   1.00
O566   O     0.22774   0.79513   0.25000   0.00000  Uiso   1.00
O567   O     0.22774   0.87154   0.25000   0.00000  Uiso   1.00
O568   O     0.10559   0.79513   0.24999   0.00000  Uiso   1.00
C569   C     0.08675   0.83247   0.25041   0.00000  Uiso   1.00
C570   C     0.24660   0.83413   0.24925   0.00000  Uiso   1.00
O571   O     0.16666   0.87156   0.18392   0.00000  Uiso   1.00
O572   O     0.16667   0.79511   0.31607   0.00000  Uiso   1.00
O573   O     0.16667   0.87156   0.31607   0.00000  Uiso   1.00
O574   O     0.16666   0.79511   0.18392   0.00000  Uiso   1.00
C575   C     0.16699   0.83328   0.16350   0.00000  Uiso   1.00
C576   C     0.16667   0.83316   0.33648   0.00000  Uiso   1.00
Zn577  Zn    0.16667   0.88437   0.25000   0.00000  Uiso   1.00
Zn578  Zn    0.16667   0.78229   0.25000   0.00000  Uiso   1.00
C579   C     0.20799   0.83122   0.40734   0.00000  Uiso   1.00
C580   C     0.13267   0.82414   0.08964   0.00000  Uiso   1.00
C581   C     0.16894   0.83076   0.38472   0.00000  Uiso   1.00
C582   C     0.16909   0.83298   0.11529   0.00000  Uiso   1.00
C583   C     0.13293   0.81787   0.40638   0.00000  Uiso   1.00
C584   C     0.20759   0.83652   0.09575   0.00000  Uiso   1.00
C585   C     0.13578   0.80603   0.45181   0.00000  Uiso   1.00
C586   C     0.20941   0.83262   0.04857   0.00000  Uiso   1.00
C587   C     0.17307   0.81560   0.47652   0.00000  Uiso   1.00
C588   C     0.17295   0.81818   0.02356   0.00000  Uiso   1.00
C589   C     0.21005   0.82351   0.45422   0.00000  Uiso   1.00
C590   C     0.13533   0.80987   0.04491   0.00000  Uiso   1.00
C591   C     0.10282   0.78431   0.47357   0.00000  Uiso   1.00
C592   C     0.24632   0.84074   0.02534   0.00000  Uiso   1.00
C593   C     0.10208   0.78716   0.02065   0.00000  Uiso   1.00
C594   C     0.24733   0.82725   0.48034   0.00000  Uiso   1.00
C595   C     0.01870   0.79602   0.23064   0.00000  Uiso   1.00
C596   C     0.31485   0.87051   0.26867   0.00000  Uiso   1.00
C597   C     0.30945   0.79821   0.22745   0.00000  Uiso   1.00
C598   C     0.02398   0.86743   0.27314   0.00000  Uiso   1.00
C599   C     0.29092   0.83532   0.24702   0.00000  Uiso   1.00
C600   C     0.04249   0.83097   0.25268   0.00000  Uiso   1.00
C601   C     0.19236   0.69201   0.27920   0.00000  Uiso   1.00
C602   C     0.14083   0.97478   0.22103   0.00000  Uiso   1.00
C603   C     0.14308   0.68931   0.21898   0.00000  Uiso   1.00
C604   C     0.19038   0.97743   0.28095   0.00000  Uiso   1.00
N605   N     0.16667   0.95240   0.25000   0.00000  Uiso   1.00
N606   N     0.16667   0.71427   0.25000   0.00000  Uiso   1.00
C607   C     0.24626   0.84446   0.38226   0.00000  Uiso   1.00
H608   H     0.26536   0.87025   0.40150   0.00000  Uiso   1.00
H609   H     0.26412   0.81462   0.37537   0.00000  Uiso   1.00
H610   H     0.23950   0.85924   0.34917   0.00000  Uiso   1.00
C611   C     0.09211   0.83528   0.10937   0.00000  Uiso   1.00
H612   H     0.06665   0.83722   0.08363   0.00000  Uiso   1.00
H613   H     0.08391   0.81079   0.13559   0.00000  Uiso   1.00
H614   H     0.09490   0.86915   0.12478   0.00000  Uiso   1.00
C615   C     0.09181   0.82224   0.38345   0.00000  Uiso   1.00
H616   H     0.06781   0.83850   0.40081   0.00000  Uiso   1.00
O617   O     0.08368   0.80537   0.34658   0.00000  Uiso   1.00
C618   C     0.24544   0.84084   0.12526   0.00000  Uiso   1.00
H619   H     0.27027   0.81841   0.12061   0.00000  Uiso   1.00
O620   O     0.24977   0.87061   0.15355   0.00000  Uiso   1.00
C621   C     0.07217   0.75279   0.44793   0.00000  Uiso   1.00
H622   H     0.04199   0.76853   0.44372   0.00000  Uiso   1.00
H623   H     0.08313   0.74292   0.41472   0.00000  Uiso   1.00
H624   H     0.06817   0.72066   0.46605   0.00000  Uiso   1.00
C625   C     0.28301   0.86856   0.04463   0.00000  Uiso   1.00
H626   H     0.27329   0.89521   0.06751   0.00000  Uiso   1.00
H627   H     0.30570   0.84686   0.06158   0.00000  Uiso   1.00
H628   H     0.29867   0.88712   0.01767   0.00000  Uiso   1.00
C629   C     0.06863   0.76234   0.04367   0.00000  Uiso   1.00
H630   H     0.03756   0.76067   0.02888   0.00000  Uiso   1.00
O631   O     0.07585   0.74219   0.07840   0.00000  Uiso   1.00
C632   C     0.28652   0.81053   0.46431   0.00000  Uiso   1.00
H633   H     0.31578   0.82728   0.47383   0.00000  Uiso   1.00
O634   O     0.28656   0.77567   0.44263   0.00000  Uiso   1.00
C635   C     0.03771   0.75725   0.20975   0.00000  Uiso   1.00
H636   H     0.05500   0.73435   0.23058   0.00000  Uiso   1.00
O637   O     0.03275   0.74985   0.16946   0.00000  Uiso   1.00
C638   C     0.29615   0.91045   0.28771   0.00000  Uiso   1.00
H639   H     0.27902   0.93254   0.26580   0.00000  Uiso   1.00
O640   O     0.30084   0.91950   0.32771   0.00000  Uiso   1.00
C641   C     0.28436   0.76161   0.20312   0.00000  Uiso   1.00
H642   H     0.25869   0.76964   0.18071   0.00000  Uiso   1.00
O643   O     0.29084   0.72215   0.20981   0.00000  Uiso   1.00
C644   C     0.04917   0.90212   0.29993   0.00000  Uiso   1.00
H645   H     0.07300   0.89196   0.32381   0.00000  Uiso   1.00
O646   O     0.04501   0.94210   0.29368   0.00000  Uiso   1.00
C647   C     0.22568   0.71733   0.30524   0.00000  Uiso   1.00
H648   H     0.22090   0.74916   0.32069   0.00000  Uiso   1.00
O649   O     0.26014   0.70275   0.30892   0.00000  Uiso   1.00
C650   C     0.10732   0.94962   0.19534   0.00000  Uiso   1.00
H651   H     0.11144   0.91672   0.18241   0.00000  Uiso   1.00
O652   O     0.07350   0.96539   0.18953   0.00000  Uiso   1.00
C653   C     0.12384   0.71197   0.18011   0.00000  Uiso   1.00
H654   H     0.11131   0.74436   0.18384   0.00000  Uiso   1.00
O655   O     0.12315   0.69495   0.14269   0.00000  Uiso   1.00
C656   C     0.21077   0.95453   0.31891   0.00000  Uiso   1.00
H657   H     0.22257   0.92213   0.31406   0.00000  Uiso   1.00
O658   O     0.21334   0.97120   0.35654   0.00000  Uiso   1.00
O659   O     0.43892   0.87154   0.24999   0.00000  Uiso   1.00
O660   O     0.56108   0.79513   0.25000   0.00000  Uiso   1.00
O661   O     0.56108   0.87154   0.25000   0.00000  Uiso   1.00
O662   O     0.43892   0.79513   0.24999   0.00000  Uiso   1.00
C663   C     0.42008   0.83247   0.25041   0.00000  Uiso   1.00
C664   C     0.57994   0.83413   0.24925   0.00000  Uiso   1.00
O665   O     0.49999   0.87156   0.18392   0.00000  Uiso   1.00
O666   O     0.50001   0.79511   0.31607   0.00000  Uiso   1.00
O667   O     0.50001   0.87156   0.31607   0.00000  Uiso   1.00
O668   O     0.49999   0.79511   0.18392   0.00000  Uiso   1.00
C669   C     0.50033   0.83328   0.16350   0.00000  Uiso   1.00
C670   C     0.50001   0.83316   0.33648   0.00000  Uiso   1.00
Zn671  Zn    0.50000   0.88437   0.25000   0.00000  Uiso   1.00
Zn672  Zn    0.50000   0.78229   0.25000   0.00000  Uiso   1.00
C673   C     0.54132   0.83122   0.40734   0.00000  Uiso   1.00
C674   C     0.46600   0.82414   0.08964   0.00000  Uiso   1.00
C675   C     0.50228   0.83076   0.38472   0.00000  Uiso   1.00
C676   C     0.50242   0.83298   0.11529   0.00000  Uiso   1.00
C677   C     0.46627   0.81787   0.40638   0.00000  Uiso   1.00
C678   C     0.54093   0.83652   0.09575   0.00000  Uiso   1.00
C679   C     0.46911   0.80603   0.45181   0.00000  Uiso   1.00
C680   C     0.54275   0.83262   0.04857   0.00000  Uiso   1.00
C681   C     0.50640   0.81560   0.47652   0.00000  Uiso   1.00
C682   C     0.50629   0.81818   0.02356   0.00000  Uiso   1.00
C683   C     0.54338   0.82351   0.45422   0.00000  Uiso   1.00
C684   C     0.46866   0.80987   0.04491   0.00000  Uiso   1.00
C685   C     0.43615   0.78431   0.47357   0.00000  Uiso   1.00
C686   C     0.57965   0.84074   0.02534   0.00000  Uiso   1.00
C687   C     0.43542   0.78716   0.02065   0.00000  Uiso   1.00
C688   C     0.58066   0.82725   0.48034   0.00000  Uiso   1.00
C689   C     0.35204   0.79602   0.23064   0.00000  Uiso   1.00
C690   C     0.64818   0.87051   0.26867   0.00000  Uiso   1.00
C691   C     0.64278   0.79821   0.22745   0.00000  Uiso   1.00
C692   C     0.35732   0.86743   0.27314   0.00000  Uiso   1.00
C693   C     0.62426   0.83532   0.24702   0.00000  Uiso   1.00
C694   C     0.37582   0.83097   0.25268   0.00000  Uiso   1.00
C695   C     0.52569   0.69201   0.27920   0.00000  Uiso   1.00
C696   C     0.47417   0.97478   0.22103   0.00000  Uiso   1.00
C697   C     0.47642   0.68931   0.21898   0.00000  Uiso   1.00
C698   C     0.52372   0.97743   0.28095   0.00000  Uiso   1.00
N699   N     0.50000   0.95240   0.25000   0.00000  Uiso   1.00
N700   N     0.50000   0.71427   0.25000   0.00000  Uiso   1.00
C701   C     0.57959   0.84446   0.38226   0.00000  Uiso   1.00
H702   H     0.59870   0.87025   0.40150   0.00000  Uiso   1.00
H703   H     0.59745   0.81462   0.37537   0.00000  Uiso   1.00
H704   H     0.57284   0.85924   0.34917   0.00000  Uiso   1.00
C705   C     0.42544   0.83528   0.10937   0.00000  Uiso   1.00
H706   H     0.39998   0.83722   0.08363   0.00000  Uiso   1.00
H707   H     0.41725   0.81079   0.13559   0.00000  Uiso   1.00
H708   H     0.42824   0.86915   0.12478   0.00000  Uiso   1.00
C709   C     0.42514   0.82224   0.38345   0.00000  Uiso   1.00
H710   H     0.40114   0.83850   0.40081   0.00000  Uiso   1.00
O711   O     0.41701   0.80537   0.34658   0.00000  Uiso   1.00
C712   C     0.57878   0.84084   0.12526   0.00000  Uiso   1.00
H713   H     0.60360   0.81841   0.12061   0.00000  Uiso   1.00
O714   O     0.58311   0.87061   0.15355   0.00000  Uiso   1.00
C715   C     0.40551   0.75279   0.44793   0.00000  Uiso   1.00
H716   H     0.37532   0.76853   0.44372   0.00000  Uiso   1.00
H717   H     0.41646   0.74292   0.41472   0.00000  Uiso   1.00
H718   H     0.40151   0.72066   0.46605   0.00000  Uiso   1.00
C719   C     0.61635   0.86856   0.04463   0.00000  Uiso   1.00
H720   H     0.60662   0.89521   0.06751   0.00000  Uiso   1.00
H721   H     0.63903   0.84686   0.06158   0.00000  Uiso   1.00
H722   H     0.63201   0.88712   0.01767   0.00000  Uiso   1.00
C723   C     0.40197   0.76234   0.04367   0.00000  Uiso   1.00
H724   H     0.37089   0.76067   0.02888   0.00000  Uiso   1.00
O725   O     0.40918   0.74219   0.07840   0.00000  Uiso   1.00
C726   C     0.61986   0.81053   0.46431   0.00000  Uiso   1.00
H727   H     0.64911   0.82728   0.47383   0.00000  Uiso   1.00
O728   O     0.61989   0.77567   0.44263   0.00000  Uiso   1.00
C729   C     0.37105   0.75725   0.20975   0.00000  Uiso   1.00
H730   H     0.38833   0.73435   0.23058   0.00000  Uiso   1.00
O731   O     0.36608   0.74985   0.16946   0.00000  Uiso   1.00
C732   C     0.62949   0.91045   0.28771   0.00000  Uiso   1.00
H733   H     0.61236   0.93254   0.26580   0.00000  Uiso   1.00
O734   O     0.63417   0.91950   0.32771   0.00000  Uiso   1.00
C735   C     0.61770   0.76161   0.20312   0.00000  Uiso   1.00
H736   H     0.59202   0.76964   0.18071   0.00000  Uiso   1.00
O737   O     0.62417   0.72215   0.20981   0.00000  Uiso   1.00
C738   C     0.38250   0.90212   0.29993   0.00000  Uiso   1.00
H739   H     0.40633   0.89196   0.32381   0.00000  Uiso   1.00
O740   O     0.37835   0.94210   0.29368   0.00000  Uiso   1.00
C741   C     0.55901   0.71733   0.30524   0.00000  Uiso   1.00
H742   H     0.55423   0.74916   0.32069   0.00000  Uiso   1.00
O743   O     0.59347   0.70275   0.30892   0.00000  Uiso   1.00
C744   C     0.44065   0.94962   0.19534   0.00000  Uiso   1.00
H745   H     0.44478   0.91672   0.18241   0.00000  Uiso   1.00
O746   O     0.40684   0.96539   0.18953   0.00000  Uiso   1.00
C747   C     0.45717   0.71197   0.18011   0.00000  Uiso   1.00
H748   H     0.44465   0.74436   0.18384   0.00000  Uiso   1.00
O749   O     0.45649   0.69495   0.14269   0.00000  Uiso   1.00
C750   C     0.54410   0.95453   0.31891   0.00000  Uiso   1.00
H751   H     0.55590   0.92213   0.31406   0.00000  Uiso   1.00
O752   O     0.54667   0.97120   0.35654   0.00000  Uiso   1.00
O753   O     0.77226   0.87154   0.24999   0.00000  Uiso   1.00
O754   O     0.89441   0.79513   0.25000   0.00000  Uiso   1.00
O755   O     0.89441   0.87154   0.25000   0.00000  Uiso   1.00
O756   O     0.77226   0.79513   0.24999   0.00000  Uiso   1.00
C757   C     0.75342   0.83247   0.25041   0.00000  Uiso   1.00
C758   C     0.91327   0.83413   0.24925   0.00000  Uiso   1.00
O759   O     0.83333   0.87156   0.18392   0.00000  Uiso   1.00
O760   O     0.83334   0.79511   0.31607   0.00000  Uiso   1.00
O761   O     0.83334   0.87156   0.31607   0.00000  Uiso   1.00
O762   O     0.83333   0.79511   0.18392   0.00000  Uiso   1.00
C763   C     0.83366   0.83328   0.16350   0.00000  Uiso   1.00
C764   C     0.83334   0.83316   0.33648   0.00000  Uiso   1.00
Zn765  Zn    0.83333   0.88437   0.25000   0.00000  Uiso   1.00
Zn766  Zn    0.83333   0.78229   0.25000   0.00000  Uiso   1.00
C767   C     0.87465   0.83122   0.40734   0.00000  Uiso   1.00
C768   C     0.79934   0.82414   0.08964   0.00000  Uiso   1.00
C769   C     0.83561   0.83076   0.38472   0.00000  Uiso   1.00
C770   C     0.83576   0.83298   0.11529   0.00000  Uiso   1.00
C771   C     0.79960   0.81787   0.40638   0.00000  Uiso   1.00
C772   C     0.87426   0.83652   0.09575   0.00000  Uiso   1.00
C773   C     0.80245   0.80603   0.45181   0.00000  Uiso   1.00
C774   C     0.87608   0.83262   0.04857   0.00000  Uiso   1.00
C775   C     0.83974   0.81560   0.47652   0.00000  Uiso   1.00
C776   C     0.83962   0.81818   0.02356   0.00000  Uiso   1.00
C777   C     0.87672   0.82351   0.45422   0.00000  Uiso   1.00
C778   C     0.80200   0.80987   0.04491   0.00000  Uiso   1.00
C779   C     0.76949   0.78431   0.47357   0.00000  Uiso   1.00
C780   C     0.91298   0.84074   0.02534   0.00000  Uiso   1.00
C781   C     0.76875   0.78716   0.02065   0.00000  Uiso   1.00
C782   C     0.91400   0.82725   0.48034   0.00000  Uiso   1.00
C783   C     0.68537   0.79602   0.23064   0.00000  Uiso   1.00
C784   C     0.98152   0.87051   0.26867   0.00000  Uiso   1.00
C785   C     0.97611   0.79821   0.22745   0.00000  Uiso   1.00
C786   C     0.69065   0.86743   0.27314   0.00000  Uiso   1.00
C787   C     0.95759   0.83532   0.24702   0.00000  Uiso   1.00
C788   C     0.70916   0.83097   0.25268   0.00000  Uiso   1.00
C789   C     0.85903   0.69201   0.27920   0.00000  Uiso   1.00
C790   C     0.80750   0.97478   0.22103   0.00000  Uiso   1.00
C791   C     0.80975   0.68931   0.21898   0.00000  Uiso   1.00
C792   C     0.85705   0.97743   0.28095   0.00000  Uiso   1.00
N793   N     0.83333   0.95240   0.25000   0.00000  Uiso   1.00
N794   N     0.83333   0.71427   0.25000   0.00000  Uiso   1.00
C795   C     0.91293   0.84446   0.38226   0.00000  Uiso   1.00
H796   H     0.93203   0.87025   0.40150   0.00000  Uiso   1.00
H797   H     0.93079   0.81462   0.37537   0.00000  Uiso   1.00
H798   H     0.90617   0.85924   0.34917   0.00000  Uiso   1.00
C799   C     0.75877   0.83528   0.10937   0.00000  Uiso   1.00
H800   H     0.73331   0.83722   0.08363   0.00000  Uiso   1.00
H801   H     0.75058   0.81079   0.13559   0.00000  Uiso   1.00
H802   H     0.76157   0.86915   0.12478   0.00000  Uiso   1.00
C803   C     0.75848   0.82224   0.38345   0.00000  Uiso   1.00
H804   H     0.73448   0.83850   0.40081   0.00000  Uiso   1.00
O805   O     0.75035   0.80537   0.34658   0.00000  Uiso   1.00
C806   C     0.91211   0.84084   0.12526   0.00000  Uiso   1.00
H807   H     0.93693   0.81841   0.12061   0.00000  Uiso   1.00
O808   O     0.91644   0.87061   0.15355   0.00000  Uiso   1.00
C809   C     0.73884   0.75279   0.44793   0.00000  Uiso   1.00
H810   H     0.70866   0.76853   0.44372   0.00000  Uiso   1.00
H811   H     0.74980   0.74292   0.41472   0.00000  Uiso   1.00
H812   H     0.73484   0.72066   0.46605   0.00000  Uiso   1.00
C813   C     0.94968   0.86856   0.04463   0.00000  Uiso   1.00
H814   H     0.93995   0.89521   0.06751   0.00000  Uiso   1.00
H815   H     0.97237   0.84686   0.06158   0.00000  Uiso   1.00
H816   H     0.96534   0.88712   0.01767   0.00000  Uiso   1.00
C817   C     0.73530   0.76234   0.04367   0.00000  Uiso   1.00
H818   H     0.70423   0.76067   0.02888   0.00000  Uiso   1.00
O819   O     0.74251   0.74219   0.07840   0.00000  Uiso   1.00
C820   C     0.95319   0.81053   0.46431   0.00000  Uiso   1.00
H821   H     0.98245   0.82728   0.47383   0.00000  Uiso   1.00
O822   O     0.95322   0.77567   0.44263   0.00000  Uiso   1.00
C823   C     0.70438   0.75725   0.20975   0.00000  Uiso   1.00
H824   H     0.72166   0.73435   0.23058   0.00000  Uiso   1.00
O825   O     0.69942   0.74985   0.16946   0.00000  Uiso   1.00
C826   C     0.96282   0.91045   0.28771   0.00000  Uiso   1.00
H827   H     0.94569   0.93254   0.26580   0.00000  Uiso   1.00
O828   O     0.96751   0.91950   0.32771   0.00000  Uiso   1.00
C829   C     0.95103   0.76161   0.20312   0.00000  Uiso   1.00
H830   H     0.92536   0.76964   0.18071   0.00000  Uiso   1.00
O831   O     0.95750   0.72215   0.20981   0.00000  Uiso   1.00
C832   C     0.71584   0.90212   0.29993   0.00000  Uiso   1.00
H833   H     0.73966   0.89196   0.32381   0.00000  Uiso   1.00
O834   O     0.71168   0.94210   0.29368   0.00000  Uiso   1.00
C835   C     0.89235   0.71733   0.30524   0.00000  Uiso   1.00
H836   H     0.88757   0.74916   0.32069   0.00000  Uiso   1.00
O837   O     0.92680   0.70275   0.30892   0.00000  Uiso   1.00
C838   C     0.77399   0.94962   0.19534   0.00000  Uiso   1.00
H839   H     0.77811   0.91672   0.18241   0.00000  Uiso   1.00
O840   O     0.74017   0.96539   0.18953   0.00000  Uiso   1.00
C841   C     0.79050   0.71197   0.18011   0.00000  Uiso   1.00
H842   H     0.77798   0.74436   0.18384   0.00000  Uiso   1.00
O843   O     0.78982   0.69495   0.14269   0.00000  Uiso   1.00
C844   C     0.87743   0.95453   0.31891   0.00000  Uiso   1.00
H845   H     0.88923   0.92213   0.31406   0.00000  Uiso   1.00
O846   O     0.88000   0.97120   0.35654   0.00000  Uiso   1.00
O847   O     0.10559   0.20487   0.74999   0.00000  Uiso   1.00
O848   O     0.22774   0.12846   0.75000   0.00000  Uiso   1.00
O849   O     0.22774   0.20487   0.75000   0.00000  Uiso   1.00
O850   O     0.10559   0.12846   0.74999   0.00000  Uiso   1.00
C851   C     0.08675   0.16581   0.75041   0.00000  Uiso   1.00
C852   C     0.24660   0.16746   0.74925   0.00000  Uiso   1.00
O853   O     0.16666   0.20489   0.68392   0.00000  Uiso   1.00
O854   O     0.16667   0.12844   0.81607   0.00000  Uiso   1.00
O855   O     0.16667   0.20489   0.81607   0.00000  Uiso   1.00
O856   O     0.16666   0.12844   0.68392   0.00000  Uiso   1.00
C857   C     0.16699   0.16662   0.66350   0.00000  Uiso   1.00
C858   C     0.16667   0.16649   0.83648   0.00000  Uiso   1.00
Zn859  Zn    0.16667   0.21771   0.75000   0.00000  Uiso   1.00
Zn860  Zn    0.16667   0.11563   0.75000   0.00000  Uiso   1.00
C861   C     0.20799   0.16456   0.90734   0.00000  Uiso   1.00
C862   C     0.13267   0.15748   0.58964   0.00000  Uiso   1.00
C863   C     0.16894   0.16409   0.88472   0.00000  Uiso   1.00
C864   C     0.16909   0.16631   0.61529   0.00000  Uiso   1.00
C865   C     0.13293   0.15120   0.90638   0.00000  Uiso   1.00
C866   C     0.20759   0.16985   0.59575   0.00000  Uiso   1.00
C867   C     0.13578   0.13936   0.95181   0.00000  Uiso   1.00
C868   C     0.20941   0.16595   0.54857   0.00000  Uiso   1.00
C869   C     0.17307   0.14894   0.97652   0.00000  Uiso   1.00
C870   C     0.17295   0.15151   0.52356   0.00000  Uiso   1.00
C871   C     0.21005   0.15684   0.95422   0.00000  Uiso   1.00
C872   C     0.13533   0.14320   0.54491   0.00000  Uiso   1.00
C873   C     0.10282   0.11764   0.97357   0.00000  Uiso   1.00
C874   C     0.24632   0.17407   0.52534   0.00000  Uiso   1.00
C875   C     0.10208   0.12049   0.52065   0.00000  Uiso   1.00
C876   C     0.24733   0.16058   0.98034   0.00000  Uiso   1.00
C877   C     0.01870   0.12935   0.73064   0.00000  Uiso   1.00
C878   C     0.31485   0.20385   0.76867   0.00000  Uiso   1.00
C879   C     0.30945   0.13154   0.72745   0.00000  Uiso   1.00
C880   C     0.02398   0.20077   0.77314   0.00000  Uiso   1.00
C881   C     0.29092   0.16865   0.74702   0.00000  Uiso   1.00
C882   C     0.04249   0.16431   0.75268   0.00000  Uiso   1.00
C883   C     0.19236   0.02534   0.77920   0.00000  Uiso   1.00
C884   C     0.14083   0.30812   0.72103   0.00000  Uiso   1.00
C885   C     0.14308   0.02265   0.71898   0.00000  Uiso   1.00
C886   C     0.19038   0.31076   0.78095   0.00000  Uiso   1.00
N887   N     0.16667   0.28573   0.75000   0.00000  Uiso   1.00
N888   N     0.16667   0.04760   0.75000   0.00000  Uiso   1.00
C889   C     0.24626   0.17779   0.88226   0.00000  Uiso   1.00
H890   H     0.26536   0.20358   0.90150   0.00000  Uiso   1.00
H891   H     0.26412   0.14795   0.87537   0.00000  Uiso   1.00
H892   H     0.23950   0.19257   0.84917   0.00000  Uiso   1.00
C893   C     0.09211   0.16861   0.60937   0.00000  Uiso   1.00
H894   H     0.06665   0.17055   0.58363   0.00000  Uiso   1.00
H895   H     0.08391   0.14412   0.63559   0.00000  Uiso   1.00
H896   H     0.09490   0.20248   0.62478   0.00000  Uiso   1.00
C897   C     0.09181   0.15557   0.88345   0.00000  Uiso   1.00
H898   H     0.06781   0.17183   0.90081   0.00000  Uiso   1.00
O899   O     0.08368   0.13870   0.84658   0.00000  Uiso   1.00
C900   C     0.24544   0.17418   0.62526   0.00000  Uiso   1.00
H901   H     0.27027   0.15175   0.62061   0.00000  Uiso   1.00
O902   O     0.24977   0.20395   0.65355   0.00000  Uiso   1.00
C903   C     0.07217   0.08612   0.94793   0.00000  Uiso   1.00
H904   H     0.04199   0.10187   0.94372   0.00000  Uiso   1.00
H905   H     0.08313   0.07626   0.91472   0.00000  Uiso   1.00
H906   H     0.06817   0.05400   0.96605   0.00000  Uiso   1.00
C907   C     0.28301   0.20189   0.54463   0.00000  Uiso   1.00
H908   H     0.27329   0.22854   0.56751   0.00000  Uiso   1.00
H909   H     0.30570   0.18020   0.56158   0.00000  Uiso   1.00
H910   H     0.29867   0.22045   0.51767   0.00000  Uiso   1.00
C911   C     0.06863   0.09568   0.54367   0.00000  Uiso   1.00
H912   H     0.03756   0.09401   0.52888   0.00000  Uiso   1.00
O913   O     0.07585   0.07552   0.57840   0.00000  Uiso   1.00
C914   C     0.28652   0.14386   0.96431   0.00000  Uiso   1.00
H915   H     0.31578   0.16061   0.97383   0.00000  Uiso   1.00
O916   O     0.28656   0.10900   0.94263   0.00000  Uiso   1.00
C917   C     0.03771   0.09058   0.70975   0.00000  Uiso   1.00
H918   H     0.05500   0.06768   0.73058   0.00000  Uiso   1.00
O919   O     0.03275   0.08318   0.66946   0.00000  Uiso   1.00
C920   C     0.29615   0.24378   0.78771   0.00000  Uiso   1.00
H921   H     0.27902   0.26588   0.76580   0.00000  Uiso   1.00
O922   O     0.30084   0.25284   0.82771   0.00000  Uiso   1.00
C923   C     0.28436   0.09495   0.70312   0.00000  Uiso   1.00
H924   H     0.25869   0.10297   0.68071   0.00000  Uiso   1.00
O925   O     0.29084   0.05548   0.70981   0.00000  Uiso   1.00
C926   C     0.04917   0.23545   0.79993   0.00000  Uiso   1.00
H927   H     0.07300   0.22530   0.82381   0.00000  Uiso   1.00
O928   O     0.04501   0.27543   0.79368   0.00000  Uiso   1.00
C929   C     0.22568   0.05067   0.80524   0.00000  Uiso   1.00
H930   H     0.22090   0.08249   0.82069   0.00000  Uiso   1.00
O931   O     0.26014   0.03608   0.80892   0.00000  Uiso   1.00
C932   C     0.10732   0.28296   0.69534   0.00000  Uiso   1.00
H933   H     0.11144   0.25005   0.68241   0.00000  Uiso   1.00
O934   O     0.07350   0.29872   0.68953   0.00000  Uiso   1.00
C935   C     0.12384   0.04530   0.68011   0.00000  Uiso   1.00
H936   H     0.11131   0.07770   0.68384   0.00000  Uiso   1.00
O937   O     0.12315   0.02828   0.64269   0.00000  Uiso   1.00
C938   C     0.21077   0.28786   0.81891   0.00000  Uiso   1.00
H939   H     0.22257   0.25547   0.81406   0.00000  Uiso   1.00
O940   O     0.21334   0.30453   0.85654   0.00000  Uiso   1.00
O941   O     0.43892   0.20487   0.74999   0.00000  Uiso   1.00
O942   O     0.56108   0.12846   0.75000   0.00000  Uiso   1.00
O943   O     0.56108   0.20487   0.75000   0.00000  Uiso   1.00
O944   O     0.43892   0.12846   0.74999   0.00000  Uiso   1.00
C945   C     0.42008   0.16581   0.75041   0.00000  Uiso   1.00
C946   C     0.57994   0.16746   0.74925   0.00000  Uiso   1.00
O947   O     0.49999   0.20489   0.68392   0.00000  Uiso   1.00
O948   O     0.50001   0.12844   0.81607   0.00000  Uiso   1.00
O949   O     0.50001   0.20489   0.81607   0.00000  Uiso   1.00
O950   O     0.49999   0.12844   0.68392   0.00000  Uiso   1.00
C951   C     0.50033   0.16662   0.66350   0.00000  Uiso   1.00
C952   C     0.50001   0.16649   0.83648   0.00000  Uiso   1.00
Zn953  Zn    0.50000   0.21771   0.75000   0.00000  Uiso   1.00
Zn954  Zn    0.50000   0.11563   0.75000   0.00000  Uiso   1.00
C955   C     0.54132   0.16456   0.90734   0.00000  Uiso   1.00
C956   C     0.46600   0.15748   0.58964   0.00000  Uiso   1.00
C957   C     0.50228   0.16409   0.88472   0.00000  Uiso   1.00
C958   C     0.50242   0.16631   0.61529   0.00000  Uiso   1.00
C959   C     0.46627   0.15120   0.90638   0.00000  Uiso   1.00
C960   C     0.54093   0.16985   0.59575   0.00000  Uiso   1.00
C961   C     0.46911   0.13936   0.95181   0.00000  Uiso   1.00
C962   C     0.54275   0.16595   0.54857   0.00000  Uiso   1.00
C963   C     0.50640   0.14894   0.97652   0.00000  Uiso   1.00
C964   C     0.50629   0.15151   0.52356   0.00000  Uiso   1.00
C965   C     0.54338   0.15684   0.95422   0.00000  Uiso   1.00
C966   C     0.46866   0.14320   0.54491   0.00000  Uiso   1.00
C967   C     0.43615   0.11764   0.97357   0.00000  Uiso   1.00
C968   C     0.57965   0.17407   0.52534   0.00000  Uiso   1.00
C969   C     0.43542   0.12049   0.52065   0.00000  Uiso   1.00
C970   C     0.58066   0.16058   0.98034   0.00000  Uiso   1.00
C971   C     0.35204   0.12935   0.73064   0.00000  Uiso   1.00
C972   C     0.64818   0.20385   0.76867   0.00000  Uiso   1.00
C973   C     0.64278   0.13154   0.72745   0.00000  Uiso   1.00
C974   C     0.35732   0.20077   0.77314   0.00000  Uiso   1.00
C975   C     0.62426   0.16865   0.74702   0.00000  Uiso   1.00
C976   C     0.37582   0.16431   0.75268   0.00000  Uiso   1.00
C977   C     0.52569   0.02534   0.77920   0.00000  Uiso   1.00
C978   C     0.47417   0.30812   0.72103   0.00000  Uiso   1.00
C979   C     0.47642   0.02265   0.71898   0.00000  Uiso   1.00
C980   C     0.52372   0.31076   0.78095   0.00000  Uiso   1.00
N981   N     0.50000   0.28573   0.75000   0.00000  Uiso   1.00
N982   N     0.50000   0.04760   0.75000   0.00000  Uiso   1.00
C983   C     0.57959   0.17779   0.88226   0.00000  Uiso   1.00
H984   H     0.59870   0.20358   0.90150   0.00000  Uiso   1.00
H985   H     0.59745   0.14795   0.87537   0.00000  Uiso   1.00
H986   H     0.57284   0.19257   0.84917   0.00000  Uiso   1.00
C987   C     0.42544   0.16861   0.60937   0.00000  Uiso   1.00
H988   H     0.39998   0.17055   0.58363   0.00000  Uiso   1.00
H989   H     0.41725   0.14412   0.63559   0.00000  Uiso   1.00
H990   H     0.42824   0.20248   0.62478   0.00000  Uiso   1.00
C991   C     0.42514   0.15557   0.88345   0.00000  Uiso   1.00
H992   H     0.40114   0.17183   0.90081   0.00000  Uiso   1.00
O993   O     0.41701   0.13870   0.84658   0.00000  Uiso   1.00
C994   C     0.57878   0.17418   0.62526   0.00000  Uiso   1.00
H995   H     0.60360   0.15175   0.62061   0.00000  Uiso   1.00
O996   O     0.58311   0.20395   0.65355   0.00000  Uiso   1.00
C997   C     0.40551   0.08612   0.94793   0.00000  Uiso   1.00
H998   H     0.37532   0.10187   0.94372   0.00000  Uiso   1.00
H999   H     0.41646   0.07626   0.91472   0.00000  Uiso   1.00
H1000  H     0.40151   0.05400   0.96605   0.00000  Uiso   1.00
C1001  C     0.61635   0.20189   0.54463   0.00000  Uiso   1.00
H1002  H     0.60662   0.22854   0.56751   0.00000  Uiso   1.00
H1003  H     0.63903   0.18020   0.56158   0.00000  Uiso   1.00
H1004  H     0.63201   0.22045   0.51767   0.00000  Uiso   1.00
C1005  C     0.40197   0.09568   0.54367   0.00000  Uiso   1.00
H1006  H     0.37089   0.09401   0.52888   0.00000  Uiso   1.00
O1007  O     0.40918   0.07552   0.57840   0.00000  Uiso   1.00
C1008  C     0.61986   0.14386   0.96431   0.00000  Uiso   1.00
H1009  H     0.64911   0.16061   0.97383   0.00000  Uiso   1.00
O1010  O     0.61989   0.10900   0.94263   0.00000  Uiso   1.00
C1011  C     0.37105   0.09058   0.70975   0.00000  Uiso   1.00
H1012  H     0.38833   0.06768   0.73058   0.00000  Uiso   1.00
O1013  O     0.36608   0.08318   0.66946   0.00000  Uiso   1.00
C1014  C     0.62949   0.24378   0.78771   0.00000  Uiso   1.00
H1015  H     0.61236   0.26588   0.76580   0.00000  Uiso   1.00
O1016  O     0.63417   0.25284   0.82771   0.00000  Uiso   1.00
C1017  C     0.61770   0.09495   0.70312   0.00000  Uiso   1.00
H1018  H     0.59202   0.10297   0.68071   0.00000  Uiso   1.00
O1019  O     0.62417   0.05548   0.70981   0.00000  Uiso   1.00
C1020  C     0.38250   0.23545   0.79993   0.00000  Uiso   1.00
H1021  H     0.40633   0.22530   0.82381   0.00000  Uiso   1.00
O1022  O     0.37835   0.27543   0.79368   0.00000  Uiso   1.00
C1023  C     0.55901   0.05067   0.80524   0.00000  Uiso   1.00
H1024  H     0.55423   0.08249   0.82069   0.00000  Uiso   1.00
O1025  O     0.59347   0.03608   0.80892   0.00000  Uiso   1.00
C1026  C     0.44065   0.28296   0.69534   0.00000  Uiso   1.00
H1027  H     0.44478   0.25005   0.68241   0.00000  Uiso   1.00
O1028  O     0.40684   0.29872   0.68953   0.00000  Uiso   1.00
C1029  C     0.45717   0.04530   0.68011   0.00000  Uiso   1.00
H1030  H     0.44465   0.07770   0.68384   0.00000  Uiso   1.00
O1031  O     0.45649   0.02828   0.64269   0.00000  Uiso   1.00
C1032  C     0.54410   0.28786   0.81891   0.00000  Uiso   1.00
H1033  H     0.55590   0.25547   0.81406   0.00000  Uiso   1.00
O1034  O     0.54667   0.30453   0.85654   0.00000  Uiso   1.00
O1035  O     0.77226   0.20487   0.74999   0.00000  Uiso   1.00
O1036  O     0.89441   0.12846   0.75000   0.00000  Uiso   1.00
O1037  O     0.89441   0.20487   0.75000   0.00000  Uiso   1.00
O1038  O     0.77226   0.12846   0.74999   0.00000  Uiso   1.00
C1039  C     0.75342   0.16581   0.75041   0.00000  Uiso   1.00
C1040  C     0.91327   0.16746   0.74925   0.00000  Uiso   1.00
O1041  O     0.83333   0.20489   0.68392   0.00000  Uiso   1.00
O1042  O     0.83334   0.12844   0.81607   0.00000  Uiso   1.00
O1043  O     0.83334   0.20489   0.81607   0.00000  Uiso   1.00
O1044  O     0.83333   0.12844   0.68392   0.00000  Uiso   1.00
C1045  C     0.83366   0.16662   0.66350   0.00000  Uiso   1.00
C1046  C     0.83334   0.16649   0.83648   0.00000  Uiso   1.00
Zn1047 Zn    0.83333   0.21771   0.75000   0.00000  Uiso   1.00
Zn1048 Zn    0.83333   0.11563   0.75000   0.00000  Uiso   1.00
C1049  C     0.87465   0.16456   0.90734   0.00000  Uiso   1.00
C1050  C     0.79934   0.15748   0.58964   0.00000  Uiso   1.00
C1051  C     0.83561   0.16409   0.88472   0.00000  Uiso   1.00
C1052  C     0.83576   0.16631   0.61529   0.00000  Uiso   1.00
C1053  C     0.79960   0.15120   0.90638   0.00000  Uiso   1.00
C1054  C     0.87426   0.16985   0.59575   0.00000  Uiso   1.00
C1055  C     0.80245   0.13936   0.95181   0.00000  Uiso   1.00
C1056  C     0.87608   0.16595   0.54857   0.00000  Uiso   1.00
C1057  C     0.83974   0.14894   0.97652   0.00000  Uiso   1.00
C1058  C     0.83962   0.15151   0.52356   0.00000  Uiso   1.00
C1059  C     0.87672   0.15684   0.95422   0.00000  Uiso   1.00
C1060  C     0.80200   0.14320   0.54491   0.00000  Uiso   1.00
C1061  C     0.76949   0.11764   0.97357   0.00000  Uiso   1.00
C1062  C     0.91298   0.17407   0.52534   0.00000  Uiso   1.00
C1063  C     0.76875   0.12049   0.52065   0.00000  Uiso   1.00
C1064  C     0.91400   0.16058   0.98034   0.00000  Uiso   1.00
C1065  C     0.68537   0.12935   0.73064   0.00000  Uiso   1.00
C1066  C     0.98152   0.20385   0.76867   0.00000  Uiso   1.00
C1067  C     0.97611   0.13154   0.72745   0.00000  Uiso   1.00
C1068  C     0.69065   0.20077   0.77314   0.00000  Uiso   1.00
C1069  C     0.95759   0.16865   0.74702   0.00000  Uiso   1.00
C1070  C     0.70916   0.16431   0.75268   0.00000  Uiso   1.00
C1071  C     0.85903   0.02534   0.77920   0.00000  Uiso   1.00
C1072  C     0.80750   0.30812   0.72103   0.00000  Uiso   1.00
C1073  C     0.80975   0.02265   0.71898   0.00000  Uiso   1.00
C1074  C     0.85705   0.31076   0.78095   0.00000  Uiso   1.00
N1075  N     0.83333   0.28573   0.75000   0.00000  Uiso   1.00
N1076  N     0.83333   0.04760   0.75000   0.00000  Uiso   1.00
C1077  C     0.91293   0.17779   0.88226   0.00000  Uiso   1.00
H1078  H     0.93203   0.20358   0.90150   0.00000  Uiso   1.00
H1079  H     0.93079   0.14795   0.87537   0.00000  Uiso   1.00
H1080  H     0.90617   0.19257   0.84917   0.00000  Uiso   1.00
C1081  C     0.75877   0.16861   0.60937   0.00000  Uiso   1.00
H1082  H     0.73331   0.17055   0.58363   0.00000  Uiso   1.00
H1083  H     0.75058   0.14412   0.63559   0.00000  Uiso   1.00
H1084  H     0.76157   0.20248   0.62478   0.00000  Uiso   1.00
C1085  C     0.75848   0.15557   0.88345   0.00000  Uiso   1.00
H1086  H     0.73448   0.17183   0.90081   0.00000  Uiso   1.00
O1087  O     0.75035   0.13870   0.84658   0.00000  Uiso   1.00
C1088  C     0.91211   0.17418   0.62526   0.00000  Uiso   1.00
H1089  H     0.93693   0.15175   0.62061   0.00000  Uiso   1.00
O1090  O     0.91644   0.20395   0.65355   0.00000  Uiso   1.00
C1091  C     0.73884   0.08612   0.94793   0.00000  Uiso   1.00
H1092  H     0.70866   0.10187   0.94372   0.00000  Uiso   1.00
H1093  H     0.74980   0.07626   0.91472   0.00000  Uiso   1.00
H1094  H     0.73484   0.05400   0.96605   0.00000  Uiso   1.00
C1095  C     0.94968   0.20189   0.54463   0.00000  Uiso   1.00
H1096  H     0.93995   0.22854   0.56751   0.00000  Uiso   1.00
H1097  H     0.97237   0.18020   0.56158   0.00000  Uiso   1.00
H1098  H     0.96534   0.22045   0.51767   0.00000  Uiso   1.00
C1099  C     0.73530   0.09568   0.54367   0.00000  Uiso   1.00
H1100  H     0.70423   0.09401   0.52888   0.00000  Uiso   1.00
O1101  O     0.74251   0.07552   0.57840   0.00000  Uiso   1.00
C1102  C     0.95319   0.14386   0.96431   0.00000  Uiso   1.00
H1103  H     0.98245   0.16061   0.97383   0.00000  Uiso   1.00
O1104  O     0.95322   0.10900   0.94263   0.00000  Uiso   1.00
C1105  C     0.70438   0.09058   0.70975   0.00000  Uiso   1.00
H1106  H     0.72166   0.06768   0.73058   0.00000  Uiso   1.00
O1107  O     0.69942   0.08318   0.66946   0.00000  Uiso   1.00
C1108  C     0.96282   0.24378   0.78771   0.00000  Uiso   1.00
H1109  H     0.94569   0.26588   0.76580   0.00000  Uiso   1.00
O1110  O     0.96751   0.25284   0.82771   0.00000  Uiso   1.00
C1111  C     0.95103   0.09495   0.70312   0.00000  Uiso   1.00
H1112  H     0.92536   0.10297   0.68071   0.00000  Uiso   1.00
O1113  O     0.95750   0.05548   0.70981   0.00000  Uiso   1.00
C1114  C     0.71584   0.23545   0.79993   0.00000  Uiso   1.00
H1115  H     0.73966   0.22530   0.82381   0.00000  Uiso   1.00
O1116  O     0.71168   0.27543   0.79368   0.00000  Uiso   1.00
C1117  C     0.89235   0.05067   0.80524   0.00000  Uiso   1.00
H1118  H     0.88757   0.08249   0.82069   0.00000  Uiso   1.00
O1119  O     0.92680   0.03608   0.80892   0.00000  Uiso   1.00
C1120  C     0.77399   0.28296   0.69534   0.00000  Uiso   1.00
H1121  H     0.77811   0.25005   0.68241   0.00000  Uiso   1.00
O1122  O     0.74017   0.29872   0.68953   0.00000  Uiso   1.00
C1123  C     0.79050   0.04530   0.68011   0.00000  Uiso   1.00
H1124  H     0.77798   0.07770   0.68384   0.00000  Uiso   1.00
O1125  O     0.78982   0.02828   0.64269   0.00000  Uiso   1.00
C1126  C     0.87743   0.28786   0.81891   0.00000  Uiso   1.00
H1127  H     0.88923   0.25547   0.81406   0.00000  Uiso   1.00
O1128  O     0.88000   0.30453   0.85654   0.00000  Uiso   1.00
O1129  O     0.10559   0.53821   0.74999   0.00000  Uiso   1.00
O1130  O     0.22774   0.46179   0.75000   0.00000  Uiso   1.00
O1131  O     0.22774   0.53821   0.75000   0.00000  Uiso   1.00
O1132  O     0.10559   0.46179   0.74999   0.00000  Uiso   1.00
C1133  C     0.08675   0.49914   0.75041   0.00000  Uiso   1.00
C1134  C     0.24660   0.50080   0.74925   0.00000  Uiso   1.00
O1135  O     0.16666   0.53823   0.68392   0.00000  Uiso   1.00
O1136  O     0.16667   0.46177   0.81607   0.00000  Uiso   1.00
O1137  O     0.16667   0.53823   0.81607   0.00000  Uiso   1.00
O1138  O     0.16666   0.46177   0.68392   0.00000  Uiso   1.00
C1139  C     0.16699   0.49995   0.66350   0.00000  Uiso   1.00
C1140  C     0.16667   0.49982   0.83648   0.00000  Uiso   1.00
Zn1141 Zn    0.16667   0.55104   0.75000   0.00000  Uiso   1.00
Zn1142 Zn    0.16667   0.44896   0.75000   0.00000  Uiso   1.00
C1143  C     0.20799   0.49789   0.90734   0.00000  Uiso   1.00
C1144  C     0.13267   0.49081   0.58964   0.00000  Uiso   1.00
C1145  C     0.16894   0.49742   0.88472   0.00000  Uiso   1.00
C1146  C     0.16909   0.49965   0.61529   0.00000  Uiso   1.00
C1147  C     0.13293   0.48454   0.90638   0.00000  Uiso   1.00
C1148  C     0.20759   0.50318   0.59575   0.00000  Uiso   1.00
C1149  C     0.13578   0.47269   0.95181   0.00000  Uiso   1.00
C1150  C     0.20941   0.49929   0.54857   0.00000  Uiso   1.00
C1151  C     0.17307   0.48227   0.97652   0.00000  Uiso   1.00
C1152  C     0.17295   0.48484   0.52356   0.00000  Uiso   1.00
C1153  C     0.21005   0.49017   0.95422   0.00000  Uiso   1.00
C1154  C     0.13533   0.47654   0.54491   0.00000  Uiso   1.00
C1155  C     0.10282   0.45097   0.97357   0.00000  Uiso   1.00
C1156  C     0.24632   0.50741   0.52534   0.00000  Uiso   1.00
C1157  C     0.10208   0.45382   0.52065   0.00000  Uiso   1.00
C1158  C     0.24733   0.49392   0.98034   0.00000  Uiso   1.00
C1159  C     0.01870   0.46268   0.73064   0.00000  Uiso   1.00
C1160  C     0.31485   0.53718   0.76867   0.00000  Uiso   1.00
C1161  C     0.30945   0.46487   0.72745   0.00000  Uiso   1.00
C1162  C     0.02398   0.53410   0.77314   0.00000  Uiso   1.00
C1163  C     0.29092   0.50199   0.74702   0.00000  Uiso   1.00
C1164  C     0.04249   0.49764   0.75268   0.00000  Uiso   1.00
C1165  C     0.19236   0.35867   0.77920   0.00000  Uiso   1.00
C1166  C     0.14083   0.64145   0.72103   0.00000  Uiso   1.00
C1167  C     0.14308   0.35598   0.71898   0.00000  Uiso   1.00
C1168  C     0.19038   0.64409   0.78095   0.00000  Uiso   1.00
N1169  N     0.16667   0.61907   0.75000   0.00000  Uiso   1.00
N1170  N     0.16667   0.38093   0.75000   0.00000  Uiso   1.00
C1171  C     0.24626   0.51113   0.88226   0.00000  Uiso   1.00
H1172  H     0.26536   0.53691   0.90150   0.00000  Uiso   1.00
H1173  H     0.26412   0.48128   0.87537   0.00000  Uiso   1.00
H1174  H     0.23950   0.52591   0.84917   0.00000  Uiso   1.00
C1175  C     0.09211   0.50195   0.60937   0.00000  Uiso   1.00
H1176  H     0.06665   0.50388   0.58363   0.00000  Uiso   1.00
H1177  H     0.08391   0.47745   0.63559   0.00000  Uiso   1.00
H1178  H     0.09490   0.53582   0.62478   0.00000  Uiso   1.00
C1179  C     0.09181   0.48891   0.88345   0.00000  Uiso   1.00
H1180  H     0.06781   0.50516   0.90081   0.00000  Uiso   1.00
O1181  O     0.08368   0.47203   0.84658   0.00000  Uiso   1.00
C1182  C     0.24544   0.50751   0.62526   0.00000  Uiso   1.00
H1183  H     0.27027   0.48508   0.62061   0.00000  Uiso   1.00
O1184  O     0.24977   0.53728   0.65355   0.00000  Uiso   1.00
C1185  C     0.07217   0.41945   0.94793   0.00000  Uiso   1.00
H1186  H     0.04199   0.43520   0.94372   0.00000  Uiso   1.00
H1187  H     0.08313   0.40959   0.91472   0.00000  Uiso   1.00
H1188  H     0.06817   0.38733   0.96605   0.00000  Uiso   1.00
C1189  C     0.28301   0.53523   0.54463   0.00000  Uiso   1.00
H1190  H     0.27329   0.56187   0.56751   0.00000  Uiso   1.00
H1191  H     0.30570   0.51353   0.56158   0.00000  Uiso   1.00
H1192  H     0.29867   0.55378   0.51767   0.00000  Uiso   1.00
C1193  C     0.06863   0.42901   0.54367   0.00000  Uiso   1.00
H1194  H     0.03756   0.42734   0.52888   0.00000  Uiso   1.00
O1195  O     0.07585   0.40886   0.57840   0.00000  Uiso   1.00
C1196  C     0.28652   0.47720   0.96431   0.00000  Uiso   1.00
H1197  H     0.31578   0.49395   0.97383   0.00000  Uiso   1.00
O1198  O     0.28656   0.44233   0.94263   0.00000  Uiso   1.00
C1199  C     0.03771   0.42391   0.70975   0.00000  Uiso   1.00
H1200  H     0.05500   0.40101   0.73058   0.00000  Uiso   1.00
O1201  O     0.03275   0.41651   0.66946   0.00000  Uiso   1.00
C1202  C     0.29615   0.57712   0.78771   0.00000  Uiso   1.00
H1203  H     0.27902   0.59921   0.76580   0.00000  Uiso   1.00
O1204  O     0.30084   0.58617   0.82771   0.00000  Uiso   1.00
C1205  C     0.28436   0.42828   0.70312   0.00000  Uiso   1.00
H1206  H     0.25869   0.43630   0.68071   0.00000  Uiso   1.00
O1207  O     0.29084   0.38882   0.70981   0.00000  Uiso   1.00
C1208  C     0.04917   0.56879   0.79993   0.00000  Uiso   1.00
H1209  H     0.07300   0.55863   0.82381   0.00000  Uiso   1.00
O1210  O     0.04501   0.60877   0.79368   0.00000  Uiso   1.00
C1211  C     0.22568   0.38400   0.80524   0.00000  Uiso   1.00
H1212  H     0.22090   0.41583   0.82069   0.00000  Uiso   1.00
O1213  O     0.26014   0.36941   0.80892   0.00000  Uiso   1.00
C1214  C     0.10732   0.61629   0.69534   0.00000  Uiso   1.00
H1215  H     0.11144   0.58338   0.68241   0.00000  Uiso   1.00
O1216  O     0.07350   0.63205   0.68953   0.00000  Uiso   1.00
C1217  C     0.12384   0.37864   0.68011   0.00000  Uiso   1.00
H1218  H     0.11131   0.41103   0.68384   0.00000  Uiso   1.00
O1219  O     0.12315   0.36162   0.64269   0.00000  Uiso   1.00
C1220  C     0.21077   0.62120   0.81891   0.00000  Uiso   1.00
H1221  H     0.22257   0.58880   0.81406   0.00000  Uiso   1.00
O1222  O     0.21334   0.63787   0.85654   0.00000  Uiso   1.00
O1223  O     0.43892   0.53821   0.74999   0.00000  Uiso   1.00
O1224  O     0.56108   0.46179   0.75000   0.00000  Uiso   1.00
O1225  O     0.56108   0.53821   0.75000   0.00000  Uiso   1.00
O1226  O     0.43892   0.46179   0.74999   0.00000  Uiso   1.00
C1227  C     0.42008   0.49914   0.75041   0.00000  Uiso   1.00
C1228  C     0.57994   0.50080   0.74925   0.00000  Uiso   1.00
O1229  O     0.49999   0.53823   0.68392   0.00000  Uiso   1.00
O1230  O     0.50001   0.46177   0.81607   0.00000  Uiso   1.00
O1231  O     0.50001   0.53823   0.81607   0.00000  Uiso   1.00
O1232  O     0.49999   0.46177   0.68392   0.00000  Uiso   1.00
C1233  C     0.50033   0.49995   0.66350   0.00000  Uiso   1.00
C1234  C     0.50001   0.49982   0.83648   0.00000  Uiso   1.00
Zn1235 Zn    0.50000   0.55104   0.75000   0.00000  Uiso   1.00
Zn1236 Zn    0.50000   0.44896   0.75000   0.00000  Uiso   1.00
C1237  C     0.54132   0.49789   0.90734   0.00000  Uiso   1.00
C1238  C     0.46600   0.49081   0.58964   0.00000  Uiso   1.00
C1239  C     0.50228   0.49742   0.88472   0.00000  Uiso   1.00
C1240  C     0.50242   0.49965   0.61529   0.00000  Uiso   1.00
C1241  C     0.46627   0.48454   0.90638   0.00000  Uiso   1.00
C1242  C     0.54093   0.50318   0.59575   0.00000  Uiso   1.00
C1243  C     0.46911   0.47269   0.95181   0.00000  Uiso   1.00
C1244  C     0.54275   0.49929   0.54857   0.00000  Uiso   1.00
C1245  C     0.50640   0.48227   0.97652   0.00000  Uiso   1.00
C1246  C     0.50629   0.48484   0.52356   0.00000  Uiso   1.00
C1247  C     0.54338   0.49017   0.95422   0.00000  Uiso   1.00
C1248  C     0.46866   0.47654   0.54491   0.00000  Uiso   1.00
C1249  C     0.43615   0.45097   0.97357   0.00000  Uiso   1.00
C1250  C     0.57965   0.50741   0.52534   0.00000  Uiso   1.00
C1251  C     0.43542   0.45382   0.52065   0.00000  Uiso   1.00
C1252  C     0.58066   0.49392   0.98034   0.00000  Uiso   1.00
C1253  C     0.35204   0.46268   0.73064   0.00000  Uiso   1.00
C1254  C     0.64818   0.53718   0.76867   0.00000  Uiso   1.00
C1255  C     0.64278   0.46487   0.72745   0.00000  Uiso   1.00
C1256  C     0.35732   0.53410   0.77314   0.00000  Uiso   1.00
C1257  C     0.62426   0.50199   0.74702   0.00000  Uiso   1.00
C1258  C     0.37582   0.49764   0.75268   0.00000  Uiso   1.00
C1259  C     0.52569   0.35867   0.77920   0.00000  Uiso   1.00
C1260  C     0.47417   0.64145   0.72103   0.00000  Uiso   1.00
C1261  C     0.47642   0.35598   0.71898   0.00000  Uiso   1.00
C1262  C     0.52372   0.64409   0.78095   0.00000  Uiso   1.00
N1263  N     0.50000   0.61907   0.75000   0.00000  Uiso   1.00
N1264  N     0.50000   0.38093   0.75000   0.00000  Uiso   1.00
C1265  C     0.57959   0.51113   0.88226   0.00000  Uiso   1.00
H1266  H     0.59870   0.53691   0.90150   0.00000  Uiso   1.00
H1267  H     0.59745   0.48128   0.87537   0.00000  Uiso   1.00
H1268  H     0.57284   0.52591   0.84917   0.00000  Uiso   1.00
C1269  C     0.42544   0.50195   0.60937   0.00000  Uiso   1.00
H1270  H     0.39998   0.50388   0.58363   0.00000  Uiso   1.00
H1271  H     0.41725   0.47745   0.63559   0.00000  Uiso   1.00
H1272  H     0.42824   0.53582   0.62478   0.00000  Uiso   1.00
C1273  C     0.42514   0.48891   0.88345   0.00000  Uiso   1.00
H1274  H     0.40114   0.50516   0.90081   0.00000  Uiso   1.00
O1275  O     0.41701   0.47203   0.84658   0.00000  Uiso   1.00
C1276  C     0.57878   0.50751   0.62526   0.00000  Uiso   1.00
H1277  H     0.60360   0.48508   0.62061   0.00000  Uiso   1.00
O1278  O     0.58311   0.53728   0.65355   0.00000  Uiso   1.00
C1279  C     0.40551   0.41945   0.94793   0.00000  Uiso   1.00
H1280  H     0.37532   0.43520   0.94372   0.00000  Uiso   1.00
H1281  H     0.41646   0.40959   0.91472   0.00000  Uiso   1.00
H1282  H     0.40151   0.38733   0.96605   0.00000  Uiso   1.00
C1283  C     0.61635   0.53523   0.54463   0.00000  Uiso   1.00
H1284  H     0.60662   0.56187   0.56751   0.00000  Uiso   1.00
H1285  H     0.63903   0.51353   0.56158   0.00000  Uiso   1.00
H1286  H     0.63201   0.55378   0.51767   0.00000  Uiso   1.00
C1287  C     0.40197   0.42901   0.54367   0.00000  Uiso   1.00
H1288  H     0.37089   0.42734   0.52888   0.00000  Uiso   1.00
O1289  O     0.40918   0.40886   0.57840   0.00000  Uiso   1.00
C1290  C     0.61986   0.47720   0.96431   0.00000  Uiso   1.00
H1291  H     0.64911   0.49395   0.97383   0.00000  Uiso   1.00
O1292  O     0.61989   0.44233   0.94263   0.00000  Uiso   1.00
C1293  C     0.37105   0.42391   0.70975   0.00000  Uiso   1.00
H1294  H     0.38833   0.40101   0.73058   0.00000  Uiso   1.00
O1295  O     0.36608   0.41651   0.66946   0.00000  Uiso   1.00
C1296  C     0.62949   0.57712   0.78771   0.00000  Uiso   1.00
H1297  H     0.61236   0.59921   0.76580   0.00000  Uiso   1.00
O1298  O     0.63417   0.58617   0.82771   0.00000  Uiso   1.00
C1299  C     0.61770   0.42828   0.70312   0.00000  Uiso   1.00
H1300  H     0.59202   0.43630   0.68071   0.00000  Uiso   1.00
O1301  O     0.62417   0.38882   0.70981   0.00000  Uiso   1.00
C1302  C     0.38250   0.56879   0.79993   0.00000  Uiso   1.00
H1303  H     0.40633   0.55863   0.82381   0.00000  Uiso   1.00
O1304  O     0.37835   0.60877   0.79368   0.00000  Uiso   1.00
C1305  C     0.55901   0.38400   0.80524   0.00000  Uiso   1.00
H1306  H     0.55423   0.41583   0.82069   0.00000  Uiso   1.00
O1307  O     0.59347   0.36941   0.80892   0.00000  Uiso   1.00
C1308  C     0.44065   0.61629   0.69534   0.00000  Uiso   1.00
H1309  H     0.44478   0.58338   0.68241   0.00000  Uiso   1.00
O1310  O     0.40684   0.63205   0.68953   0.00000  Uiso   1.00
C1311  C     0.45717   0.37864   0.68011   0.00000  Uiso   1.00
H1312  H     0.44465   0.41103   0.68384   0.00000  Uiso   1.00
O1313  O     0.45649   0.36162   0.64269   0.00000  Uiso   1.00
C1314  C     0.54410   0.62120   0.81891   0.00000  Uiso   1.00
H1315  H     0.55590   0.58880   0.81406   0.00000  Uiso   1.00
O1316  O     0.54667   0.63787   0.85654   0.00000  Uiso   1.00
O1317  O     0.77226   0.53821   0.74999   0.00000  Uiso   1.00
O1318  O     0.89441   0.46179   0.75000   0.00000  Uiso   1.00
O1319  O     0.89441   0.53821   0.75000   0.00000  Uiso   1.00
O1320  O     0.77226   0.46179   0.74999   0.00000  Uiso   1.00
C1321  C     0.75342   0.49914   0.75041   0.00000  Uiso   1.00
C1322  C     0.91327   0.50080   0.74925   0.00000  Uiso   1.00
O1323  O     0.83333   0.53823   0.68392   0.00000  Uiso   1.00
O1324  O     0.83334   0.46177   0.81607   0.00000  Uiso   1.00
O1325  O     0.83334   0.53823   0.81607   0.00000  Uiso   1.00
O1326  O     0.83333   0.46177   0.68392   0.00000  Uiso   1.00
C1327  C     0.83366   0.49995   0.66350   0.00000  Uiso   1.00
C1328  C     0.83334   0.49982   0.83648   0.00000  Uiso   1.00
Zn1329 Zn    0.83333   0.55104   0.75000   0.00000  Uiso   1.00
Zn1330 Zn    0.83333   0.44896   0.75000   0.00000  Uiso   1.00
C1331  C     0.87465   0.49789   0.90734   0.00000  Uiso   1.00
C1332  C     0.79934   0.49081   0.58964   0.00000  Uiso   1.00
C1333  C     0.83561   0.49742   0.88472   0.00000  Uiso   1.00
C1334  C     0.83576   0.49965   0.61529   0.00000  Uiso   1.00
C1335  C     0.79960   0.48454   0.90638   0.00000  Uiso   1.00
C1336  C     0.87426   0.50318   0.59575   0.00000  Uiso   1.00
C1337  C     0.80245   0.47269   0.95181   0.00000  Uiso   1.00
C1338  C     0.87608   0.49929   0.54857   0.00000  Uiso   1.00
C1339  C     0.83974   0.48227   0.97652   0.00000  Uiso   1.00
C1340  C     0.83962   0.48484   0.52356   0.00000  Uiso   1.00
C1341  C     0.87672   0.49017   0.95422   0.00000  Uiso   1.00
C1342  C     0.80200   0.47654   0.54491   0.00000  Uiso   1.00
C1343  C     0.76949   0.45097   0.97357   0.00000  Uiso   1.00
C1344  C     0.91298   0.50741   0.52534   0.00000  Uiso   1.00
C1345  C     0.76875   0.45382   0.52065   0.00000  Uiso   1.00
C1346  C     0.91400   0.49392   0.98034   0.00000  Uiso   1.00
C1347  C     0.68537   0.46268   0.73064   0.00000  Uiso   1.00
C1348  C     0.98152   0.53718   0.76867   0.00000  Uiso   1.00
C1349  C     0.97611   0.46487   0.72745   0.00000  Uiso   1.00
C1350  C     0.69065   0.53410   0.77314   0.00000  Uiso   1.00
C1351  C     0.95759   0.50199   0.74702   0.00000  Uiso   1.00
C1352  C     0.70916   0.49764   0.75268   0.00000  Uiso   1.00
C1353  C     0.85903   0.35867   0.77920   0.00000  Uiso   1.00
C1354  C     0.80750   0.64145   0.72103   0.00000  Uiso   1.00
C1355  C     0.80975   0.35598   0.71898   0.00000  Uiso   1.00
C1356  C     0.85705   0.64409   0.78095   0.00000  Uiso   1.00
N1357  N     0.83333   0.61907   0.75000   0.00000  Uiso   1.00
N1358  N     0.83333   0.38093   0.75000   0.00000  Uiso   1.00
C1359  C     0.91293   0.51113   0.88226   0.00000  Uiso   1.00
H1360  H     0.93203   0.53691   0.90150   0.00000  Uiso   1.00
H1361  H     0.93079   0.48128   0.87537   0.00000  Uiso   1.00
H1362  H     0.90617   0.52591   0.84917   0.00000  Uiso   1.00
C1363  C     0.75877   0.50195   0.60937   0.00000  Uiso   1.00
H1364  H     0.73331   0.50388   0.58363   0.00000  Uiso   1.00
H1365  H     0.75058   0.47745   0.63559   0.00000  Uiso   1.00
H1366  H     0.76157   0.53582   0.62478   0.00000  Uiso   1.00
C1367  C     0.75848   0.48891   0.88345   0.00000  Uiso   1.00
H1368  H     0.73448   0.50516   0.90081   0.00000  Uiso   1.00
O1369  O     0.75035   0.47203   0.84658   0.00000  Uiso   1.00
C1370  C     0.91211   0.50751   0.62526   0.00000  Uiso   1.00
H1371  H     0.93693   0.48508   0.62061   0.00000  Uiso   1.00
O1372  O     0.91644   0.53728   0.65355   0.00000  Uiso   1.00
C1373  C     0.73884   0.41945   0.94793   0.00000  Uiso   1.00
H1374  H     0.70866   0.43520   0.94372   0.00000  Uiso   1.00
H1375  H     0.74980   0.40959   0.91472   0.00000  Uiso   1.00
H1376  H     0.73484   0.38733   0.96605   0.00000  Uiso   1.00
C1377  C     0.94968   0.53523   0.54463   0.00000  Uiso   1.00
H1378  H     0.93995   0.56187   0.56751   0.00000  Uiso   1.00
H1379  H     0.97237   0.51353   0.56158   0.00000  Uiso   1.00
H1380  H     0.96534   0.55378   0.51767   0.00000  Uiso   1.00
C1381  C     0.73530   0.42901   0.54367   0.00000  Uiso   1.00
H1382  H     0.70423   0.42734   0.52888   0.00000  Uiso   1.00
O1383  O     0.74251   0.40886   0.57840   0.00000  Uiso   1.00
C1384  C     0.95319   0.47720   0.96431   0.00000  Uiso   1.00
H1385  H     0.98245   0.49395   0.97383   0.00000  Uiso   1.00
O1386  O     0.95322   0.44233   0.94263   0.00000  Uiso   1.00
C1387  C     0.70438   0.42391   0.70975   0.00000  Uiso   1.00
H1388  H     0.72166   0.40101   0.73058   0.00000  Uiso   1.00
O1389  O     0.69942   0.41651   0.66946   0.00000  Uiso   1.00
C1390  C     0.96282   0.57712   0.78771   0.00000  Uiso   1.00
H1391  H     0.94569   0.59921   0.76580   0.00000  Uiso   1.00
O1392  O     0.96751   0.58617   0.82771   0.00000  Uiso   1.00
C1393  C     0.95103   0.42828   0.70312   0.00000  Uiso   1.00
H1394  H     0.92536   0.43630   0.68071   0.00000  Uiso   1.00
O1395  O     0.95750   0.38882   0.70981   0.00000  Uiso   1.00
C1396  C     0.71584   0.56879   0.79993   0.00000  Uiso   1.00
H1397  H     0.73966   0.55863   0.82381   0.00000  Uiso   1.00
O1398  O     0.71168   0.60877   0.79368   0.00000  Uiso   1.00
C1399  C     0.89235   0.38400   0.80524   0.00000  Uiso   1.00
H1400  H     0.88757   0.41583   0.82069   0.00000  Uiso   1.00
O1401  O     0.92680   0.36941   0.80892   0.00000  Uiso   1.00
C1402  C     0.77399   0.61629   0.69534   0.00000  Uiso   1.00
H1403  H     0.77811   0.58338   0.68241   0.00000  Uiso   1.00
O1404  O     0.74017   0.63205   0.68953   0.00000  Uiso   1.00
C1405  C     0.79050   0.37864   0.68011   0.00000  Uiso   1.00
H1406  H     0.77798   0.41103   0.68384   0.00000  Uiso   1.00
O1407  O     0.78982   0.36162   0.64269   0.00000  Uiso   1.00
C1408  C     0.87743   0.62120   0.81891   0.00000  Uiso   1.00
H1409  H     0.88923   0.58880   0.81406   0.00000  Uiso   1.00
O1410  O     0.88000   0.63787   0.85654   0.00000  Uiso   1.00
O1411  O     0.10559   0.87154   0.74999   0.00000  Uiso   1.00
O1412  O     0.22774   0.79513   0.75000   0.00000  Uiso   1.00
O1413  O     0.22774   0.87154   0.75000   0.00000  Uiso   1.00
O1414  O     0.10559   0.79513   0.74999   0.00000  Uiso   1.00
C1415  C     0.08675   0.83247   0.75041   0.00000  Uiso   1.00
C1416  C     0.24660   0.83413   0.74925   0.00000  Uiso   1.00
O1417  O     0.16666   0.87156   0.68392   0.00000  Uiso   1.00
O1418  O     0.16667   0.79511   0.81607   0.00000  Uiso   1.00
O1419  O     0.16667   0.87156   0.81607   0.00000  Uiso   1.00
O1420  O     0.16666   0.79511   0.68392   0.00000  Uiso   1.00
C1421  C     0.16699   0.83328   0.66350   0.00000  Uiso   1.00
C1422  C     0.16667   0.83316   0.83648   0.00000  Uiso   1.00
Zn1423 Zn    0.16667   0.88437   0.75000   0.00000  Uiso   1.00
Zn1424 Zn    0.16667   0.78229   0.75000   0.00000  Uiso   1.00
C1425  C     0.20799   0.83122   0.90734   0.00000  Uiso   1.00
C1426  C     0.13267   0.82414   0.58964   0.00000  Uiso   1.00
C1427  C     0.16894   0.83076   0.88472   0.00000  Uiso   1.00
C1428  C     0.16909   0.83298   0.61529   0.00000  Uiso   1.00
C1429  C     0.13293   0.81787   0.90638   0.00000  Uiso   1.00
C1430  C     0.20759   0.83652   0.59575   0.00000  Uiso   1.00
C1431  C     0.13578   0.80603   0.95181   0.00000  Uiso   1.00
C1432  C     0.20941   0.83262   0.54857   0.00000  Uiso   1.00
C1433  C     0.17307   0.81560   0.97652   0.00000  Uiso   1.00
C1434  C     0.17295   0.81818   0.52356   0.00000  Uiso   1.00
C1435  C     0.21005   0.82351   0.95422   0.00000  Uiso   1.00
C1436  C     0.13533   0.80987   0.54491   0.00000  Uiso   1.00
C1437  C     0.10282   0.78431   0.97357   0.00000  Uiso   1.00
C1438  C     0.24632   0.84074   0.52534   0.00000  Uiso   1.00
C1439  C     0.10208   0.78716   0.52065   0.00000  Uiso   1.00
C1440  C     0.24733   0.82725   0.98034   0.00000  Uiso   1.00
C1441  C     0.01870   0.79602   0.73064   0.00000  Uiso   1.00
C1442  C     0.31485   0.87051   0.76867   0.00000  Uiso   1.00
C1443  C     0.30945   0.79821   0.72745   0.00000  Uiso   1.00
C1444  C     0.02398   0.86743   0.77314   0.00000  Uiso   1.00
C1445  C     0.29092   0.83532   0.74702   0.00000  Uiso   1.00
C1446  C     0.04249   0.83097   0.75268   0.00000  Uiso   1.00
C1447  C     0.19236   0.69201   0.77920   0.00000  Uiso   1.00
C1448  C     0.14083   0.97478   0.72103   0.00000  Uiso   1.00
C1449  C     0.14308   0.68931   0.71898   0.00000  Uiso   1.00
C1450  C     0.19038   0.97743   0.78095   0.00000  Uiso   1.00
N1451  N     0.16667   0.95240   0.75000   0.00000  Uiso   1.00
N1452  N     0.16667   0.71427   0.75000   0.00000  Uiso   1.00
C1453  C     0.24626   0.84446   0.88226   0.00000  Uiso   1.00
H1454  H     0.26536   0.87025   0.90150   0.00000  Uiso   1.00
H1455  H     0.26412   0.81462   0.87537   0.00000  Uiso   1.00
H1456  H     0.23950   0.85924   0.84917   0.00000  Uiso   1.00
C1457  C     0.09211   0.83528   0.60937   0.00000  Uiso   1.00
H1458  H     0.06665   0.83722   0.58363   0.00000  Uiso   1.00
H1459  H     0.08391   0.81079   0.63559   0.00000  Uiso   1.00
H1460  H     0.09490   0.86915   0.62478   0.00000  Uiso   1.00
C1461  C     0.09181   0.82224   0.88345   0.00000  Uiso   1.00
H1462  H     0.06781   0.83850   0.90081   0.00000  Uiso   1.00
O1463  O     0.08368   0.80537   0.84658   0.00000  Uiso   1.00
C1464  C     0.24544   0.84084   0.62526   0.00000  Uiso   1.00
H1465  H     0.27027   0.81841   0.62061   0.00000  Uiso   1.00
O1466  O     0.24977   0.87061   0.65355   0.00000  Uiso   1.00
C1467  C     0.07217   0.75279   0.94793   0.00000  Uiso   1.00
H1468  H     0.04199   0.76853   0.94372   0.00000  Uiso   1.00
H1469  H     0.08313   0.74292   0.91472   0.00000  Uiso   1.00
H1470  H     0.06817   0.72066   0.96605   0.00000  Uiso   1.00
C1471  C     0.28301   0.86856   0.54463   0.00000  Uiso   1.00
H1472  H     0.27329   0.89521   0.56751   0.00000  Uiso   1.00
H1473  H     0.30570   0.84686   0.56158   0.00000  Uiso   1.00
H1474  H     0.29867   0.88712   0.51767   0.00000  Uiso   1.00
C1475  C     0.06863   0.76234   0.54367   0.00000  Uiso   1.00
H1476  H     0.03756   0.76067   0.52888   0.00000  Uiso   1.00
O1477  O     0.07585   0.74219   0.57840   0.00000  Uiso   1.00
C1478  C     0.28652   0.81053   0.96431   0.00000  Uiso   1.00
H1479  H     0.31578   0.82728   0.97383   0.00000  Uiso   1.00
O1480  O     0.28656   0.77567   0.94263   0.00000  Uiso   1.00
C1481  C     0.03771   0.75725   0.70975   0.00000  Uiso   1.00
H1482  H     0.05500   0.73435   0.73058   0.00000  Uiso   1.00
O1483  O     0.03275   0.74985   0.66946   0.00000  Uiso   1.00
C1484  C     0.29615   0.91045   0.78771   0.00000  Uiso   1.00
H1485  H     0.27902   0.93254   0.76580   0.00000  Uiso   1.00
O1486  O     0.30084   0.91950   0.82771   0.00000  Uiso   1.00
C1487  C     0.28436   0.76161   0.70312   0.00000  Uiso   1.00
H1488  H     0.25869   0.76964   0.68071   0.00000  Uiso   1.00
O1489  O     0.29084   0.72215   0.70981   0.00000  Uiso   1.00
C1490  C     0.04917   0.90212   0.79993   0.00000  Uiso   1.00
H1491  H     0.07300   0.89196   0.82381   0.00000  Uiso   1.00
O1492  O     0.04501   0.94210   0.79368   0.00000  Uiso   1.00
C1493  C     0.22568   0.71733   0.80524   0.00000  Uiso   1.00
H1494  H     0.22090   0.74916   0.82069   0.00000  Uiso   1.00
O1495  O     0.26014   0.70275   0.80892   0.00000  Uiso   1.00
C1496  C     0.10732   0.94962   0.69534   0.00000  Uiso   1.00
H1497  H     0.11144   0.91672   0.68241   0.00000  Uiso   1.00
O1498  O     0.07350   0.96539   0.68953   0.00000  Uiso   1.00
C1499  C     0.12384   0.71197   0.68011   0.00000  Uiso   1.00
H1500  H     0.11131   0.74436   0.68384   0.00000  Uiso   1.00
O1501  O     0.12315   0.69495   0.64269   0.00000  Uiso   1.00
C1502  C     0.21077   0.95453   0.81891   0.00000  Uiso   1.00
H1503  H     0.22257   0.92213   0.81406   0.00000  Uiso   1.00
O1504  O     0.21334   0.97120   0.85654   0.00000  Uiso   1.00
O1505  O     0.43892   0.87154   0.74999   0.00000  Uiso   1.00
O1506  O     0.56108   0.79513   0.75000   0.00000  Uiso   1.00
O1507  O     0.56108   0.87154   0.75000   0.00000  Uiso   1.00
O1508  O     0.43892   0.79513   0.74999   0.00000  Uiso   1.00
C1509  C     0.42008   0.83247   0.75041   0.00000  Uiso   1.00
C1510  C     0.57994   0.83413   0.74925   0.00000  Uiso   1.00
O1511  O     0.49999   0.87156   0.68392   0.00000  Uiso   1.00
O1512  O     0.50001   0.79511   0.81607   0.00000  Uiso   1.00
O1513  O     0.50001   0.87156   0.81607   0.00000  Uiso   1.00
O1514  O     0.49999   0.79511   0.68392   0.00000  Uiso   1.00
C1515  C     0.50033   0.83328   0.66350   0.00000  Uiso   1.00
C1516  C     0.50001   0.83316   0.83648   0.00000  Uiso   1.00
Zn1517 Zn    0.50000   0.88437   0.75000   0.00000  Uiso   1.00
Zn1518 Zn    0.50000   0.78229   0.75000   0.00000  Uiso   1.00
C1519  C     0.54132   0.83122   0.90734   0.00000  Uiso   1.00
C1520  C     0.46600   0.82414   0.58964   0.00000  Uiso   1.00
C1521  C     0.50228   0.83076   0.88472   0.00000  Uiso   1.00
C1522  C     0.50242   0.83298   0.61529   0.00000  Uiso   1.00
C1523  C     0.46627   0.81787   0.90638   0.00000  Uiso   1.00
C1524  C     0.54093   0.83652   0.59575   0.00000  Uiso   1.00
C1525  C     0.46911   0.80603   0.95181   0.00000  Uiso   1.00
C1526  C     0.54275   0.83262   0.54857   0.00000  Uiso   1.00
C1527  C     0.50640   0.81560   0.97652   0.00000  Uiso   1.00
C1528  C     0.50629   0.81818   0.52356   0.00000  Uiso   1.00
C1529  C     0.54338   0.82351   0.95422   0.00000  Uiso   1.00
C1530  C     0.46866   0.80987   0.54491   0.00000  Uiso   1.00
C1531  C     0.43615   0.78431   0.97357   0.00000  Uiso   1.00
C1532  C     0.57965   0.84074   0.52534   0.00000  Uiso   1.00
C1533  C     0.43542   0.78716   0.52065   0.00000  Uiso   1.00
C1534  C     0.58066   0.82725   0.98034   0.00000  Uiso   1.00
C1535  C     0.35204   0.79602   0.73064   0.00000  Uiso   1.00
C1536  C     0.64818   0.87051   0.76867   0.00000  Uiso   1.00
C1537  C     0.64278   0.79821   0.72745   0.00000  Uiso   1.00
C1538  C     0.35732   0.86743   0.77314   0.00000  Uiso   1.00
C1539  C     0.62426   0.83532   0.74702   0.00000  Uiso   1.00
C1540  C     0.37582   0.83097   0.75268   0.00000  Uiso   1.00
C1541  C     0.52569   0.69201   0.77920   0.00000  Uiso   1.00
C1542  C     0.47417   0.97478   0.72103   0.00000  Uiso   1.00
C1543  C     0.47642   0.68931   0.71898   0.00000  Uiso   1.00
C1544  C     0.52372   0.97743   0.78095   0.00000  Uiso   1.00
N1545  N     0.50000   0.95240   0.75000   0.00000  Uiso   1.00
N1546  N     0.50000   0.71427   0.75000   0.00000  Uiso   1.00
C1547  C     0.57959   0.84446   0.88226   0.00000  Uiso   1.00
H1548  H     0.59870   0.87025   0.90150   0.00000  Uiso   1.00
H1549  H     0.59745   0.81462   0.87537   0.00000  Uiso   1.00
H1550  H     0.57284   0.85924   0.84917   0.00000  Uiso   1.00
C1551  C     0.42544   0.83528   0.60937   0.00000  Uiso   1.00
H1552  H     0.39998   0.83722   0.58363   0.00000  Uiso   1.00
H1553  H     0.41725   0.81079   0.63559   0.00000  Uiso   1.00
H1554  H     0.42824   0.86915   0.62478   0.00000  Uiso   1.00
C1555  C     0.42514   0.82224   0.88345   0.00000  Uiso   1.00
H1556  H     0.40114   0.83850   0.90081   0.00000  Uiso   1.00
O1557  O     0.41701   0.80537   0.84658   0.00000  Uiso   1.00
C1558  C     0.57878   0.84084   0.62526   0.00000  Uiso   1.00
H1559  H     0.60360   0.81841   0.62061   0.00000  Uiso   1.00
O1560  O     0.58311   0.87061   0.65355   0.00000  Uiso   1.00
C1561  C     0.40551   0.75279   0.94793   0.00000  Uiso   1.00
H1562  H     0.37532   0.76853   0.94372   0.00000  Uiso   1.00
H1563  H     0.41646   0.74292   0.91472   0.00000  Uiso   1.00
H1564  H     0.40151   0.72066   0.96605   0.00000  Uiso   1.00
C1565  C     0.61635   0.86856   0.54463   0.00000  Uiso   1.00
H1566  H     0.60662   0.89521   0.56751   0.00000  Uiso   1.00
H1567  H     0.63903   0.84686   0.56158   0.00000  Uiso   1.00
H1568  H     0.63201   0.88712   0.51767   0.00000  Uiso   1.00
C1569  C     0.40197   0.76234   0.54367   0.00000  Uiso   1.00
H1570  H     0.37089   0.76067   0.52888   0.00000  Uiso   1.00
O1571  O     0.40918   0.74219   0.57840   0.00000  Uiso   1.00
C1572  C     0.61986   0.81053   0.96431   0.00000  Uiso   1.00
H1573  H     0.64911   0.82728   0.97383   0.00000  Uiso   1.00
O1574  O     0.61989   0.77567   0.94263   0.00000  Uiso   1.00
C1575  C     0.37105   0.75725   0.70975   0.00000  Uiso   1.00
H1576  H     0.38833   0.73435   0.73058   0.00000  Uiso   1.00
O1577  O     0.36608   0.74985   0.66946   0.00000  Uiso   1.00
C1578  C     0.62949   0.91045   0.78771   0.00000  Uiso   1.00
H1579  H     0.61236   0.93254   0.76580   0.00000  Uiso   1.00
O1580  O     0.63417   0.91950   0.82771   0.00000  Uiso   1.00
C1581  C     0.61770   0.76161   0.70312   0.00000  Uiso   1.00
H1582  H     0.59202   0.76964   0.68071   0.00000  Uiso   1.00
O1583  O     0.62417   0.72215   0.70981   0.00000  Uiso   1.00
C1584  C     0.38250   0.90212   0.79993   0.00000  Uiso   1.00
H1585  H     0.40633   0.89196   0.82381   0.00000  Uiso   1.00
O1586  O     0.37835   0.94210   0.79368   0.00000  Uiso   1.00
C1587  C     0.55901   0.71733   0.80524   0.00000  Uiso   1.00
H1588  H     0.55423   0.74916   0.82069   0.00000  Uiso   1.00
O1589  O     0.59347   0.70275   0.80892   0.00000  Uiso   1.00
C1590  C     0.44065   0.94962   0.69534   0.00000  Uiso   1.00
H1591  H     0.44478   0.91672   0.68241   0.00000  Uiso   1.00
O1592  O     0.40684   0.96539   0.68953   0.00000  Uiso   1.00
C1593  C     0.45717   0.71197   0.68011   0.00000  Uiso   1.00
H1594  H     0.44465   0.74436   0.68384   0.00000  Uiso   1.00
O1595  O     0.45649   0.69495   0.64269   0.00000  Uiso   1.00
C1596  C     0.54410   0.95453   0.81891   0.00000  Uiso   1.00
H1597  H     0.55590   0.92213   0.81406   0.00000  Uiso   1.00
O1598  O     0.54667   0.97120   0.85654   0.00000  Uiso   1.00
O1599  O     0.77226   0.87154   0.74999   0.00000  Uiso   1.00
O1600  O     0.89441   0.79513   0.75000   0.00000  Uiso   1.00
O1601  O     0.89441   0.87154   0.75000   0.00000  Uiso   1.00
O1602  O     0.77226   0.79513   0.74999   0.00000  Uiso   1.00
C1603  C     0.75342   0.83247   0.75041   0.00000  Uiso   1.00
C1604  C     0.91327   0.83413   0.74925   0.00000  Uiso   1.00
O1605  O     0.83333   0.87156   0.68392   0.00000  Uiso   1.00
O1606  O     0.83334   0.79511   0.81607   0.00000  Uiso   1.00
O1607  O     0.83334   0.87156   0.81607   0.00000  Uiso   1.00
O1608  O     0.83333   0.79511   0.68392   0.00000  Uiso   1.00
C1609  C     0.83366   0.83328   0.66350   0.00000  Uiso   1.00
C1610  C     0.83334   0.83316   0.83648   0.00000  Uiso   1.00
Zn1611 Zn    0.83333   0.88437   0.75000   0.00000  Uiso   1.00
Zn1612 Zn    0.83333   0.78229   0.75000   0.00000  Uiso   1.00
C1613  C     0.87465   0.83122   0.90734   0.00000  Uiso   1.00
C1614  C     0.79934   0.82414   0.58964   0.00000  Uiso   1.00
C1615  C     0.83561   0.83076   0.88472   0.00000  Uiso   1.00
C1616  C     0.83576   0.83298   0.61529   0.00000  Uiso   1.00
C1617  C     0.79960   0.81787   0.90638   0.00000  Uiso   1.00
C1618  C     0.87426   0.83652   0.59575   0.00000  Uiso   1.00
C1619  C     0.80245   0.80603   0.95181   0.00000  Uiso   1.00
C1620  C     0.87608   0.83262   0.54857   0.00000  Uiso   1.00
C1621  C     0.83974   0.81560   0.97652   0.00000  Uiso   1.00
C1622  C     0.83962   0.81818   0.52356   0.00000  Uiso   1.00
C1623  C     0.87672   0.82351   0.95422   0.00000  Uiso   1.00
C1624  C     0.80200   0.80987   0.54491   0.00000  Uiso   1.00
C1625  C     0.76949   0.78431   0.97357   0.00000  Uiso   1.00
C1626  C     0.91298   0.84074   0.52534   0.00000  Uiso   1.00
C1627  C     0.76875   0.78716   0.52065   0.00000  Uiso   1.00
C1628  C     0.91400   0.82725   0.98034   0.00000  Uiso   1.00
C1629  C     0.68537   0.79602   0.73064   0.00000  Uiso   1.00
C1630  C     0.98152   0.87051   0.76867   0.00000  Uiso   1.00
C1631  C     0.97611   0.79821   0.72745   0.00000  Uiso   1.00
C1632  C     0.69065   0.86743   0.77314   0.00000  Uiso   1.00
C1633  C     0.95759   0.83532   0.74702   0.00000  Uiso   1.00
C1634  C     0.70916   0.83097   0.75268   0.00000  Uiso   1.00
C1635  C     0.85903   0.69201   0.77920   0.00000  Uiso   1.00
C1636  C     0.80750   0.97478   0.72103   0.00000  Uiso   1.00
C1637  C     0.80975   0.68931   0.71898   0.00000  Uiso   1.00
C1638  C     0.85705   0.97743   0.78095   0.00000  Uiso   1.00
N1639  N     0.83333   0.95240   0.75000   0.00000  Uiso   1.00
N1640  N     0.83333   0.71427   0.75000   0.00000  Uiso   1.00
C1641  C     0.91293   0.84446   0.88226   0.00000  Uiso   1.00
H1642  H     0.93203   0.87025   0.90150   0.00000  Uiso   1.00
H1643  H     0.93079   0.81462   0.87537   0.00000  Uiso   1.00
H1644  H     0.90617   0.85924   0.84917   0.00000  Uiso   1.00
C1645  C     0.75877   0.83528   0.60937   0.00000  Uiso   1.00
H1646  H     0.73331   0.83722   0.58363   0.00000  Uiso   1.00
H1647  H     0.75058   0.81079   0.63559   0.00000  Uiso   1.00
H1648  H     0.76157   0.86915   0.62478   0.00000  Uiso   1.00
C1649  C     0.75848   0.82224   0.88345   0.00000  Uiso   1.00
H1650  H     0.73448   0.83850   0.90081   0.00000  Uiso   1.00
O1651  O     0.75035   0.80537   0.84658   0.00000  Uiso   1.00
C1652  C     0.91211   0.84084   0.62526   0.00000  Uiso   1.00
H1653  H     0.93693   0.81841   0.62061   0.00000  Uiso   1.00
O1654  O     0.91644   0.87061   0.65355   0.00000  Uiso   1.00
C1655  C     0.73884   0.75279   0.94793   0.00000  Uiso   1.00
H1656  H     0.70866   0.76853   0.94372   0.00000  Uiso   1.00
H1657  H     0.74980   0.74292   0.91472   0.00000  Uiso   1.00
H1658  H     0.73484   0.72066   0.96605   0.00000  Uiso   1.00
C1659  C     0.94968   0.86856   0.54463   0.00000  Uiso   1.00
H1660  H     0.93995   0.89521   0.56751   0.00000  Uiso   1.00
H1661  H     0.97237   0.84686   0.56158   0.00000  Uiso   1.00
H1662  H     0.96534   0.88712   0.51767   0.00000  Uiso   1.00
C1663  C     0.73530   0.76234   0.54367   0.00000  Uiso   1.00
H1664  H     0.70423   0.76067   0.52888   0.00000  Uiso   1.00
O1665  O     0.74251   0.74219   0.57840   0.00000  Uiso   1.00
C1666  C     0.95319   0.81053   0.96431   0.00000  Uiso   1.00
H1667  H     0.98245   0.82728   0.97383   0.00000  Uiso   1.00
O1668  O     0.95322   0.77567   0.94263   0.00000  Uiso   1.00
C1669  C     0.70438   0.75725   0.70975   0.00000  Uiso   1.00
H1670  H     0.72166   0.73435   0.73058   0.00000  Uiso   1.00
O1671  O     0.69942   0.74985   0.66946   0.00000  Uiso   1.00
C1672  C     0.96282   0.91045   0.78771   0.00000  Uiso   1.00
H1673  H     0.94569   0.93254   0.76580   0.00000  Uiso   1.00
O1674  O     0.96751   0.91950   0.82771   0.00000  Uiso   1.00
C1675  C     0.95103   0.76161   0.70312   0.00000  Uiso   1.00
H1676  H     0.92536   0.76964   0.68071   0.00000  Uiso   1.00
O1677  O     0.95750   0.72215   0.70981   0.00000  Uiso   1.00
C1678  C     0.71584   0.90212   0.79993   0.00000  Uiso   1.00
H1679  H     0.73966   0.89196   0.82381   0.00000  Uiso   1.00
O1680  O     0.71168   0.94210   0.79368   0.00000  Uiso   1.00
C1681  C     0.89235   0.71733   0.80524   0.00000  Uiso   1.00
H1682  H     0.88757   0.74916   0.82069   0.00000  Uiso   1.00
O1683  O     0.92680   0.70275   0.80892   0.00000  Uiso   1.00
C1684  C     0.77399   0.94962   0.69534   0.00000  Uiso   1.00
H1685  H     0.77811   0.91672   0.68241   0.00000  Uiso   1.00
O1686  O     0.74017   0.96539   0.68953   0.00000  Uiso   1.00
C1687  C     0.79050   0.71197   0.68011   0.00000  Uiso   1.00
H1688  H     0.77798   0.74436   0.68384   0.00000  Uiso   1.00
O1689  O     0.78982   0.69495   0.64269   0.00000  Uiso   1.00
C1690  C     0.87743   0.95453   0.81891   0.00000  Uiso   1.00
H1691  H     0.88923   0.92213   0.81406   0.00000  Uiso   1.00
O1692  O     0.88000   0.97120   0.85654   0.00000  Uiso   1.00
loop_
_geom_bond_atom_site_label_1
_geom_bond_atom_site_label_2
_geom_bond_distance
_geom_bond_site_symmetry_2
_ccdc_geom_bond_type
O1     C5      1.297   .     A
O1     Zn13    2.012   .     S
O2     C6      1.296   .     A
O2     Zn14    2.012   .     S
O3     C6      1.297   .     A
O3     Zn13    2.043   .     S
O4     C5      1.295   .     A
O4     Zn14    2.043   .     S
C5     C36     1.446   .     S
C6     C35     1.448   .     S
O7     C11     1.291   .     A
O7     Zn13    2.003   .     S
O8     C12     1.284   .     A
O8     Zn14    2.003   .     S
O9     Zn13    2.009   .     S
O9     C12     1.302   .     A
O10    Zn14    2.009   .     S
O10    C11     1.296   .     A
C11    C18     1.441   .     S
C12    C17     1.439   .     S
Zn13   N41     2.031   .     S
Zn14   N42     2.031   .     S
C15    C17     1.413   .     A
C15    C43     1.523   .     S
C15    C25     1.417   .     A
C16    C47     1.519   .     S
C16    C26     1.404   .     A
C16    C18     1.398   .     A
C17    C19     1.407   .     A
C18    C20     1.408   .     A
C19    C21     1.402   .     A
C19    C51     1.488   .     S
C20    C54     1.483   .     S
C20    C22     1.414   .     A
C21    C27     1.417   .     A
C21    C23     1.411   .     A
C22    C28     1.428   .     A
C22    C24     1.424   .     A
C23    C25     1.415   .     A
C23    C870    1.404   .     S
C24    C26     1.421   .     A
C24    C869    1.404   1_554 S
C25    C30     1.413   .     A
C26    C29     1.421   .     A
C27    C57     1.521   .     S
C27    C875    1.406   .     S
C28    C61     1.517   .     S
C28    C876    1.400   1_554 S
C29    C65     1.490   .     S
C29    C873    1.406   1_554 S
C30    C68     1.487   .     S
C30    C874    1.400   .     S
C31    C71     1.481   .     S
C31    C36     1.415   .     A
C31    C221    1.392   1_455 S
C32    C74     1.481   .     S
C32    C35     1.417   .     A
C32    C128    1.392   .     S
C33    C35     1.417   .     A
C33    C77     1.501   .     S
C33    C125    1.392   .     S
C34    C80     1.498   .     S
C34    C36     1.413   .     A
C34    C220    1.392   1_455 S
C37    N42     1.374   .     A
C37    C83     1.484   .     S
C37    C604    1.431   1_545 S
C38    C86     1.481   .     S
C38    N41     1.374   .     A
C38    C321    1.430   .     S
C39    N42     1.371   .     A
C39    C89     1.474   .     S
C39    C602    1.430   1_545 S
C40    C92     1.473   .     S
C40    N41     1.373   .     A
C40    C319    1.431   .     S
C43    H44     1.110   .     S
C43    H45     1.107   .     S
C43    H46     1.100   .     S
C47    H49     1.108   .     S
C47    H50     1.106   .     S
C47    H48     1.108   .     S
C51    H52     1.085   .     S
C51    O53     1.219   .     D
C54    O56     1.220   .     D
C54    H55     1.084   .     S
C57    H59     1.109   .     S
C57    H60     1.110   .     S
C57    H58     1.110   .     S
C61    H63     1.110   .     S
C61    H64     1.111   .     S
C61    H62     1.109   .     S
C65    O67     1.220   .     D
C65    H66     1.085   .     S
C68    H69     1.084   .     S
C68    O70     1.221   .     D
C71    O73     1.221   .     D
C71    H72     1.085   .     S
C74    O76     1.222   .     D
C74    H75     1.085   .     S
C77    H78     1.083   .     S
C77    O79     1.222   .     D
C80    O82     1.222   .     D
C80    H81     1.084   .     S
C83    H84     1.073   .     S
C83    O85     1.221   .     D
C86    O88     1.222   .     D
C86    H87     1.068   .     S
C89    O91     1.221   .     D
C89    H90     1.072   .     S
C92    O94     1.221   .     D
C92    H93     1.066   .     S
O95    C99     1.297   .     A
O95    Zn107   2.012   .     S
O96    C100    1.296   .     A
O96    Zn108   2.012   .     S
O97    C100    1.297   .     A
O97    Zn107   2.043   .     S
O98    C99     1.295   .     A
O98    Zn108   2.043   .     S
C99    C130    1.446   .     S
C100   C129    1.448   .     S
O101   C105    1.291   .     A
O101   Zn107   2.003   .     S
O102   C106    1.284   .     A
O102   Zn108   2.003   .     S
O103   Zn107   2.009   .     S
O103   C106    1.302   .     A
O104   Zn108   2.009   .     S
O104   C105    1.296   .     A
C105   C112    1.441   .     S
C106   C111    1.439   .     S
Zn107  N135    2.031   .     S
Zn108  N136    2.031   .     S
C109   C111    1.413   .     A
C109   C137    1.523   .     S
C109   C119    1.417   .     A
C110   C141    1.519   .     S
C110   C120    1.404   .     A
C110   C112    1.398   .     A
C111   C113    1.407   .     A
C112   C114    1.408   .     A
C113   C115    1.402   .     A
C113   C145    1.488   .     S
C114   C148    1.483   .     S
C114   C116    1.414   .     A
C115   C121    1.417   .     A
C115   C117    1.411   .     A
C116   C122    1.428   .     A
C116   C118    1.424   .     A
C117   C119    1.415   .     A
C117   C964    1.404   .     S
C118   C120    1.421   .     A
C118   C963    1.404   1_554 S
C119   C124    1.413   .     A
C120   C123    1.421   .     A
C121   C151    1.521   .     S
C121   C969    1.406   .     S
C122   C155    1.517   .     S
C122   C970    1.400   1_554 S
C123   C159    1.490   .     S
C123   C967    1.406   1_554 S
C124   C162    1.487   .     S
C124   C968    1.400   .     S
C125   C165    1.481   .     S
C125   C130    1.415   .     A
C126   C168    1.481   .     S
C126   C129    1.417   .     A
C126   C222    1.392   .     S
C127   C129    1.417   .     A
C127   C171    1.501   .     S
C127   C219    1.392   .     S
C128   C174    1.498   .     S
C128   C130    1.413   .     A
C131   N136    1.374   .     A
C131   C177    1.484   .     S
C131   C698    1.431   1_545 S
C132   C180    1.481   .     S
C132   N135    1.374   .     A
C132   C415    1.430   .     S
C133   N136    1.371   .     A
C133   C183    1.474   .     S
C133   C696    1.430   1_545 S
C134   C186    1.473   .     S
C134   N135    1.373   .     A
C134   C413    1.431   .     S
C137   H138    1.110   .     S
C137   H139    1.107   .     S
C137   H140    1.100   .     S
C141   H143    1.108   .     S
C141   H144    1.106   .     S
C141   H142    1.108   .     S
C145   H146    1.085   .     S
C145   O147    1.219   .     D
C148   O150    1.220   .     D
C148   H149    1.084   .     S
C151   H153    1.109   .     S
C151   H154    1.110   .     S
C151   H152    1.110   .     S
C155   H157    1.110   .     S
C155   H158    1.111   .     S
C155   H156    1.109   .     S
C159   O161    1.220   .     D
C159   H160    1.085   .     S
C162   H163    1.084   .     S
C162   O164    1.221   .     D
C165   O167    1.221   .     D
C165   H166    1.085   .     S
C168   O170    1.222   .     D
C168   H169    1.085   .     S
C171   H172    1.083   .     S
C171   O173    1.222   .     D
C174   O176    1.222   .     D
C174   H175    1.084   .     S
C177   H178    1.073   .     S
C177   O179    1.221   .     D
C180   O182    1.222   .     D
C180   H181    1.068   .     S
C183   O185    1.221   .     D
C183   H184    1.072   .     S
C186   O188    1.221   .     D
C186   H187    1.066   .     S
O189   C193    1.297   .     A
O189   Zn201   2.012   .     S
O190   C194    1.296   .     A
O190   Zn202   2.012   .     S
O191   C194    1.297   .     A
O191   Zn201   2.043   .     S
O192   C193    1.295   .     A
O192   Zn202   2.043   .     S
C193   C224    1.446   .     S
C194   C223    1.448   .     S
O195   C199    1.291   .     A
O195   Zn201   2.003   .     S
O196   C200    1.284   .     A
O196   Zn202   2.003   .     S
O197   Zn201   2.009   .     S
O197   C200    1.302   .     A
O198   Zn202   2.009   .     S
O198   C199    1.296   .     A
C199   C206    1.441   .     S
C200   C205    1.439   .     S
Zn201  N229    2.031   .     S
Zn202  N230    2.031   .     S
C203   C205    1.413   .     A
C203   C231    1.523   .     S
C203   C213    1.417   .     A
C204   C235    1.519   .     S
C204   C214    1.404   .     A
C204   C206    1.398   .     A
C205   C207    1.407   .     A
C206   C208    1.408   .     A
C207   C209    1.402   .     A
C207   C239    1.488   .     S
C208   C242    1.483   .     S
C208   C210    1.414   .     A
C209   C215    1.417   .     A
C209   C211    1.411   .     A
C210   C216    1.428   .     A
C210   C212    1.424   .     A
C211   C213    1.415   .     A
C211   C1058   1.404   .     S
C212   C214    1.421   .     A
C212   C1057   1.404   1_554 S
C213   C218    1.413   .     A
C214   C217    1.421   .     A
C215   C245    1.521   .     S
C215   C1063   1.406   .     S
C216   C249    1.517   .     S
C216   C1064   1.400   1_554 S
C217   C253    1.490   .     S
C217   C1061   1.406   1_554 S
C218   C256    1.487   .     S
C218   C1062   1.400   .     S
C219   C259    1.481   .     S
C219   C224    1.415   .     A
C220   C262    1.481   .     S
C220   C223    1.417   .     A
C220   C34     1.392   1_655 S
C221   C223    1.417   .     A
C221   C265    1.501   .     S
C221   C31     1.392   1_655 S
C222   C268    1.498   .     S
C222   C224    1.413   .     A
C225   N230    1.374   .     A
C225   C271    1.484   .     S
C225   C792    1.431   1_545 S
C226   C274    1.481   .     S
C226   N229    1.374   .     A
C226   C509    1.430   .     S
C227   N230    1.371   .     A
C227   C277    1.474   .     S
C227   C790    1.430   1_545 S
C228   C280    1.473   .     S
C228   N229    1.373   .     A
C228   C507    1.431   .     S
C231   H232    1.110   .     S
C231   H233    1.107   .     S
C231   H234    1.100   .     S
C235   H237    1.108   .     S
C235   H238    1.106   .     S
C235   H236    1.108   .     S
C239   H240    1.085   .     S
C239   O241    1.219   .     D
C242   O244    1.220   .     D
C242   H243    1.084   .     S
C245   H247    1.109   .     S
C245   H248    1.110   .     S
C245   H246    1.110   .     S
C249   H251    1.110   .     S
C249   H252    1.111   .     S
C249   H250    1.109   .     S
C253   O255    1.220   .     D
C253   H254    1.085   .     S
C256   H257    1.084   .     S
C256   O258    1.221   .     D
C259   O261    1.221   .     D
C259   H260    1.085   .     S
C262   O264    1.222   .     D
C262   H263    1.085   .     S
C265   H266    1.083   .     S
C265   O267    1.222   .     D
C268   O270    1.222   .     D
C268   H269    1.084   .     S
C271   H272    1.073   .     S
C271   O273    1.221   .     D
C274   O276    1.222   .     D
C274   H275    1.068   .     S
C277   O279    1.221   .     D
C277   H278    1.072   .     S
C280   O282    1.221   .     D
C280   H281    1.066   .     S
O283   C287    1.297   .     A
O283   Zn295   2.012   .     S
O284   C288    1.296   .     A
O284   Zn296   2.012   .     S
O285   C288    1.297   .     A
O285   Zn295   2.043   .     S
O286   C287    1.295   .     A
O286   Zn296   2.043   .     S
C287   C318    1.446   .     S
C288   C317    1.448   .     S
O289   C293    1.291   .     A
O289   Zn295   2.003   .     S
O290   C294    1.284   .     A
O290   Zn296   2.003   .     S
O291   Zn295   2.009   .     S
O291   C294    1.302   .     A
O292   Zn296   2.009   .     S
O292   C293    1.296   .     A
C293   C300    1.441   .     S
C294   C299    1.439   .     S
Zn295  N323    2.031   .     S
Zn296  N324    2.031   .     S
C297   C299    1.413   .     A
C297   C325    1.523   .     S
C297   C307    1.417   .     A
C298   C329    1.519   .     S
C298   C308    1.404   .     A
C298   C300    1.398   .     A
C299   C301    1.407   .     A
C300   C302    1.408   .     A
C301   C303    1.402   .     A
C301   C333    1.488   .     S
C302   C336    1.483   .     S
C302   C304    1.414   .     A
C303   C309    1.417   .     A
C303   C305    1.411   .     A
C304   C310    1.428   .     A
C304   C306    1.424   .     A
C305   C307    1.415   .     A
C305   C1152   1.404   .     S
C306   C308    1.421   .     A
C306   C1151   1.404   1_554 S
C307   C312    1.413   .     A
C308   C311    1.421   .     A
C309   C339    1.521   .     S
C309   C1157   1.406   .     S
C310   C343    1.517   .     S
C310   C1158   1.400   1_554 S
C311   C347    1.490   .     S
C311   C1155   1.406   1_554 S
C312   C350    1.487   .     S
C312   C1156   1.400   .     S
C313   C353    1.481   .     S
C313   C318    1.415   .     A
C313   C503    1.392   1_455 S
C314   C356    1.481   .     S
C314   C317    1.417   .     A
C314   C410    1.392   .     S
C315   C317    1.417   .     A
C315   C359    1.501   .     S
C315   C407    1.392   .     S
C316   C362    1.498   .     S
C316   C318    1.413   .     A
C316   C502    1.392   1_455 S
C319   N324    1.374   .     A
C319   C365    1.484   .     S
C320   C368    1.481   .     S
C320   N323    1.374   .     A
C320   C603    1.430   .     S
C321   N324    1.371   .     A
C321   C371    1.474   .     S
C322   C374    1.473   .     S
C322   N323    1.373   .     A
C322   C601    1.431   .     S
C325   H326    1.110   .     S
C325   H327    1.107   .     S
C325   H328    1.100   .     S
C329   H331    1.108   .     S
C329   H332    1.106   .     S
C329   H330    1.108   .     S
C333   H334    1.085   .     S
C333   O335    1.219   .     D
C336   O338    1.220   .     D
C336   H337    1.084   .     S
C339   H341    1.109   .     S
C339   H342    1.110   .     S
C339   H340    1.110   .     S
C343   H345    1.110   .     S
C343   H346    1.111   .     S
C343   H344    1.109   .     S
C347   O349    1.220   .     D
C347   H348    1.085   .     S
C350   H351    1.084   .     S
C350   O352    1.221   .     D
C353   O355    1.221   .     D
C353   H354    1.085   .     S
C356   O358    1.222   .     D
C356   H357    1.085   .     S
C359   H360    1.083   .     S
C359   O361    1.222   .     D
C362   O364    1.222   .     D
C362   H363    1.084   .     S
C365   H366    1.073   .     S
C365   O367    1.221   .     D
C368   O370    1.222   .     D
C368   H369    1.068   .     S
C371   O373    1.221   .     D
C371   H372    1.072   .     S
C374   O376    1.221   .     D
C374   H375    1.066   .     S
O377   C381    1.297   .     A
O377   Zn389   2.012   .     S
O378   C382    1.296   .     A
O378   Zn390   2.012   .     S
O379   C382    1.297   .     A
O379   Zn389   2.043   .     S
O380   C381    1.295   .     A
O380   Zn390   2.043   .     S
C381   C412    1.446   .     S
C382   C411    1.448   .     S
O383   C387    1.291   .     A
O383   Zn389   2.003   .     S
O384   C388    1.284   .     A
O384   Zn390   2.003   .     S
O385   Zn389   2.009   .     S
O385   C388    1.302   .     A
O386   Zn390   2.009   .     S
O386   C387    1.296   .     A
C387   C394    1.441   .     S
C388   C393    1.439   .     S
Zn389  N417    2.031   .     S
Zn390  N418    2.031   .     S
C391   C393    1.413   .     A
C391   C419    1.523   .     S
C391   C401    1.417   .     A
C392   C423    1.519   .     S
C392   C402    1.404   .     A
C392   C394    1.398   .     A
C393   C395    1.407   .     A
C394   C396    1.408   .     A
C395   C397    1.402   .     A
C395   C427    1.488   .     S
C396   C430    1.483   .     S
C396   C398    1.414   .     A
C397   C403    1.417   .     A
C397   C399    1.411   .     A
C398   C404    1.428   .     A
C398   C400    1.424   .     A
C399   C401    1.415   .     A
C399   C1246   1.404   .     S
C400   C402    1.421   .     A
C400   C1245   1.404   1_554 S
C401   C406    1.413   .     A
C402   C405    1.421   .     A
C403   C433    1.521   .     S
C403   C1251   1.406   .     S
C404   C437    1.517   .     S
C404   C1252   1.400   1_554 S
C405   C441    1.490   .     S
C405   C1249   1.406   1_554 S
C406   C444    1.487   .     S
C406   C1250   1.400   .     S
C407   C447    1.481   .     S
C407   C412    1.415   .     A
C408   C450    1.481   .     S
C408   C411    1.417   .     A
C408   C504    1.392   .     S
C409   C411    1.417   .     A
C409   C453    1.501   .     S
C409   C501    1.392   .     S
C410   C456    1.498   .     S
C410   C412    1.413   .     A
C413   N418    1.374   .     A
C413   C459    1.484   .     S
C414   C462    1.481   .     S
C414   N417    1.374   .     A
C414   C697    1.430   .     S
C415   N418    1.371   .     A
C415   C465    1.474   .     S
C416   C468    1.473   .     S
C416   N417    1.373   .     A
C416   C695    1.431   .     S
C419   H420    1.110   .     S
C419   H421    1.107   .     S
C419   H422    1.100   .     S
C423   H425    1.108   .     S
C423   H426    1.106   .     S
C423   H424    1.108   .     S
C427   H428    1.085   .     S
C427   O429    1.219   .     D
C430   O432    1.220   .     D
C430   H431    1.084   .     S
C433   H435    1.109   .     S
C433   H436    1.110   .     S
C433   H434    1.110   .     S
C437   H439    1.110   .     S
C437   H440    1.111   .     S
C437   H438    1.109   .     S
C441   O443    1.220   .     D
C441   H442    1.085   .     S
C444   H445    1.084   .     S
C444   O446    1.221   .     D
C447   O449    1.221   .     D
C447   H448    1.085   .     S
C450   O452    1.222   .     D
C450   H451    1.085   .     S
C453   H454    1.083   .     S
C453   O455    1.222   .     D
C456   O458    1.222   .     D
C456   H457    1.084   .     S
C459   H460    1.073   .     S
C459   O461    1.221   .     D
C462   O464    1.222   .     D
C462   H463    1.068   .     S
C465   O467    1.221   .     D
C465   H466    1.072   .     S
C468   O470    1.221   .     D
C468   H469    1.066   .     S
O471   C475    1.297   .     A
O471   Zn483   2.012   .     S
O472   C476    1.296   .     A
O472   Zn484   2.012   .     S
O473   C476    1.297   .     A
O473   Zn483   2.043   .     S
O474   C475    1.295   .     A
O474   Zn484   2.043   .     S
C475   C506    1.446   .     S
C476   C505    1.448   .     S
O477   C481    1.291   .     A
O477   Zn483   2.003   .     S
O478   C482    1.284   .     A
O478   Zn484   2.003   .     S
O479   Zn483   2.009   .     S
O479   C482    1.302   .     A
O480   Zn484   2.009   .     S
O480   C481    1.296   .     A
C481   C488    1.441   .     S
C482   C487    1.439   .     S
Zn483  N511    2.031   .     S
Zn484  N512    2.031   .     S
C485   C487    1.413   .     A
C485   C513    1.523   .     S
C485   C495    1.417   .     A
C486   C517    1.519   .     S
C486   C496    1.404   .     A
C486   C488    1.398   .     A
C487   C489    1.407   .     A
C488   C490    1.408   .     A
C489   C491    1.402   .     A
C489   C521    1.488   .     S
C490   C524    1.483   .     S
C490   C492    1.414   .     A
C491   C497    1.417   .     A
C491   C493    1.411   .     A
C492   C498    1.428   .     A
C492   C494    1.424   .     A
C493   C495    1.415   .     A
C493   C1340   1.404   .     S
C494   C496    1.421   .     A
C494   C1339   1.404   1_554 S
C495   C500    1.413   .     A
C496   C499    1.421   .     A
C497   C527    1.521   .     S
C497   C1345   1.406   .     S
C498   C531    1.517   .     S
C498   C1346   1.400   1_554 S
C499   C535    1.490   .     S
C499   C1343   1.406   1_554 S
C500   C538    1.487   .     S
C500   C1344   1.400   .     S
C501   C541    1.481   .     S
C501   C506    1.415   .     A
C502   C544    1.481   .     S
C502   C505    1.417   .     A
C502   C316    1.392   1_655 S
C503   C505    1.417   .     A
C503   C547    1.501   .     S
C503   C313    1.392   1_655 S
C504   C550    1.498   .     S
C504   C506    1.413   .     A
C507   N512    1.374   .     A
C507   C553    1.484   .     S
C508   C556    1.481   .     S
C508   N511    1.374   .     A
C508   C791    1.430   .     S
C509   N512    1.371   .     A
C509   C559    1.474   .     S
C510   C562    1.473   .     S
C510   N511    1.373   .     A
C510   C789    1.431   .     S
C513   H514    1.110   .     S
C513   H515    1.107   .     S
C513   H516    1.100   .     S
C517   H519    1.108   .     S
C517   H520    1.106   .     S
C517   H518    1.108   .     S
C521   H522    1.085   .     S
C521   O523    1.219   .     D
C524   O526    1.220   .     D
C524   H525    1.084   .     S
C527   H529    1.109   .     S
C527   H530    1.110   .     S
C527   H528    1.110   .     S
C531   H533    1.110   .     S
C531   H534    1.111   .     S
C531   H532    1.109   .     S
C535   O537    1.220   .     D
C535   H536    1.085   .     S
C538   H539    1.084   .     S
C538   O540    1.221   .     D
C541   O543    1.221   .     D
C541   H542    1.085   .     S
C544   O546    1.222   .     D
C544   H545    1.085   .     S
C547   H548    1.083   .     S
C547   O549    1.222   .     D
C550   O552    1.222   .     D
C550   H551    1.084   .     S
C553   H554    1.073   .     S
C553   O555    1.221   .     D
C556   O558    1.222   .     D
C556   H557    1.068   .     S
C559   O561    1.221   .     D
C559   H560    1.072   .     S
C562   O564    1.221   .     D
C562   H563    1.066   .     S
O565   C569    1.297   .     A
O565   Zn577   2.012   .     S
O566   C570    1.296   .     A
O566   Zn578   2.012   .     S
O567   C570    1.297   .     A
O567   Zn577   2.043   .     S
O568   C569    1.295   .     A
O568   Zn578   2.043   .     S
C569   C600    1.446   .     S
C570   C599    1.448   .     S
O571   C575    1.291   .     A
O571   Zn577   2.003   .     S
O572   C576    1.284   .     A
O572   Zn578   2.003   .     S
O573   Zn577   2.009   .     S
O573   C576    1.302   .     A
O574   Zn578   2.009   .     S
O574   C575    1.296   .     A
C575   C582    1.441   .     S
C576   C581    1.439   .     S
Zn577  N605    2.031   .     S
Zn578  N606    2.031   .     S
C579   C581    1.413   .     A
C579   C607    1.523   .     S
C579   C589    1.417   .     A
C580   C611    1.519   .     S
C580   C590    1.404   .     A
C580   C582    1.398   .     A
C581   C583    1.407   .     A
C582   C584    1.408   .     A
C583   C585    1.402   .     A
C583   C615    1.488   .     S
C584   C618    1.483   .     S
C584   C586    1.414   .     A
C585   C591    1.417   .     A
C585   C587    1.411   .     A
C586   C592    1.428   .     A
C586   C588    1.424   .     A
C587   C589    1.415   .     A
C587   C1434   1.404   .     S
C588   C590    1.421   .     A
C588   C1433   1.404   1_554 S
C589   C594    1.413   .     A
C590   C593    1.421   .     A
C591   C621    1.521   .     S
C591   C1439   1.406   .     S
C592   C625    1.517   .     S
C592   C1440   1.400   1_554 S
C593   C629    1.490   .     S
C593   C1437   1.406   1_554 S
C594   C632    1.487   .     S
C594   C1438   1.400   .     S
C595   C635    1.481   .     S
C595   C600    1.415   .     A
C595   C785    1.392   1_455 S
C596   C638    1.481   .     S
C596   C599    1.417   .     A
C596   C692    1.392   .     S
C597   C599    1.417   .     A
C597   C641    1.501   .     S
C597   C689    1.392   .     S
C598   C644    1.498   .     S
C598   C600    1.413   .     A
C598   C784    1.392   1_455 S
C601   N606    1.374   .     A
C601   C647    1.484   .     S
C602   C650    1.481   .     S
C602   N605    1.374   .     A
C602   C39     1.430   1_565 S
C603   N606    1.371   .     A
C603   C653    1.474   .     S
C604   C656    1.473   .     S
C604   N605    1.373   .     A
C604   C37     1.431   1_565 S
C607   H608    1.110   .     S
C607   H609    1.107   .     S
C607   H610    1.100   .     S
C611   H613    1.108   .     S
C611   H614    1.106   .     S
C611   H612    1.108   .     S
C615   H616    1.085   .     S
C615   O617    1.219   .     D
C618   O620    1.220   .     D
C618   H619    1.084   .     S
C621   H623    1.109   .     S
C621   H624    1.110   .     S
C621   H622    1.110   .     S
C625   H627    1.110   .     S
C625   H628    1.111   .     S
C625   H626    1.109   .     S
C629   O631    1.220   .     D
C629   H630    1.085   .     S
C632   H633    1.084   .     S
C632   O634    1.221   .     D
C635   O637    1.221   .     D
C635   H636    1.085   .     S
C638   O640    1.222   .     D
C638   H639    1.085   .     S
C641   H642    1.083   .     S
C641   O643    1.222   .     D
C644   O646    1.222   .     D
C644   H645    1.084   .     S
C647   H648    1.073   .     S
C647   O649    1.221   .     D
C650   O652    1.222   .     D
C650   H651    1.068   .     S
C653   O655    1.221   .     D
C653   H654    1.072   .     S
C656   O658    1.221   .     D
C656   H657    1.066   .     S
O659   C663    1.297   .     A
O659   Zn671   2.012   .     S
O660   C664    1.296   .     A
O660   Zn672   2.012   .     S
O661   C664    1.297   .     A
O661   Zn671   2.043   .     S
O662   C663    1.295   .     A
O662   Zn672   2.043   .     S
C663   C694    1.446   .     S
C664   C693    1.448   .     S
O665   C669    1.291   .     A
O665   Zn671   2.003   .     S
O666   C670    1.284   .     A
O666   Zn672   2.003   .     S
O667   Zn671   2.009   .     S
O667   C670    1.302   .     A
O668   Zn672   2.009   .     S
O668   C669    1.296   .     A
C669   C676    1.441   .     S
C670   C675    1.439   .     S
Zn671  N699    2.031   .     S
Zn672  N700    2.031   .     S
C673   C675    1.413   .     A
C673   C701    1.523   .     S
C673   C683    1.417   .     A
C674   C705    1.519   .     S
C674   C684    1.404   .     A
C674   C676    1.398   .     A
C675   C677    1.407   .     A
C676   C678    1.408   .     A
C677   C679    1.402   .     A
C677   C709    1.488   .     S
C678   C712    1.483   .     S
C678   C680    1.414   .     A
C679   C685    1.417   .     A
C679   C681    1.411   .     A
C680   C686    1.428   .     A
C680   C682    1.424   .     A
C681   C683    1.415   .     A
C681   C1528   1.404   .     S
C682   C684    1.421   .     A
C682   C1527   1.404   1_554 S
C683   C688    1.413   .     A
C684   C687    1.421   .     A
C685   C715    1.521   .     S
C685   C1533   1.406   .     S
C686   C719    1.517   .     S
C686   C1534   1.400   1_554 S
C687   C723    1.490   .     S
C687   C1531   1.406   1_554 S
C688   C726    1.487   .     S
C688   C1532   1.400   .     S
C689   C729    1.481   .     S
C689   C694    1.415   .     A
C690   C732    1.481   .     S
C690   C693    1.417   .     A
C690   C786    1.392   .     S
C691   C693    1.417   .     A
C691   C735    1.501   .     S
C691   C783    1.392   .     S
C692   C738    1.498   .     S
C692   C694    1.413   .     A
C695   N700    1.374   .     A
C695   C741    1.484   .     S
C696   C744    1.481   .     S
C696   N699    1.374   .     A
C696   C133    1.430   1_565 S
C697   N700    1.371   .     A
C697   C747    1.474   .     S
C698   C750    1.473   .     S
C698   N699    1.373   .     A
C698   C131    1.431   1_565 S
C701   H702    1.110   .     S
C701   H703    1.107   .     S
C701   H704    1.100   .     S
C705   H707    1.108   .     S
C705   H708    1.106   .     S
C705   H706    1.108   .     S
C709   H710    1.085   .     S
C709   O711    1.219   .     D
C712   O714    1.220   .     D
C712   H713    1.084   .     S
C715   H717    1.109   .     S
C715   H718    1.110   .     S
C715   H716    1.110   .     S
C719   H721    1.110   .     S
C719   H722    1.111   .     S
C719   H720    1.109   .     S
C723   O725    1.220   .     D
C723   H724    1.085   .     S
C726   H727    1.084   .     S
C726   O728    1.221   .     D
C729   O731    1.221   .     D
C729   H730    1.085   .     S
C732   O734    1.222   .     D
C732   H733    1.085   .     S
C735   H736    1.083   .     S
C735   O737    1.222   .     D
C738   O740    1.222   .     D
C738   H739    1.084   .     S
C741   H742    1.073   .     S
C741   O743    1.221   .     D
C744   O746    1.222   .     D
C744   H745    1.068   .     S
C747   O749    1.221   .     D
C747   H748    1.072   .     S
C750   O752    1.221   .     D
C750   H751    1.066   .     S
O753   C757    1.297   .     A
O753   Zn765   2.012   .     S
O754   C758    1.296   .     A
O754   Zn766   2.012   .     S
O755   C758    1.297   .     A
O755   Zn765   2.043   .     S
O756   C757    1.295   .     A
O756   Zn766   2.043   .     S
C757   C788    1.446   .     S
C758   C787    1.448   .     S
O759   C763    1.291   .     A
O759   Zn765   2.003   .     S
O760   C764    1.284   .     A
O760   Zn766   2.003   .     S
O761   Zn765   2.009   .     S
O761   C764    1.302   .     A
O762   Zn766   2.009   .     S
O762   C763    1.296   .     A
C763   C770    1.441   .     S
C764   C769    1.439   .     S
Zn765  N793    2.031   .     S
Zn766  N794    2.031   .     S
C767   C769    1.413   .     A
C767   C795    1.523   .     S
C767   C777    1.417   .     A
C768   C799    1.519   .     S
C768   C778    1.404   .     A
C768   C770    1.398   .     A
C769   C771    1.407   .     A
C770   C772    1.408   .     A
C771   C773    1.402   .     A
C771   C803    1.488   .     S
C772   C806    1.483   .     S
C772   C774    1.414   .     A
C773   C779    1.417   .     A
C773   C775    1.411   .     A
C774   C780    1.428   .     A
C774   C776    1.424   .     A
C775   C777    1.415   .     A
C775   C1622   1.404   .     S
C776   C778    1.421   .     A
C776   C1621   1.404   1_554 S
C777   C782    1.413   .     A
C778   C781    1.421   .     A
C779   C809    1.521   .     S
C779   C1627   1.406   .     S
C780   C813    1.517   .     S
C780   C1628   1.400   1_554 S
C781   C817    1.490   .     S
C781   C1625   1.406   1_554 S
C782   C820    1.487   .     S
C782   C1626   1.400   .     S
C783   C823    1.481   .     S
C783   C788    1.415   .     A
C784   C826    1.481   .     S
C784   C787    1.417   .     A
C784   C598    1.392   1_655 S
C785   C787    1.417   .     A
C785   C829    1.501   .     S
C785   C595    1.392   1_655 S
C786   C832    1.498   .     S
C786   C788    1.413   .     A
C789   N794    1.374   .     A
C789   C835    1.484   .     S
C790   C838    1.481   .     S
C790   N793    1.374   .     A
C790   C227    1.430   1_565 S
C791   N794    1.371   .     A
C791   C841    1.474   .     S
C792   C844    1.473   .     S
C792   N793    1.373   .     A
C792   C225    1.431   1_565 S
C795   H796    1.110   .     S
C795   H797    1.107   .     S
C795   H798    1.100   .     S
C799   H801    1.108   .     S
C799   H802    1.106   .     S
C799   H800    1.108   .     S
C803   H804    1.085   .     S
C803   O805    1.219   .     D
C806   O808    1.220   .     D
C806   H807    1.084   .     S
C809   H811    1.109   .     S
C809   H812    1.110   .     S
C809   H810    1.110   .     S
C813   H815    1.110   .     S
C813   H816    1.111   .     S
C813   H814    1.109   .     S
C817   O819    1.220   .     D
C817   H818    1.085   .     S
C820   H821    1.084   .     S
C820   O822    1.221   .     D
C823   O825    1.221   .     D
C823   H824    1.085   .     S
C826   O828    1.222   .     D
C826   H827    1.085   .     S
C829   H830    1.083   .     S
C829   O831    1.222   .     D
C832   O834    1.222   .     D
C832   H833    1.084   .     S
C835   H836    1.073   .     S
C835   O837    1.221   .     D
C838   O840    1.222   .     D
C838   H839    1.068   .     S
C841   O843    1.221   .     D
C841   H842    1.072   .     S
C844   O846    1.221   .     D
C844   H845    1.066   .     S
O847   C851    1.297   .     A
O847   Zn859   2.012   .     S
O848   C852    1.296   .     A
O848   Zn860   2.012   .     S
O849   C852    1.297   .     A
O849   Zn859   2.043   .     S
O850   C851    1.295   .     A
O850   Zn860   2.043   .     S
C851   C882    1.446   .     S
C852   C881    1.448   .     S
O853   C857    1.291   .     A
O853   Zn859   2.003   .     S
O854   C858    1.284   .     A
O854   Zn860   2.003   .     S
O855   Zn859   2.009   .     S
O855   C858    1.302   .     A
O856   Zn860   2.009   .     S
O856   C857    1.296   .     A
C857   C864    1.441   .     S
C858   C863    1.439   .     S
Zn859  N887    2.031   .     S
Zn860  N888    2.031   .     S
C861   C863    1.413   .     A
C861   C889    1.523   .     S
C861   C871    1.417   .     A
C862   C893    1.519   .     S
C862   C872    1.404   .     A
C862   C864    1.398   .     A
C863   C865    1.407   .     A
C864   C866    1.408   .     A
C865   C867    1.402   .     A
C865   C897    1.488   .     S
C866   C900    1.483   .     S
C866   C868    1.414   .     A
C867   C873    1.417   .     A
C867   C869    1.411   .     A
C868   C874    1.428   .     A
C868   C870    1.424   .     A
C869   C871    1.415   .     A
C869   C24     1.404   1_556 S
C870   C872    1.421   .     A
C871   C876    1.413   .     A
C872   C875    1.421   .     A
C873   C903    1.521   .     S
C873   C29     1.406   1_556 S
C874   C907    1.517   .     S
C875   C911    1.490   .     S
C876   C914    1.487   .     S
C876   C28     1.400   1_556 S
C877   C917    1.481   .     S
C877   C882    1.415   .     A
C877   C1067   1.392   1_455 S
C878   C920    1.481   .     S
C878   C881    1.417   .     A
C878   C974    1.392   .     S
C879   C881    1.417   .     A
C879   C923    1.501   .     S
C879   C971    1.392   .     S
C880   C926    1.498   .     S
C880   C882    1.413   .     A
C880   C1066   1.392   1_455 S
C883   N888    1.374   .     A
C883   C929    1.484   .     S
C883   C1450   1.431   1_545 S
C884   C932    1.481   .     S
C884   N887    1.374   .     A
C884   C1167   1.430   .     S
C885   N888    1.371   .     A
C885   C935    1.474   .     S
C885   C1448   1.430   1_545 S
C886   C938    1.473   .     S
C886   N887    1.373   .     A
C886   C1165   1.431   .     S
C889   H890    1.110   .     S
C889   H891    1.107   .     S
C889   H892    1.100   .     S
C893   H895    1.108   .     S
C893   H896    1.106   .     S
C893   H894    1.108   .     S
C897   H898    1.085   .     S
C897   O899    1.219   .     D
C900   O902    1.220   .     D
C900   H901    1.084   .     S
C903   H905    1.109   .     S
C903   H906    1.110   .     S
C903   H904    1.110   .     S
C907   H909    1.110   .     S
C907   H910    1.111   .     S
C907   H908    1.109   .     S
C911   O913    1.220   .     D
C911   H912    1.085   .     S
C914   H915    1.084   .     S
C914   O916    1.221   .     D
C917   O919    1.221   .     D
C917   H918    1.085   .     S
C920   O922    1.222   .     D
C920   H921    1.085   .     S
C923   H924    1.083   .     S
C923   O925    1.222   .     D
C926   O928    1.222   .     D
C926   H927    1.084   .     S
C929   H930    1.073   .     S
C929   O931    1.221   .     D
C932   O934    1.222   .     D
C932   H933    1.068   .     S
C935   O937    1.221   .     D
C935   H936    1.072   .     S
C938   O940    1.221   .     D
C938   H939    1.066   .     S
O941   C945    1.297   .     A
O941   Zn953   2.012   .     S
O942   C946    1.296   .     A
O942   Zn954   2.012   .     S
O943   C946    1.297   .     A
O943   Zn953   2.043   .     S
O944   C945    1.295   .     A
O944   Zn954   2.043   .     S
C945   C976    1.446   .     S
C946   C975    1.448   .     S
O947   C951    1.291   .     A
O947   Zn953   2.003   .     S
O948   C952    1.284   .     A
O948   Zn954   2.003   .     S
O949   Zn953   2.009   .     S
O949   C952    1.302   .     A
O950   Zn954   2.009   .     S
O950   C951    1.296   .     A
C951   C958    1.441   .     S
C952   C957    1.439   .     S
Zn953  N981    2.031   .     S
Zn954  N982    2.031   .     S
C955   C957    1.413   .     A
C955   C983    1.523   .     S
C955   C965    1.417   .     A
C956   C987    1.519   .     S
C956   C966    1.404   .     A
C956   C958    1.398   .     A
C957   C959    1.407   .     A
C958   C960    1.408   .     A
C959   C961    1.402   .     A
C959   C991    1.488   .     S
C960   C994    1.483   .     S
C960   C962    1.414   .     A
C961   C967    1.417   .     A
C961   C963    1.411   .     A
C962   C968    1.428   .     A
C962   C964    1.424   .     A
C963   C965    1.415   .     A
C963   C118    1.404   1_556 S
C964   C966    1.421   .     A
C965   C970    1.413   .     A
C966   C969    1.421   .     A
C967   C997    1.521   .     S
C967   C123    1.406   1_556 S
C968   C1001   1.517   .     S
C969   C1005   1.490   .     S
C970   C1008   1.487   .     S
C970   C122    1.400   1_556 S
C971   C1011   1.481   .     S
C971   C976    1.415   .     A
C972   C1014   1.481   .     S
C972   C975    1.417   .     A
C972   C1068   1.392   .     S
C973   C975    1.417   .     A
C973   C1017   1.501   .     S
C973   C1065   1.392   .     S
C974   C1020   1.498   .     S
C974   C976    1.413   .     A
C977   N982    1.374   .     A
C977   C1023   1.484   .     S
C977   C1544   1.431   1_545 S
C978   C1026   1.481   .     S
C978   N981    1.374   .     A
C978   C1261   1.430   .     S
C979   N982    1.371   .     A
C979   C1029   1.474   .     S
C979   C1542   1.430   1_545 S
C980   C1032   1.473   .     S
C980   N981    1.373   .     A
C980   C1259   1.431   .     S
C983   H984    1.110   .     S
C983   H985    1.107   .     S
C983   H986    1.100   .     S
C987   H989    1.108   .     S
C987   H990    1.106   .     S
C987   H988    1.108   .     S
C991   H992    1.085   .     S
C991   O993    1.219   .     D
C994   O996    1.220   .     D
C994   H995    1.084   .     S
C997   H999    1.109   .     S
C997   H1000   1.110   .     S
C997   H998    1.110   .     S
C1001  H1003   1.110   .     S
C1001  H1004   1.111   .     S
C1001  H1002   1.109   .     S
C1005  O1007   1.220   .     D
C1005  H1006   1.085   .     S
C1008  H1009   1.084   .     S
C1008  O1010   1.221   .     D
C1011  O1013   1.221   .     D
C1011  H1012   1.085   .     S
C1014  O1016   1.222   .     D
C1014  H1015   1.085   .     S
C1017  H1018   1.083   .     S
C1017  O1019   1.222   .     D
C1020  O1022   1.222   .     D
C1020  H1021   1.084   .     S
C1023  H1024   1.073   .     S
C1023  O1025   1.221   .     D
C1026  O1028   1.222   .     D
C1026  H1027   1.068   .     S
C1029  O1031   1.221   .     D
C1029  H1030   1.072   .     S
C1032  O1034   1.221   .     D
C1032  H1033   1.066   .     S
O1035  C1039   1.297   .     A
O1035  Zn1047  2.012   .     S
O1036  C1040   1.296   .     A
O1036  Zn1048  2.012   .     S
O1037  C1040   1.297   .     A
O1037  Zn1047  2.043   .     S
O1038  C1039   1.295   .     A
O1038  Zn1048  2.043   .     S
C1039  C1070   1.446   .     S
C1040  C1069   1.448   .     S
O1041  C1045   1.291   .     A
O1041  Zn1047  2.003   .     S
O1042  C1046   1.284   .     A
O1042  Zn1048  2.003   .     S
O1043  Zn1047  2.009   .     S
O1043  C1046   1.302   .     A
O1044  Zn1048  2.009   .     S
O1044  C1045   1.296   .     A
C1045  C1052   1.441   .     S
C1046  C1051   1.439   .     S
Zn1047 N1075   2.031   .     S
Zn1048 N1076   2.031   .     S
C1049  C1051   1.413   .     A
C1049  C1077   1.523   .     S
C1049  C1059   1.417   .     A
C1050  C1081   1.519   .     S
C1050  C1060   1.404   .     A
C1050  C1052   1.398   .     A
C1051  C1053   1.407   .     A
C1052  C1054   1.408   .     A
C1053  C1055   1.402   .     A
C1053  C1085   1.488   .     S
C1054  C1088   1.483   .     S
C1054  C1056   1.414   .     A
C1055  C1061   1.417   .     A
C1055  C1057   1.411   .     A
C1056  C1062   1.428   .     A
C1056  C1058   1.424   .     A
C1057  C1059   1.415   .     A
C1057  C212    1.404   1_556 S
C1058  C1060   1.421   .     A
C1059  C1064   1.413   .     A
C1060  C1063   1.421   .     A
C1061  C1091   1.521   .     S
C1061  C217    1.406   1_556 S
C1062  C1095   1.517   .     S
C1063  C1099   1.490   .     S
C1064  C1102   1.487   .     S
C1064  C216    1.400   1_556 S
C1065  C1105   1.481   .     S
C1065  C1070   1.415   .     A
C1066  C1108   1.481   .     S
C1066  C1069   1.417   .     A
C1066  C880    1.392   1_655 S
C1067  C1069   1.417   .     A
C1067  C1111   1.501   .     S
C1067  C877    1.392   1_655 S
C1068  C1114   1.498   .     S
C1068  C1070   1.413   .     A
C1071  N1076   1.374   .     A
C1071  C1117   1.484   .     S
C1071  C1638   1.431   1_545 S
C1072  C1120   1.481   .     S
C1072  N1075   1.374   .     A
C1072  C1355   1.430   .     S
C1073  N1076   1.371   .     A
C1073  C1123   1.474   .     S
C1073  C1636   1.430   1_545 S
C1074  C1126   1.473   .     S
C1074  N1075   1.373   .     A
C1074  C1353   1.431   .     S
C1077  H1078   1.110   .     S
C1077  H1079   1.107   .     S
C1077  H1080   1.100   .     S
C1081  H1083   1.108   .     S
C1081  H1084   1.106   .     S
C1081  H1082   1.108   .     S
C1085  H1086   1.085   .     S
C1085  O1087   1.219   .     D
C1088  O1090   1.220   .     D
C1088  H1089   1.084   .     S
C1091  H1093   1.109   .     S
C1091  H1094   1.110   .     S
C1091  H1092   1.110   .     S
C1095  H1097   1.110   .     S
C1095  H1098   1.111   .     S
C1095  H1096   1.109   .     S
C1099  O1101   1.220   .     D
C1099  H1100   1.085   .     S
C1102  H1103   1.084   .     S
C1102  O1104   1.221   .     D
C1105  O1107   1.221   .     D
C1105  H1106   1.085   .     S
C1108  O1110   1.222   .     D
C1108  H1109   1.085   .     S
C1111  H1112   1.083   .     S
C1111  O1113   1.222   .     D
C1114  O1116   1.222   .     D
C1114  H1115   1.084   .     S
C1117  H1118   1.073   .     S
C1117  O1119   1.221   .     D
C1120  O1122   1.222   .     D
C1120  H1121   1.068   .     S
C1123  O1125   1.221   .     D
C1123  H1124   1.072   .     S
C1126  O1128   1.221   .     D
C1126  H1127   1.066   .     S
O1129  C1133   1.297   .     A
O1129  Zn1141  2.012   .     S
O1130  C1134   1.296   .     A
O1130  Zn1142  2.012   .     S
O1131  C1134   1.297   .     A
O1131  Zn1141  2.043   .     S
O1132  C1133   1.295   .     A
O1132  Zn1142  2.043   .     S
C1133  C1164   1.446   .     S
C1134  C1163   1.448   .     S
O1135  C1139   1.291   .     A
O1135  Zn1141  2.003   .     S
O1136  C1140   1.284   .     A
O1136  Zn1142  2.003   .     S
O1137  Zn1141  2.009   .     S
O1137  C1140   1.302   .     A
O1138  Zn1142  2.009   .     S
O1138  C1139   1.296   .     A
C1139  C1146   1.441   .     S
C1140  C1145   1.439   .     S
Zn1141 N1169   2.031   .     S
Zn1142 N1170   2.031   .     S
C1143  C1145   1.413   .     A
C1143  C1171   1.523   .     S
C1143  C1153   1.417   .     A
C1144  C1175   1.519   .     S
C1144  C1154   1.404   .     A
C1144  C1146   1.398   .     A
C1145  C1147   1.407   .     A
C1146  C1148   1.408   .     A
C1147  C1149   1.402   .     A
C1147  C1179   1.488   .     S
C1148  C1182   1.483   .     S
C1148  C1150   1.414   .     A
C1149  C1155   1.417   .     A
C1149  C1151   1.411   .     A
C1150  C1156   1.428   .     A
C1150  C1152   1.424   .     A
C1151  C1153   1.415   .     A
C1151  C306    1.404   1_556 S
C1152  C1154   1.421   .     A
C1153  C1158   1.413   .     A
C1154  C1157   1.421   .     A
C1155  C1185   1.521   .     S
C1155  C311    1.406   1_556 S
C1156  C1189   1.517   .     S
C1157  C1193   1.490   .     S
C1158  C1196   1.487   .     S
C1158  C310    1.400   1_556 S
C1159  C1199   1.481   .     S
C1159  C1164   1.415   .     A
C1159  C1349   1.392   1_455 S
C1160  C1202   1.481   .     S
C1160  C1163   1.417   .     A
C1160  C1256   1.392   .     S
C1161  C1163   1.417   .     A
C1161  C1205   1.501   .     S
C1161  C1253   1.392   .     S
C1162  C1208   1.498   .     S
C1162  C1164   1.413   .     A
C1162  C1348   1.392   1_455 S
C1165  N1170   1.374   .     A
C1165  C1211   1.484   .     S
C1166  C1214   1.481   .     S
C1166  N1169   1.374   .     A
C1166  C1449   1.430   .     S
C1167  N1170   1.371   .     A
C1167  C1217   1.474   .     S
C1168  C1220   1.473   .     S
C1168  N1169   1.373   .     A
C1168  C1447   1.431   .     S
C1171  H1172   1.110   .     S
C1171  H1173   1.107   .     S
C1171  H1174   1.100   .     S
C1175  H1177   1.108   .     S
C1175  H1178   1.106   .     S
C1175  H1176   1.108   .     S
C1179  H1180   1.085   .     S
C1179  O1181   1.219   .     D
C1182  O1184   1.220   .     D
C1182  H1183   1.084   .     S
C1185  H1187   1.109   .     S
C1185  H1188   1.110   .     S
C1185  H1186   1.110   .     S
C1189  H1191   1.110   .     S
C1189  H1192   1.111   .     S
C1189  H1190   1.109   .     S
C1193  O1195   1.220   .     D
C1193  H1194   1.085   .     S
C1196  H1197   1.084   .     S
C1196  O1198   1.221   .     D
C1199  O1201   1.221   .     D
C1199  H1200   1.085   .     S
C1202  O1204   1.222   .     D
C1202  H1203   1.085   .     S
C1205  H1206   1.083   .     S
C1205  O1207   1.222   .     D
C1208  O1210   1.222   .     D
C1208  H1209   1.084   .     S
C1211  H1212   1.073   .     S
C1211  O1213   1.221   .     D
C1214  O1216   1.222   .     D
C1214  H1215   1.068   .     S
C1217  O1219   1.221   .     D
C1217  H1218   1.072   .     S
C1220  O1222   1.221   .     D
C1220  H1221   1.066   .     S
O1223  C1227   1.297   .     A
O1223  Zn1235  2.012   .     S
O1224  C1228   1.296   .     A
O1224  Zn1236  2.012   .     S
O1225  C1228   1.297   .     A
O1225  Zn1235  2.043   .     S
O1226  C1227   1.295   .     A
O1226  Zn1236  2.043   .     S
C1227  C1258   1.446   .     S
C1228  C1257   1.448   .     S
O1229  C1233   1.291   .     A
O1229  Zn1235  2.003   .     S
O1230  C1234   1.284   .     A
O1230  Zn1236  2.003   .     S
O1231  Zn1235  2.009   .     S
O1231  C1234   1.302   .     A
O1232  Zn1236  2.009   .     S
O1232  C1233   1.296   .     A
C1233  C1240   1.441   .     S
C1234  C1239   1.439   .     S
Zn1235 N1263   2.031   .     S
Zn1236 N1264   2.031   .     S
C1237  C1239   1.413   .     A
C1237  C1265   1.523   .     S
C1237  C1247   1.417   .     A
C1238  C1269   1.519   .     S
C1238  C1248   1.404   .     A
C1238  C1240   1.398   .     A
C1239  C1241   1.407   .     A
C1240  C1242   1.408   .     A
C1241  C1243   1.402   .     A
C1241  C1273   1.488   .     S
C1242  C1276   1.483   .     S
C1242  C1244   1.414   .     A
C1243  C1249   1.417   .     A
C1243  C1245   1.411   .     A
C1244  C1250   1.428   .     A
C1244  C1246   1.424   .     A
C1245  C1247   1.415   .     A
C1245  C400    1.404   1_556 S
C1246  C1248   1.421   .     A
C1247  C1252   1.413   .     A
C1248  C1251   1.421   .     A
C1249  C1279   1.521   .     S
C1249  C405    1.406   1_556 S
C1250  C1283   1.517   .     S
C1251  C1287   1.490   .     S
C1252  C1290   1.487   .     S
C1252  C404    1.400   1_556 S
C1253  C1293   1.481   .     S
C1253  C1258   1.415   .     A
C1254  C1296   1.481   .     S
C1254  C1257   1.417   .     A
C1254  C1350   1.392   .     S
C1255  C1257   1.417   .     A
C1255  C1299   1.501   .     S
C1255  C1347   1.392   .     S
C1256  C1302   1.498   .     S
C1256  C1258   1.413   .     A
C1259  N1264   1.374   .     A
C1259  C1305   1.484   .     S
C1260  C1308   1.481   .     S
C1260  N1263   1.374   .     A
C1260  C1543   1.430   .     S
C1261  N1264   1.371   .     A
C1261  C1311   1.474   .     S
C1262  C1314   1.473   .     S
C1262  N1263   1.373   .     A
C1262  C1541   1.431   .     S
C1265  H1266   1.110   .     S
C1265  H1267   1.107   .     S
C1265  H1268   1.100   .     S
C1269  H1271   1.108   .     S
C1269  H1272   1.106   .     S
C1269  H1270   1.108   .     S
C1273  H1274   1.085   .     S
C1273  O1275   1.219   .     D
C1276  O1278   1.220   .     D
C1276  H1277   1.084   .     S
C1279  H1281   1.109   .     S
C1279  H1282   1.110   .     S
C1279  H1280   1.110   .     S
C1283  H1285   1.110   .     S
C1283  H1286   1.111   .     S
C1283  H1284   1.109   .     S
C1287  O1289   1.220   .     D
C1287  H1288   1.085   .     S
C1290  H1291   1.084   .     S
C1290  O1292   1.221   .     D
C1293  O1295   1.221   .     D
C1293  H1294   1.085   .     S
C1296  O1298   1.222   .     D
C1296  H1297   1.085   .     S
C1299  H1300   1.083   .     S
C1299  O1301   1.222   .     D
C1302  O1304   1.222   .     D
C1302  H1303   1.084   .     S
C1305  H1306   1.073   .     S
C1305  O1307   1.221   .     D
C1308  O1310   1.222   .     D
C1308  H1309   1.068   .     S
C1311  O1313   1.221   .     D
C1311  H1312   1.072   .     S
C1314  O1316   1.221   .     D
C1314  H1315   1.066   .     S
O1317  C1321   1.297   .     A
O1317  Zn1329  2.012   .     S
O1318  C1322   1.296   .     A
O1318  Zn1330  2.012   .     S
O1319  C1322   1.297   .     A
O1319  Zn1329  2.043   .     S
O1320  C1321   1.295   .     A
O1320  Zn1330  2.043   .     S
C1321  C1352   1.446   .     S
C1322  C1351   1.448   .     S
O1323  C1327   1.291   .     A
O1323  Zn1329  2.003   .     S
O1324  C1328   1.284   .     A
O1324  Zn1330  2.003   .     S
O1325  Zn1329  2.009   .     S
O1325  C1328   1.302   .     A
O1326  Zn1330  2.009   .     S
O1326  C1327   1.296   .     A
C1327  C1334   1.441   .     S
C1328  C1333   1.439   .     S
Zn1329 N1357   2.031   .     S
Zn1330 N1358   2.031   .     S
C1331  C1333   1.413   .     A
C1331  C1359   1.523   .     S
C1331  C1341   1.417   .     A
C1332  C1363   1.519   .     S
C1332  C1342   1.404   .     A
C1332  C1334   1.398   .     A
C1333  C1335   1.407   .     A
C1334  C1336   1.408   .     A
C1335  C1337   1.402   .     A
C1335  C1367   1.488   .     S
C1336  C1370   1.483   .     S
C1336  C1338   1.414   .     A
C1337  C1343   1.417   .     A
C1337  C1339   1.411   .     A
C1338  C1344   1.428   .     A
C1338  C1340   1.424   .     A
C1339  C1341   1.415   .     A
C1339  C494    1.404   1_556 S
C1340  C1342   1.421   .     A
C1341  C1346   1.413   .     A
C1342  C1345   1.421   .     A
C1343  C1373   1.521   .     S
C1343  C499    1.406   1_556 S
C1344  C1377   1.517   .     S
C1345  C1381   1.490   .     S
C1346  C1384   1.487   .     S
C1346  C498    1.400   1_556 S
C1347  C1387   1.481   .     S
C1347  C1352   1.415   .     A
C1348  C1390   1.481   .     S
C1348  C1351   1.417   .     A
C1348  C1162   1.392   1_655 S
C1349  C1351   1.417   .     A
C1349  C1393   1.501   .     S
C1349  C1159   1.392   1_655 S
C1350  C1396   1.498   .     S
C1350  C1352   1.413   .     A
C1353  N1358   1.374   .     A
C1353  C1399   1.484   .     S
C1354  C1402   1.481   .     S
C1354  N1357   1.374   .     A
C1354  C1637   1.430   .     S
C1355  N1358   1.371   .     A
C1355  C1405   1.474   .     S
C1356  C1408   1.473   .     S
C1356  N1357   1.373   .     A
C1356  C1635   1.431   .     S
C1359  H1360   1.110   .     S
C1359  H1361   1.107   .     S
C1359  H1362   1.100   .     S
C1363  H1365   1.108   .     S
C1363  H1366   1.106   .     S
C1363  H1364   1.108   .     S
C1367  H1368   1.085   .     S
C1367  O1369   1.219   .     D
C1370  O1372   1.220   .     D
C1370  H1371   1.084   .     S
C1373  H1375   1.109   .     S
C1373  H1376   1.110   .     S
C1373  H1374   1.110   .     S
C1377  H1379   1.110   .     S
C1377  H1380   1.111   .     S
C1377  H1378   1.109   .     S
C1381  O1383   1.220   .     D
C1381  H1382   1.085   .     S
C1384  H1385   1.084   .     S
C1384  O1386   1.221   .     D
C1387  O1389   1.221   .     D
C1387  H1388   1.085   .     S
C1390  O1392   1.222   .     D
C1390  H1391   1.085   .     S
C1393  H1394   1.083   .     S
C1393  O1395   1.222   .     D
C1396  O1398   1.222   .     D
C1396  H1397   1.084   .     S
C1399  H1400   1.073   .     S
C1399  O1401   1.221   .     D
C1402  O1404   1.222   .     D
C1402  H1403   1.068   .     S
C1405  O1407   1.221   .     D
C1405  H1406   1.072   .     S
C1408  O1410   1.221   .     D
C1408  H1409   1.066   .     S
O1411  C1415   1.297   .     A
O1411  Zn1423  2.012   .     S
O1412  C1416   1.296   .     A
O1412  Zn1424  2.012   .     S
O1413  C1416   1.297   .     A
O1413  Zn1423  2.043   .     S
O1414  C1415   1.295   .     A
O1414  Zn1424  2.043   .     S
C1415  C1446   1.446   .     S
C1416  C1445   1.448   .     S
O1417  C1421   1.291   .     A
O1417  Zn1423  2.003   .     S
O1418  C1422   1.284   .     A
O1418  Zn1424  2.003   .     S
O1419  Zn1423  2.009   .     S
O1419  C1422   1.302   .     A
O1420  Zn1424  2.009   .     S
O1420  C1421   1.296   .     A
C1421  C1428   1.441   .     S
C1422  C1427   1.439   .     S
Zn1423 N1451   2.031   .     S
Zn1424 N1452   2.031   .     S
C1425  C1427   1.413   .     A
C1425  C1453   1.523   .     S
C1425  C1435   1.417   .     A
C1426  C1457   1.519   .     S
C1426  C1436   1.404   .     A
C1426  C1428   1.398   .     A
C1427  C1429   1.407   .     A
C1428  C1430   1.408   .     A
C1429  C1431   1.402   .     A
C1429  C1461   1.488   .     S
C1430  C1464   1.483   .     S
C1430  C1432   1.414   .     A
C1431  C1437   1.417   .     A
C1431  C1433   1.411   .     A
C1432  C1438   1.428   .     A
C1432  C1434   1.424   .     A
C1433  C1435   1.415   .     A
C1433  C588    1.404   1_556 S
C1434  C1436   1.421   .     A
C1435  C1440   1.413   .     A
C1436  C1439   1.421   .     A
C1437  C1467   1.521   .     S
C1437  C593    1.406   1_556 S
C1438  C1471   1.517   .     S
C1439  C1475   1.490   .     S
C1440  C1478   1.487   .     S
C1440  C592    1.400   1_556 S
C1441  C1481   1.481   .     S
C1441  C1446   1.415   .     A
C1441  C1631   1.392   1_455 S
C1442  C1484   1.481   .     S
C1442  C1445   1.417   .     A
C1442  C1538   1.392   .     S
C1443  C1445   1.417   .     A
C1443  C1487   1.501   .     S
C1443  C1535   1.392   .     S
C1444  C1490   1.498   .     S
C1444  C1446   1.413   .     A
C1444  C1630   1.392   1_455 S
C1447  N1452   1.374   .     A
C1447  C1493   1.484   .     S
C1448  C1496   1.481   .     S
C1448  N1451   1.374   .     A
C1448  C885    1.430   1_565 S
C1449  N1452   1.371   .     A
C1449  C1499   1.474   .     S
C1450  C1502   1.473   .     S
C1450  N1451   1.373   .     A
C1450  C883    1.431   1_565 S
C1453  H1454   1.110   .     S
C1453  H1455   1.107   .     S
C1453  H1456   1.100   .     S
C1457  H1459   1.108   .     S
C1457  H1460   1.106   .     S
C1457  H1458   1.108   .     S
C1461  H1462   1.085   .     S
C1461  O1463   1.219   .     D
C1464  O1466   1.220   .     D
C1464  H1465   1.084   .     S
C1467  H1469   1.109   .     S
C1467  H1470   1.110   .     S
C1467  H1468   1.110   .     S
C1471  H1473   1.110   .     S
C1471  H1474   1.111   .     S
C1471  H1472   1.109   .     S
C1475  O1477   1.220   .     D
C1475  H1476   1.085   .     S
C1478  H1479   1.084   .     S
C1478  O1480   1.221   .     D
C1481  O1483   1.221   .     D
C1481  H1482   1.085   .     S
C1484  O1486   1.222   .     D
C1484  H1485   1.085   .     S
C1487  H1488   1.083   .     S
C1487  O1489   1.222   .     D
C1490  O1492   1.222   .     D
C1490  H1491   1.084   .     S
C1493  H1494   1.073   .     S
C1493  O1495   1.221   .     D
C1496  O1498   1.222   .     D
C1496  H1497   1.068   .     S
C1499  O1501   1.221   .     D
C1499  H1500   1.072   .     S
C1502  O1504   1.221   .     D
C1502  H1503   1.066   .     S
O1505  C1509   1.297   .     A
O1505  Zn1517  2.012   .     S
O1506  C1510   1.296   .     A
O1506  Zn1518  2.012   .     S
O1507  C1510   1.297   .     A
O1507  Zn1517  2.043   .     S
O1508  C1509   1.295   .     A
O1508  Zn1518  2.043   .     S
C1509  C1540   1.446   .     S
C1510  C1539   1.448   .     S
O1511  C1515   1.291   .     A
O1511  Zn1517  2.003   .     S
O1512  C1516   1.284   .     A
O1512  Zn1518  2.003   .     S
O1513  Zn1517  2.009   .     S
O1513  C1516   1.302   .     A
O1514  Zn1518  2.009   .     S
O1514  C1515   1.296   .     A
C1515  C1522   1.441   .     S
C1516  C1521   1.439   .     S
Zn1517 N1545   2.031   .     S
Zn1518 N1546   2.031   .     S
C1519  C1521   1.413   .     A
C1519  C1547   1.523   .     S
C1519  C1529   1.417   .     A
C1520  C1551   1.519   .     S
C1520  C1530   1.404   .     A
C1520  C1522   1.398   .     A
C1521  C1523   1.407   .     A
C1522  C1524   1.408   .     A
C1523  C1525   1.402   .     A
C1523  C1555   1.488   .     S
C1524  C1558   1.483   .     S
C1524  C1526   1.414   .     A
C1525  C1531   1.417   .     A
C1525  C1527   1.411   .     A
C1526  C1532   1.428   .     A
C1526  C1528   1.424   .     A
C1527  C1529   1.415   .     A
C1527  C682    1.404   1_556 S
C1528  C1530   1.421   .     A
C1529  C1534   1.413   .     A
C1530  C1533   1.421   .     A
C1531  C1561   1.521   .     S
C1531  C687    1.406   1_556 S
C1532  C1565   1.517   .     S
C1533  C1569   1.490   .     S
C1534  C1572   1.487   .     S
C1534  C686    1.400   1_556 S
C1535  C1575   1.481   .     S
C1535  C1540   1.415   .     A
C1536  C1578   1.481   .     S
C1536  C1539   1.417   .     A
C1536  C1632   1.392   .     S
C1537  C1539   1.417   .     A
C1537  C1581   1.501   .     S
C1537  C1629   1.392   .     S
C1538  C1584   1.498   .     S
C1538  C1540   1.413   .     A
C1541  N1546   1.374   .     A
C1541  C1587   1.484   .     S
C1542  C1590   1.481   .     S
C1542  N1545   1.374   .     A
C1542  C979    1.430   1_565 S
C1543  N1546   1.371   .     A
C1543  C1593   1.474   .     S
C1544  C1596   1.473   .     S
C1544  N1545   1.373   .     A
C1544  C977    1.431   1_565 S
C1547  H1548   1.110   .     S
C1547  H1549   1.107   .     S
C1547  H1550   1.100   .     S
C1551  H1553   1.108   .     S
C1551  H1554   1.106   .     S
C1551  H1552   1.108   .     S
C1555  H1556   1.085   .     S
C1555  O1557   1.219   .     D
C1558  O1560   1.220   .     D
C1558  H1559   1.084   .     S
C1561  H1563   1.109   .     S
C1561  H1564   1.110   .     S
C1561  H1562   1.110   .     S
C1565  H1567   1.110   .     S
C1565  H1568   1.111   .     S
C1565  H1566   1.109   .     S
C1569  O1571   1.220   .     D
C1569  H1570   1.085   .     S
C1572  H1573   1.084   .     S
C1572  O1574   1.221   .     D
C1575  O1577   1.221   .     D
C1575  H1576   1.085   .     S
C1578  O1580   1.222   .     D
C1578  H1579   1.085   .     S
C1581  H1582   1.083   .     S
C1581  O1583   1.222   .     D
C1584  O1586   1.222   .     D
C1584  H1585   1.084   .     S
C1587  H1588   1.073   .     S
C1587  O1589   1.221   .     D
C1590  O1592   1.222   .     D
C1590  H1591   1.068   .     S
C1593  O1595   1.221   .     D
C1593  H1594   1.072   .     S
C1596  O1598   1.221   .     D
C1596  H1597   1.066   .     S
O1599  C1603   1.297   .     A
O1599  Zn1611  2.012   .     S
O1600  C1604   1.296   .     A
O1600  Zn1612  2.012   .     S
O1601  C1604   1.297   .     A
O1601  Zn1611  2.043   .     S
O1602  C1603   1.295   .     A
O1602  Zn1612  2.043   .     S
C1603  C1634   1.446   .     S
C1604  C1633   1.448   .     S
O1605  C1609   1.291   .     A
O1605  Zn1611  2.003   .     S
O1606  C1610   1.284   .     A
O1606  Zn1612  2.003   .     S
O1607  Zn1611  2.009   .     S
O1607  C1610   1.302   .     A
O1608  Zn1612  2.009   .     S
O1608  C1609   1.296   .     A
C1609  C1616   1.441   .     S
C1610  C1615   1.439   .     S
Zn1611 N1639   2.031   .     S
Zn1612 N1640   2.031   .     S
C1613  C1615   1.413   .     A
C1613  C1641   1.523   .     S
C1613  C1623   1.417   .     A
C1614  C1645   1.519   .     S
C1614  C1624   1.404   .     A
C1614  C1616   1.398   .     A
C1615  C1617   1.407   .     A
C1616  C1618   1.408   .     A
C1617  C1619   1.402   .     A
C1617  C1649   1.488   .     S
C1618  C1652   1.483   .     S
C1618  C1620   1.414   .     A
C1619  C1625   1.417   .     A
C1619  C1621   1.411   .     A
C1620  C1626   1.428   .     A
C1620  C1622   1.424   .     A
C1621  C1623   1.415   .     A
C1621  C776    1.404   1_556 S
C1622  C1624   1.421   .     A
C1623  C1628   1.413   .     A
C1624  C1627   1.421   .     A
C1625  C1655   1.521   .     S
C1625  C781    1.406   1_556 S
C1626  C1659   1.517   .     S
C1627  C1663   1.490   .     S
C1628  C1666   1.487   .     S
C1628  C780    1.400   1_556 S
C1629  C1669   1.481   .     S
C1629  C1634   1.415   .     A
C1630  C1672   1.481   .     S
C1630  C1633   1.417   .     A
C1630  C1444   1.392   1_655 S
C1631  C1633   1.417   .     A
C1631  C1675   1.501   .     S
C1631  C1441   1.392   1_655 S
C1632  C1678   1.498   .     S
C1632  C1634   1.413   .     A
C1635  N1640   1.374   .     A
C1635  C1681   1.484   .     S
C1636  C1684   1.481   .     S
C1636  N1639   1.374   .     A
C1636  C1073   1.430   1_565 S
C1637  N1640   1.371   .     A
C1637  C1687   1.474   .     S
C1638  C1690   1.473   .     S
C1638  N1639   1.373   .     A
C1638  C1071   1.431   1_565 S
C1641  H1642   1.110   .     S
C1641  H1643   1.107   .     S
C1641  H1644   1.100   .     S
C1645  H1647   1.108   .     S
C1645  H1648   1.106   .     S
C1645  H1646   1.108   .     S
C1649  H1650   1.085   .     S
C1649  O1651   1.219   .     D
C1652  O1654   1.220   .     D
C1652  H1653   1.084   .     S
C1655  H1657   1.109   .     S
C1655  H1658   1.110   .     S
C1655  H1656   1.110   .     S
C1659  H1661   1.110   .     S
C1659  H1662   1.111   .     S
C1659  H1660   1.109   .     S
C1663  O1665   1.220   .     D
C1663  H1664   1.085   .     S
C1666  H1667   1.084   .     S
C1666  O1668   1.221   .     D
C1669  O1671   1.221   .     D
C1669  H1670   1.085   .     S
C1672  O1674   1.222   .     D
C1672  H1673   1.085   .     S
C1675  H1676   1.083   .     S
C1675  O1677   1.222   .     D
C1678  O1680   1.222   .     D
C1678  H1679   1.084   .     S
C1681  H1682   1.073   .     S
C1681  O1683   1.221   .     D
C1684  O1686   1.222   .     D
C1684  H1685   1.068   .     S
C1687  O1689   1.221   .     D
C1687  H1688   1.072   .     S
C1690  O1692   1.221   .     D
C1690  H1691   1.066   .     S
