data_str_m3_o10_o17_pcu_sym.202
_audit_creation_date              2020-01-03
_audit_creation_method            'Materials Studio'
_symmetry_space_group_name_H-M    'P1'
_symmetry_Int_Tables_number       1
_symmetry_cell_setting            triclinic
loop_
_symmetry_equiv_pos_as_xyz
  x,y,z
_cell_length_a                    23.4664
_cell_length_b                    25.9516
_cell_length_c                    29.7961
_cell_angle_alpha                 91.8140
_cell_angle_beta                  85.5728
_cell_angle_gamma                 92.8745
loop_
_atom_site_label
_atom_site_type_symbol
_atom_site_fract_x
_atom_site_fract_y
_atom_site_fract_z
_atom_site_U_iso_or_equiv
_atom_site_adp_type
_atom_site_occupancy
O1     O     0.12975   0.24619   0.25299   0.00000  Uiso   1.00
O2     O     0.20358   0.08714   0.24702   0.00000  Uiso   1.00
O3     O     0.22613   0.23721   0.24519   0.00000  Uiso   1.00
O4     O     0.10720   0.09613   0.25482   0.00000  Uiso   1.00
C5     C     0.18143   0.26467   0.24908   0.00000  Uiso   1.00
C6     C     0.15191   0.06866   0.25092   0.00000  Uiso   1.00
O7     O     0.11847   0.17117   0.31998   0.00000  Uiso   1.00
O8     O     0.21486   0.16216   0.18003   0.00000  Uiso   1.00
O9     O     0.21485   0.16219   0.31218   0.00000  Uiso   1.00
O10    O     0.11848   0.17115   0.18783   0.00000  Uiso   1.00
C11    C     0.16727   0.16674   0.33622   0.00000  Uiso   1.00
C12    C     0.16606   0.16659   0.16378   0.00000  Uiso   1.00
Zn13   Zn    0.10231   0.17266   0.25521   0.00000  Uiso   1.00
Zn14   Zn    0.23102   0.16067   0.24479   0.00000  Uiso   1.00
C15    C     0.15072   0.12081   0.09335   0.00000  Uiso   1.00
C16    C     0.18261   0.21253   0.40665   0.00000  Uiso   1.00
C17    C     0.16463   0.16671   0.11619   0.00000  Uiso   1.00
C18    C     0.16870   0.16663   0.38381   0.00000  Uiso   1.00
C19    C     0.17759   0.21277   0.09428   0.00000  Uiso   1.00
C20    C     0.15574   0.12057   0.40572   0.00000  Uiso   1.00
C21    C     0.18565   0.21171   0.04729   0.00000  Uiso   1.00
C22    C     0.14769   0.12162   0.45271   0.00000  Uiso   1.00
C23    C     0.16591   0.16675   0.02352   0.00000  Uiso   1.00
C24    C     0.16743   0.16658   0.47648   0.00000  Uiso   1.00
C25    C     0.14482   0.12189   0.04693   0.00000  Uiso   1.00
C26    C     0.18851   0.21144   0.45307   0.00000  Uiso   1.00
C27    C     0.21406   0.25299   0.02348   0.00000  Uiso   1.00
C28    C     0.11928   0.08035   0.47652   0.00000  Uiso   1.00
C29    C     0.21494   0.25317   0.47659   0.00000  Uiso   1.00
C30    C     0.11839   0.08016   0.02341   0.00000  Uiso   1.00
C31    C     0.18813   0.31804   0.24249   0.00000  Uiso   1.00
C32    C     0.14520   0.01529   0.25751   0.00000  Uiso   1.00
N33    N     0.31678   0.15265   0.23783   0.00000  Uiso   1.00
N34    N     0.01656   0.18068   0.26217   0.00000  Uiso   1.00
Cl35   Cl    0.14566   0.06286   0.12386   0.00000  Uiso   1.00
Cl36   Cl    0.18767   0.27047   0.37615   0.00000  Uiso   1.00
Cl37   Cl    0.17515   0.27099   0.12684   0.00000  Uiso   1.00
Cl38   Cl    0.15818   0.06235   0.37316   0.00000  Uiso   1.00
Cl39   Cl    0.25950   0.29959   0.04976   0.00000  Uiso   1.00
Cl40   Cl    0.07384   0.03374   0.45024   0.00000  Uiso   1.00
N41    N     0.24923   0.29260   0.45309   0.00000  Uiso   1.00
O42    O     0.23776   0.00761   0.45958   0.00000  Uiso   1.00
O43    O     0.29484   0.28048   0.42813   0.00000  Uiso   1.00
N44    N     0.08411   0.04073   0.04691   0.00000  Uiso   1.00
O45    O     0.09558   0.32572   0.04042   0.00000  Uiso   1.00
O46    O     0.03850   0.05285   0.07187   0.00000  Uiso   1.00
Cl47   Cl    0.24981   0.00381   0.20707   0.00000  Uiso   1.00
Cl48   Cl    0.08352   0.32952   0.29293   0.00000  Uiso   1.00
Cl49   Cl    0.01401   0.11061   0.19813   0.00000  Uiso   1.00
Cl50   Cl    0.31933   0.22273   0.30187   0.00000  Uiso   1.00
O51    O     0.46308   0.24619   0.25299   0.00000  Uiso   1.00
O52    O     0.53692   0.08714   0.24702   0.00000  Uiso   1.00
O53    O     0.55946   0.23721   0.24519   0.00000  Uiso   1.00
O54    O     0.44054   0.09613   0.25482   0.00000  Uiso   1.00
C55    C     0.51476   0.26467   0.24908   0.00000  Uiso   1.00
C56    C     0.48524   0.06866   0.25092   0.00000  Uiso   1.00
O57    O     0.45181   0.17117   0.31998   0.00000  Uiso   1.00
O58    O     0.54819   0.16216   0.18003   0.00000  Uiso   1.00
O59    O     0.54819   0.16219   0.31218   0.00000  Uiso   1.00
O60    O     0.45181   0.17115   0.18783   0.00000  Uiso   1.00
C61    C     0.50060   0.16674   0.33622   0.00000  Uiso   1.00
C62    C     0.49940   0.16659   0.16378   0.00000  Uiso   1.00
Zn63   Zn    0.43565   0.17266   0.25521   0.00000  Uiso   1.00
Zn64   Zn    0.56435   0.16067   0.24479   0.00000  Uiso   1.00
C65    C     0.48406   0.12081   0.09335   0.00000  Uiso   1.00
C66    C     0.51594   0.21253   0.40665   0.00000  Uiso   1.00
C67    C     0.49796   0.16671   0.11619   0.00000  Uiso   1.00
C68    C     0.50204   0.16663   0.38381   0.00000  Uiso   1.00
C69    C     0.51092   0.21277   0.09428   0.00000  Uiso   1.00
C70    C     0.48908   0.12057   0.40572   0.00000  Uiso   1.00
C71    C     0.51898   0.21171   0.04729   0.00000  Uiso   1.00
C72    C     0.48102   0.12162   0.45271   0.00000  Uiso   1.00
C73    C     0.49924   0.16675   0.02352   0.00000  Uiso   1.00
C74    C     0.50076   0.16658   0.47648   0.00000  Uiso   1.00
C75    C     0.47815   0.12189   0.04693   0.00000  Uiso   1.00
C76    C     0.52185   0.21144   0.45307   0.00000  Uiso   1.00
C77    C     0.54739   0.25299   0.02348   0.00000  Uiso   1.00
C78    C     0.45261   0.08035   0.47652   0.00000  Uiso   1.00
C79    C     0.54828   0.25317   0.47659   0.00000  Uiso   1.00
C80    C     0.45173   0.08016   0.02341   0.00000  Uiso   1.00
C81    C     0.52146   0.31804   0.24249   0.00000  Uiso   1.00
C82    C     0.47854   0.01529   0.25751   0.00000  Uiso   1.00
N83    N     0.65011   0.15265   0.23783   0.00000  Uiso   1.00
N84    N     0.34989   0.18068   0.26217   0.00000  Uiso   1.00
Cl85   Cl    0.47899   0.06286   0.12386   0.00000  Uiso   1.00
Cl86   Cl    0.52101   0.27047   0.37615   0.00000  Uiso   1.00
Cl87   Cl    0.50849   0.27099   0.12684   0.00000  Uiso   1.00
Cl88   Cl    0.49152   0.06235   0.37316   0.00000  Uiso   1.00
Cl89   Cl    0.59284   0.29959   0.04976   0.00000  Uiso   1.00
Cl90   Cl    0.40717   0.03374   0.45024   0.00000  Uiso   1.00
N91    N     0.58256   0.29260   0.45309   0.00000  Uiso   1.00
O92    O     0.57109   0.00761   0.45958   0.00000  Uiso   1.00
O93    O     0.62817   0.28048   0.42813   0.00000  Uiso   1.00
N94    N     0.41744   0.04073   0.04691   0.00000  Uiso   1.00
O95    O     0.42891   0.32572   0.04042   0.00000  Uiso   1.00
O96    O     0.37183   0.05285   0.07187   0.00000  Uiso   1.00
Cl97   Cl    0.58314   0.00381   0.20707   0.00000  Uiso   1.00
Cl98   Cl    0.41686   0.32952   0.29293   0.00000  Uiso   1.00
Cl99   Cl    0.34734   0.11061   0.19813   0.00000  Uiso   1.00
Cl100  Cl    0.65266   0.22273   0.30187   0.00000  Uiso   1.00
O101   O     0.79642   0.24619   0.25299   0.00000  Uiso   1.00
O102   O     0.87025   0.08714   0.24702   0.00000  Uiso   1.00
O103   O     0.89280   0.23721   0.24519   0.00000  Uiso   1.00
O104   O     0.77387   0.09613   0.25482   0.00000  Uiso   1.00
C105   C     0.84809   0.26467   0.24908   0.00000  Uiso   1.00
C106   C     0.81857   0.06866   0.25092   0.00000  Uiso   1.00
O107   O     0.78514   0.17117   0.31998   0.00000  Uiso   1.00
O108   O     0.88153   0.16216   0.18003   0.00000  Uiso   1.00
O109   O     0.88152   0.16219   0.31218   0.00000  Uiso   1.00
O110   O     0.78515   0.17115   0.18783   0.00000  Uiso   1.00
C111   C     0.83394   0.16674   0.33622   0.00000  Uiso   1.00
C112   C     0.83273   0.16659   0.16378   0.00000  Uiso   1.00
Zn113  Zn    0.76898   0.17266   0.25521   0.00000  Uiso   1.00
Zn114  Zn    0.89769   0.16067   0.24479   0.00000  Uiso   1.00
C115   C     0.81739   0.12081   0.09335   0.00000  Uiso   1.00
C116   C     0.84928   0.21253   0.40665   0.00000  Uiso   1.00
C117   C     0.83130   0.16671   0.11619   0.00000  Uiso   1.00
C118   C     0.83537   0.16663   0.38381   0.00000  Uiso   1.00
C119   C     0.84426   0.21277   0.09428   0.00000  Uiso   1.00
C120   C     0.82241   0.12057   0.40572   0.00000  Uiso   1.00
C121   C     0.85232   0.21171   0.04729   0.00000  Uiso   1.00
C122   C     0.81436   0.12162   0.45271   0.00000  Uiso   1.00
C123   C     0.83258   0.16675   0.02352   0.00000  Uiso   1.00
C124   C     0.83409   0.16658   0.47648   0.00000  Uiso   1.00
C125   C     0.81149   0.12189   0.04693   0.00000  Uiso   1.00
C126   C     0.85518   0.21144   0.45307   0.00000  Uiso   1.00
C127   C     0.88072   0.25299   0.02348   0.00000  Uiso   1.00
C128   C     0.78595   0.08035   0.47652   0.00000  Uiso   1.00
C129   C     0.88161   0.25317   0.47659   0.00000  Uiso   1.00
C130   C     0.78506   0.08016   0.02341   0.00000  Uiso   1.00
C131   C     0.85480   0.31804   0.24249   0.00000  Uiso   1.00
C132   C     0.81187   0.01529   0.25751   0.00000  Uiso   1.00
N133   N     0.98344   0.15265   0.23783   0.00000  Uiso   1.00
N134   N     0.68322   0.18068   0.26217   0.00000  Uiso   1.00
Cl135  Cl    0.81232   0.06286   0.12386   0.00000  Uiso   1.00
Cl136  Cl    0.85434   0.27047   0.37615   0.00000  Uiso   1.00
Cl137  Cl    0.84182   0.27099   0.12684   0.00000  Uiso   1.00
Cl138  Cl    0.82485   0.06235   0.37316   0.00000  Uiso   1.00
Cl139  Cl    0.92617   0.29959   0.04976   0.00000  Uiso   1.00
Cl140  Cl    0.74050   0.03374   0.45024   0.00000  Uiso   1.00
N141   N     0.91589   0.29260   0.45309   0.00000  Uiso   1.00
O142   O     0.90443   0.00761   0.45958   0.00000  Uiso   1.00
O143   O     0.96150   0.28048   0.42813   0.00000  Uiso   1.00
N144   N     0.75078   0.04073   0.04691   0.00000  Uiso   1.00
O145   O     0.76225   0.32572   0.04042   0.00000  Uiso   1.00
O146   O     0.70516   0.05285   0.07187   0.00000  Uiso   1.00
Cl147  Cl    0.91648   0.00381   0.20707   0.00000  Uiso   1.00
Cl148  Cl    0.75019   0.32952   0.29293   0.00000  Uiso   1.00
Cl149  Cl    0.68067   0.11061   0.19813   0.00000  Uiso   1.00
Cl150  Cl    0.98599   0.22273   0.30187   0.00000  Uiso   1.00
O151   O     0.12975   0.57952   0.25299   0.00000  Uiso   1.00
O152   O     0.20358   0.42048   0.24702   0.00000  Uiso   1.00
O153   O     0.22613   0.57054   0.24519   0.00000  Uiso   1.00
O154   O     0.10720   0.42946   0.25482   0.00000  Uiso   1.00
C155   C     0.18143   0.59800   0.24908   0.00000  Uiso   1.00
C156   C     0.15191   0.40200   0.25092   0.00000  Uiso   1.00
O157   O     0.11847   0.50450   0.31998   0.00000  Uiso   1.00
O158   O     0.21486   0.49550   0.18003   0.00000  Uiso   1.00
O159   O     0.21485   0.49552   0.31218   0.00000  Uiso   1.00
O160   O     0.11848   0.50448   0.18783   0.00000  Uiso   1.00
C161   C     0.16727   0.50008   0.33622   0.00000  Uiso   1.00
C162   C     0.16606   0.49992   0.16378   0.00000  Uiso   1.00
Zn163  Zn    0.10231   0.50600   0.25521   0.00000  Uiso   1.00
Zn164  Zn    0.23102   0.49400   0.24479   0.00000  Uiso   1.00
C165   C     0.15072   0.45414   0.09335   0.00000  Uiso   1.00
C166   C     0.18261   0.54586   0.40665   0.00000  Uiso   1.00
C167   C     0.16463   0.50004   0.11619   0.00000  Uiso   1.00
C168   C     0.16870   0.49996   0.38381   0.00000  Uiso   1.00
C169   C     0.17759   0.54610   0.09428   0.00000  Uiso   1.00
C170   C     0.15574   0.45390   0.40572   0.00000  Uiso   1.00
C171   C     0.18565   0.54505   0.04729   0.00000  Uiso   1.00
C172   C     0.14769   0.45495   0.45271   0.00000  Uiso   1.00
C173   C     0.16591   0.50008   0.02352   0.00000  Uiso   1.00
C174   C     0.16743   0.49992   0.47648   0.00000  Uiso   1.00
C175   C     0.14482   0.45522   0.04693   0.00000  Uiso   1.00
C176   C     0.18851   0.54478   0.45307   0.00000  Uiso   1.00
C177   C     0.21406   0.58632   0.02348   0.00000  Uiso   1.00
C178   C     0.11928   0.41368   0.47652   0.00000  Uiso   1.00
C179   C     0.21494   0.58650   0.47659   0.00000  Uiso   1.00
C180   C     0.11839   0.41350   0.02341   0.00000  Uiso   1.00
C181   C     0.18813   0.65138   0.24249   0.00000  Uiso   1.00
C182   C     0.14520   0.34862   0.25751   0.00000  Uiso   1.00
N183   N     0.31678   0.48598   0.23783   0.00000  Uiso   1.00
N184   N     0.01656   0.51402   0.26217   0.00000  Uiso   1.00
Cl185  Cl    0.14566   0.39619   0.12386   0.00000  Uiso   1.00
Cl186  Cl    0.18767   0.60381   0.37615   0.00000  Uiso   1.00
Cl187  Cl    0.17515   0.60432   0.12684   0.00000  Uiso   1.00
Cl188  Cl    0.15818   0.39568   0.37316   0.00000  Uiso   1.00
Cl189  Cl    0.25950   0.63292   0.04976   0.00000  Uiso   1.00
Cl190  Cl    0.07384   0.36708   0.45024   0.00000  Uiso   1.00
N191   N     0.24923   0.62593   0.45309   0.00000  Uiso   1.00
O192   O     0.23776   0.34094   0.45958   0.00000  Uiso   1.00
O193   O     0.29484   0.61381   0.42813   0.00000  Uiso   1.00
N194   N     0.08411   0.37406   0.04691   0.00000  Uiso   1.00
O195   O     0.09558   0.65906   0.04042   0.00000  Uiso   1.00
O196   O     0.03850   0.38619   0.07187   0.00000  Uiso   1.00
Cl197  Cl    0.24981   0.33714   0.20707   0.00000  Uiso   1.00
Cl198  Cl    0.08352   0.66286   0.29293   0.00000  Uiso   1.00
Cl199  Cl    0.01401   0.44394   0.19813   0.00000  Uiso   1.00
Cl200  Cl    0.31933   0.55606   0.30187   0.00000  Uiso   1.00
O201   O     0.46308   0.57952   0.25299   0.00000  Uiso   1.00
O202   O     0.53692   0.42048   0.24702   0.00000  Uiso   1.00
O203   O     0.55946   0.57054   0.24519   0.00000  Uiso   1.00
O204   O     0.44054   0.42946   0.25482   0.00000  Uiso   1.00
C205   C     0.51476   0.59800   0.24908   0.00000  Uiso   1.00
C206   C     0.48524   0.40200   0.25092   0.00000  Uiso   1.00
O207   O     0.45181   0.50450   0.31998   0.00000  Uiso   1.00
O208   O     0.54819   0.49550   0.18003   0.00000  Uiso   1.00
O209   O     0.54819   0.49552   0.31218   0.00000  Uiso   1.00
O210   O     0.45181   0.50448   0.18783   0.00000  Uiso   1.00
C211   C     0.50060   0.50008   0.33622   0.00000  Uiso   1.00
C212   C     0.49940   0.49992   0.16378   0.00000  Uiso   1.00
Zn213  Zn    0.43565   0.50600   0.25521   0.00000  Uiso   1.00
Zn214  Zn    0.56435   0.49400   0.24479   0.00000  Uiso   1.00
C215   C     0.48406   0.45414   0.09335   0.00000  Uiso   1.00
C216   C     0.51594   0.54586   0.40665   0.00000  Uiso   1.00
C217   C     0.49796   0.50004   0.11619   0.00000  Uiso   1.00
C218   C     0.50204   0.49996   0.38381   0.00000  Uiso   1.00
C219   C     0.51092   0.54610   0.09428   0.00000  Uiso   1.00
C220   C     0.48908   0.45390   0.40572   0.00000  Uiso   1.00
C221   C     0.51898   0.54505   0.04729   0.00000  Uiso   1.00
C222   C     0.48102   0.45495   0.45271   0.00000  Uiso   1.00
C223   C     0.49924   0.50008   0.02352   0.00000  Uiso   1.00
C224   C     0.50076   0.49992   0.47648   0.00000  Uiso   1.00
C225   C     0.47815   0.45522   0.04693   0.00000  Uiso   1.00
C226   C     0.52185   0.54478   0.45307   0.00000  Uiso   1.00
C227   C     0.54739   0.58632   0.02348   0.00000  Uiso   1.00
C228   C     0.45261   0.41368   0.47652   0.00000  Uiso   1.00
C229   C     0.54828   0.58650   0.47659   0.00000  Uiso   1.00
C230   C     0.45173   0.41350   0.02341   0.00000  Uiso   1.00
C231   C     0.52146   0.65138   0.24249   0.00000  Uiso   1.00
C232   C     0.47854   0.34862   0.25751   0.00000  Uiso   1.00
N233   N     0.65011   0.48598   0.23783   0.00000  Uiso   1.00
N234   N     0.34989   0.51402   0.26217   0.00000  Uiso   1.00
Cl235  Cl    0.47899   0.39619   0.12386   0.00000  Uiso   1.00
Cl236  Cl    0.52101   0.60381   0.37615   0.00000  Uiso   1.00
Cl237  Cl    0.50849   0.60432   0.12684   0.00000  Uiso   1.00
Cl238  Cl    0.49152   0.39568   0.37316   0.00000  Uiso   1.00
Cl239  Cl    0.59284   0.63292   0.04976   0.00000  Uiso   1.00
Cl240  Cl    0.40717   0.36708   0.45024   0.00000  Uiso   1.00
N241   N     0.58256   0.62593   0.45309   0.00000  Uiso   1.00
O242   O     0.57109   0.34094   0.45958   0.00000  Uiso   1.00
O243   O     0.62817   0.61381   0.42813   0.00000  Uiso   1.00
N244   N     0.41744   0.37406   0.04691   0.00000  Uiso   1.00
O245   O     0.42891   0.65906   0.04042   0.00000  Uiso   1.00
O246   O     0.37183   0.38619   0.07187   0.00000  Uiso   1.00
Cl247  Cl    0.58314   0.33714   0.20707   0.00000  Uiso   1.00
Cl248  Cl    0.41686   0.66286   0.29293   0.00000  Uiso   1.00
Cl249  Cl    0.34734   0.44394   0.19813   0.00000  Uiso   1.00
Cl250  Cl    0.65266   0.55606   0.30187   0.00000  Uiso   1.00
O251   O     0.79642   0.57952   0.25299   0.00000  Uiso   1.00
O252   O     0.87025   0.42048   0.24702   0.00000  Uiso   1.00
O253   O     0.89280   0.57054   0.24519   0.00000  Uiso   1.00
O254   O     0.77387   0.42946   0.25482   0.00000  Uiso   1.00
C255   C     0.84809   0.59800   0.24908   0.00000  Uiso   1.00
C256   C     0.81857   0.40200   0.25092   0.00000  Uiso   1.00
O257   O     0.78514   0.50450   0.31998   0.00000  Uiso   1.00
O258   O     0.88153   0.49550   0.18003   0.00000  Uiso   1.00
O259   O     0.88152   0.49552   0.31218   0.00000  Uiso   1.00
O260   O     0.78515   0.50448   0.18783   0.00000  Uiso   1.00
C261   C     0.83394   0.50008   0.33622   0.00000  Uiso   1.00
C262   C     0.83273   0.49992   0.16378   0.00000  Uiso   1.00
Zn263  Zn    0.76898   0.50600   0.25521   0.00000  Uiso   1.00
Zn264  Zn    0.89769   0.49400   0.24479   0.00000  Uiso   1.00
C265   C     0.81739   0.45414   0.09335   0.00000  Uiso   1.00
C266   C     0.84928   0.54586   0.40665   0.00000  Uiso   1.00
C267   C     0.83130   0.50004   0.11619   0.00000  Uiso   1.00
C268   C     0.83537   0.49996   0.38381   0.00000  Uiso   1.00
C269   C     0.84426   0.54610   0.09428   0.00000  Uiso   1.00
C270   C     0.82241   0.45390   0.40572   0.00000  Uiso   1.00
C271   C     0.85232   0.54505   0.04729   0.00000  Uiso   1.00
C272   C     0.81436   0.45495   0.45271   0.00000  Uiso   1.00
C273   C     0.83258   0.50008   0.02352   0.00000  Uiso   1.00
C274   C     0.83409   0.49992   0.47648   0.00000  Uiso   1.00
C275   C     0.81149   0.45522   0.04693   0.00000  Uiso   1.00
C276   C     0.85518   0.54478   0.45307   0.00000  Uiso   1.00
C277   C     0.88072   0.58632   0.02348   0.00000  Uiso   1.00
C278   C     0.78595   0.41368   0.47652   0.00000  Uiso   1.00
C279   C     0.88161   0.58650   0.47659   0.00000  Uiso   1.00
C280   C     0.78506   0.41350   0.02341   0.00000  Uiso   1.00
C281   C     0.85480   0.65138   0.24249   0.00000  Uiso   1.00
C282   C     0.81187   0.34862   0.25751   0.00000  Uiso   1.00
N283   N     0.98344   0.48598   0.23783   0.00000  Uiso   1.00
N284   N     0.68322   0.51402   0.26217   0.00000  Uiso   1.00
Cl285  Cl    0.81232   0.39619   0.12386   0.00000  Uiso   1.00
Cl286  Cl    0.85434   0.60381   0.37615   0.00000  Uiso   1.00
Cl287  Cl    0.84182   0.60432   0.12684   0.00000  Uiso   1.00
Cl288  Cl    0.82485   0.39568   0.37316   0.00000  Uiso   1.00
Cl289  Cl    0.92617   0.63292   0.04976   0.00000  Uiso   1.00
Cl290  Cl    0.74050   0.36708   0.45024   0.00000  Uiso   1.00
N291   N     0.91589   0.62593   0.45309   0.00000  Uiso   1.00
O292   O     0.90443   0.34094   0.45958   0.00000  Uiso   1.00
O293   O     0.96150   0.61381   0.42813   0.00000  Uiso   1.00
N294   N     0.75078   0.37406   0.04691   0.00000  Uiso   1.00
O295   O     0.76225   0.65906   0.04042   0.00000  Uiso   1.00
O296   O     0.70516   0.38619   0.07187   0.00000  Uiso   1.00
Cl297  Cl    0.91648   0.33714   0.20707   0.00000  Uiso   1.00
Cl298  Cl    0.75019   0.66286   0.29293   0.00000  Uiso   1.00
Cl299  Cl    0.68067   0.44394   0.19813   0.00000  Uiso   1.00
Cl300  Cl    0.98599   0.55606   0.30187   0.00000  Uiso   1.00
O301   O     0.12975   0.91286   0.25299   0.00000  Uiso   1.00
O302   O     0.20358   0.75381   0.24702   0.00000  Uiso   1.00
O303   O     0.22613   0.90387   0.24519   0.00000  Uiso   1.00
O304   O     0.10720   0.76279   0.25482   0.00000  Uiso   1.00
C305   C     0.18143   0.93134   0.24908   0.00000  Uiso   1.00
C306   C     0.15191   0.73533   0.25092   0.00000  Uiso   1.00
O307   O     0.11847   0.83784   0.31998   0.00000  Uiso   1.00
O308   O     0.21486   0.82883   0.18003   0.00000  Uiso   1.00
O309   O     0.21485   0.82885   0.31218   0.00000  Uiso   1.00
O310   O     0.11848   0.83781   0.18783   0.00000  Uiso   1.00
C311   C     0.16727   0.83341   0.33622   0.00000  Uiso   1.00
C312   C     0.16606   0.83326   0.16378   0.00000  Uiso   1.00
Zn313  Zn    0.10231   0.83933   0.25521   0.00000  Uiso   1.00
Zn314  Zn    0.23102   0.82734   0.24479   0.00000  Uiso   1.00
C315   C     0.15072   0.78747   0.09335   0.00000  Uiso   1.00
C316   C     0.18261   0.87919   0.40665   0.00000  Uiso   1.00
C317   C     0.16463   0.83337   0.11619   0.00000  Uiso   1.00
C318   C     0.16870   0.83329   0.38381   0.00000  Uiso   1.00
C319   C     0.17759   0.87943   0.09428   0.00000  Uiso   1.00
C320   C     0.15574   0.78723   0.40572   0.00000  Uiso   1.00
C321   C     0.18565   0.87838   0.04729   0.00000  Uiso   1.00
C322   C     0.14769   0.78828   0.45271   0.00000  Uiso   1.00
C323   C     0.16591   0.83341   0.02352   0.00000  Uiso   1.00
C324   C     0.16743   0.83325   0.47648   0.00000  Uiso   1.00
C325   C     0.14482   0.78855   0.04693   0.00000  Uiso   1.00
C326   C     0.18851   0.87811   0.45307   0.00000  Uiso   1.00
C327   C     0.21406   0.91965   0.02348   0.00000  Uiso   1.00
C328   C     0.11928   0.74701   0.47652   0.00000  Uiso   1.00
C329   C     0.21494   0.91984   0.47659   0.00000  Uiso   1.00
C330   C     0.11839   0.74683   0.02341   0.00000  Uiso   1.00
C331   C     0.18813   0.98471   0.24249   0.00000  Uiso   1.00
C332   C     0.14520   0.68196   0.25751   0.00000  Uiso   1.00
N333   N     0.31678   0.81932   0.23783   0.00000  Uiso   1.00
N334   N     0.01656   0.84735   0.26217   0.00000  Uiso   1.00
Cl335  Cl    0.14566   0.72953   0.12386   0.00000  Uiso   1.00
Cl336  Cl    0.18767   0.93714   0.37615   0.00000  Uiso   1.00
Cl337  Cl    0.17515   0.93765   0.12684   0.00000  Uiso   1.00
Cl338  Cl    0.15818   0.72901   0.37316   0.00000  Uiso   1.00
Cl339  Cl    0.25950   0.96625   0.04976   0.00000  Uiso   1.00
Cl340  Cl    0.07384   0.70041   0.45024   0.00000  Uiso   1.00
N341   N     0.24923   0.95927   0.45309   0.00000  Uiso   1.00
O342   O     0.23776   0.67427   0.45958   0.00000  Uiso   1.00
O343   O     0.29484   0.94714   0.42813   0.00000  Uiso   1.00
N344   N     0.08411   0.70740   0.04691   0.00000  Uiso   1.00
O345   O     0.09558   0.99239   0.04042   0.00000  Uiso   1.00
O346   O     0.03850   0.71952   0.07187   0.00000  Uiso   1.00
Cl347  Cl    0.24981   0.67048   0.20707   0.00000  Uiso   1.00
Cl348  Cl    0.08352   0.99619   0.29293   0.00000  Uiso   1.00
Cl349  Cl    0.01401   0.77727   0.19813   0.00000  Uiso   1.00
Cl350  Cl    0.31933   0.88939   0.30187   0.00000  Uiso   1.00
O351   O     0.46308   0.91286   0.25299   0.00000  Uiso   1.00
O352   O     0.53692   0.75381   0.24702   0.00000  Uiso   1.00
O353   O     0.55946   0.90387   0.24519   0.00000  Uiso   1.00
O354   O     0.44054   0.76279   0.25482   0.00000  Uiso   1.00
C355   C     0.51476   0.93134   0.24908   0.00000  Uiso   1.00
C356   C     0.48524   0.73533   0.25092   0.00000  Uiso   1.00
O357   O     0.45181   0.83784   0.31998   0.00000  Uiso   1.00
O358   O     0.54819   0.82883   0.18003   0.00000  Uiso   1.00
O359   O     0.54819   0.82885   0.31218   0.00000  Uiso   1.00
O360   O     0.45181   0.83781   0.18783   0.00000  Uiso   1.00
C361   C     0.50060   0.83341   0.33622   0.00000  Uiso   1.00
C362   C     0.49940   0.83326   0.16378   0.00000  Uiso   1.00
Zn363  Zn    0.43565   0.83933   0.25521   0.00000  Uiso   1.00
Zn364  Zn    0.56435   0.82734   0.24479   0.00000  Uiso   1.00
C365   C     0.48406   0.78747   0.09335   0.00000  Uiso   1.00
C366   C     0.51594   0.87919   0.40665   0.00000  Uiso   1.00
C367   C     0.49796   0.83337   0.11619   0.00000  Uiso   1.00
C368   C     0.50204   0.83329   0.38381   0.00000  Uiso   1.00
C369   C     0.51092   0.87943   0.09428   0.00000  Uiso   1.00
C370   C     0.48908   0.78723   0.40572   0.00000  Uiso   1.00
C371   C     0.51898   0.87838   0.04729   0.00000  Uiso   1.00
C372   C     0.48102   0.78828   0.45271   0.00000  Uiso   1.00
C373   C     0.49924   0.83341   0.02352   0.00000  Uiso   1.00
C374   C     0.50076   0.83325   0.47648   0.00000  Uiso   1.00
C375   C     0.47815   0.78855   0.04693   0.00000  Uiso   1.00
C376   C     0.52185   0.87811   0.45307   0.00000  Uiso   1.00
C377   C     0.54739   0.91965   0.02348   0.00000  Uiso   1.00
C378   C     0.45261   0.74701   0.47652   0.00000  Uiso   1.00
C379   C     0.54828   0.91984   0.47659   0.00000  Uiso   1.00
C380   C     0.45173   0.74683   0.02341   0.00000  Uiso   1.00
C381   C     0.52146   0.98471   0.24249   0.00000  Uiso   1.00
C382   C     0.47854   0.68196   0.25751   0.00000  Uiso   1.00
N383   N     0.65011   0.81932   0.23783   0.00000  Uiso   1.00
N384   N     0.34989   0.84735   0.26217   0.00000  Uiso   1.00
Cl385  Cl    0.47899   0.72953   0.12386   0.00000  Uiso   1.00
Cl386  Cl    0.52101   0.93714   0.37615   0.00000  Uiso   1.00
Cl387  Cl    0.50849   0.93765   0.12684   0.00000  Uiso   1.00
Cl388  Cl    0.49152   0.72901   0.37316   0.00000  Uiso   1.00
Cl389  Cl    0.59284   0.96625   0.04976   0.00000  Uiso   1.00
Cl390  Cl    0.40717   0.70041   0.45024   0.00000  Uiso   1.00
N391   N     0.58256   0.95927   0.45309   0.00000  Uiso   1.00
O392   O     0.57109   0.67427   0.45958   0.00000  Uiso   1.00
O393   O     0.62817   0.94714   0.42813   0.00000  Uiso   1.00
N394   N     0.41744   0.70740   0.04691   0.00000  Uiso   1.00
O395   O     0.42891   0.99239   0.04042   0.00000  Uiso   1.00
O396   O     0.37183   0.71952   0.07187   0.00000  Uiso   1.00
Cl397  Cl    0.58314   0.67048   0.20707   0.00000  Uiso   1.00
Cl398  Cl    0.41686   0.99619   0.29293   0.00000  Uiso   1.00
Cl399  Cl    0.34734   0.77727   0.19813   0.00000  Uiso   1.00
Cl400  Cl    0.65266   0.88939   0.30187   0.00000  Uiso   1.00
O401   O     0.79642   0.91286   0.25299   0.00000  Uiso   1.00
O402   O     0.87025   0.75381   0.24702   0.00000  Uiso   1.00
O403   O     0.89280   0.90387   0.24519   0.00000  Uiso   1.00
O404   O     0.77387   0.76279   0.25482   0.00000  Uiso   1.00
C405   C     0.84809   0.93134   0.24908   0.00000  Uiso   1.00
C406   C     0.81857   0.73533   0.25092   0.00000  Uiso   1.00
O407   O     0.78514   0.83784   0.31998   0.00000  Uiso   1.00
O408   O     0.88153   0.82883   0.18003   0.00000  Uiso   1.00
O409   O     0.88152   0.82885   0.31218   0.00000  Uiso   1.00
O410   O     0.78515   0.83781   0.18783   0.00000  Uiso   1.00
C411   C     0.83394   0.83341   0.33622   0.00000  Uiso   1.00
C412   C     0.83273   0.83326   0.16378   0.00000  Uiso   1.00
Zn413  Zn    0.76898   0.83933   0.25521   0.00000  Uiso   1.00
Zn414  Zn    0.89769   0.82734   0.24479   0.00000  Uiso   1.00
C415   C     0.81739   0.78747   0.09335   0.00000  Uiso   1.00
C416   C     0.84928   0.87919   0.40665   0.00000  Uiso   1.00
C417   C     0.83130   0.83337   0.11619   0.00000  Uiso   1.00
C418   C     0.83537   0.83329   0.38381   0.00000  Uiso   1.00
C419   C     0.84426   0.87943   0.09428   0.00000  Uiso   1.00
C420   C     0.82241   0.78723   0.40572   0.00000  Uiso   1.00
C421   C     0.85232   0.87838   0.04729   0.00000  Uiso   1.00
C422   C     0.81436   0.78828   0.45271   0.00000  Uiso   1.00
C423   C     0.83258   0.83341   0.02352   0.00000  Uiso   1.00
C424   C     0.83409   0.83325   0.47648   0.00000  Uiso   1.00
C425   C     0.81149   0.78855   0.04693   0.00000  Uiso   1.00
C426   C     0.85518   0.87811   0.45307   0.00000  Uiso   1.00
C427   C     0.88072   0.91965   0.02348   0.00000  Uiso   1.00
C428   C     0.78595   0.74701   0.47652   0.00000  Uiso   1.00
C429   C     0.88161   0.91984   0.47659   0.00000  Uiso   1.00
C430   C     0.78506   0.74683   0.02341   0.00000  Uiso   1.00
C431   C     0.85480   0.98471   0.24249   0.00000  Uiso   1.00
C432   C     0.81187   0.68196   0.25751   0.00000  Uiso   1.00
N433   N     0.98344   0.81932   0.23783   0.00000  Uiso   1.00
N434   N     0.68322   0.84735   0.26217   0.00000  Uiso   1.00
Cl435  Cl    0.81232   0.72953   0.12386   0.00000  Uiso   1.00
Cl436  Cl    0.85434   0.93714   0.37615   0.00000  Uiso   1.00
Cl437  Cl    0.84182   0.93765   0.12684   0.00000  Uiso   1.00
Cl438  Cl    0.82485   0.72901   0.37316   0.00000  Uiso   1.00
Cl439  Cl    0.92617   0.96625   0.04976   0.00000  Uiso   1.00
Cl440  Cl    0.74050   0.70041   0.45024   0.00000  Uiso   1.00
N441   N     0.91589   0.95927   0.45309   0.00000  Uiso   1.00
O442   O     0.90443   0.67427   0.45958   0.00000  Uiso   1.00
O443   O     0.96150   0.94714   0.42813   0.00000  Uiso   1.00
N444   N     0.75078   0.70740   0.04691   0.00000  Uiso   1.00
O445   O     0.76225   0.99239   0.04042   0.00000  Uiso   1.00
O446   O     0.70516   0.71952   0.07187   0.00000  Uiso   1.00
Cl447  Cl    0.91648   0.67048   0.20707   0.00000  Uiso   1.00
Cl448  Cl    0.75019   0.99619   0.29293   0.00000  Uiso   1.00
Cl449  Cl    0.68067   0.77727   0.19813   0.00000  Uiso   1.00
Cl450  Cl    0.98599   0.88939   0.30187   0.00000  Uiso   1.00
O451   O     0.12975   0.24619   0.75299   0.00000  Uiso   1.00
O452   O     0.20358   0.08714   0.74702   0.00000  Uiso   1.00
O453   O     0.22613   0.23721   0.74519   0.00000  Uiso   1.00
O454   O     0.10720   0.09613   0.75482   0.00000  Uiso   1.00
C455   C     0.18143   0.26467   0.74908   0.00000  Uiso   1.00
C456   C     0.15191   0.06866   0.75092   0.00000  Uiso   1.00
O457   O     0.11847   0.17117   0.81998   0.00000  Uiso   1.00
O458   O     0.21486   0.16216   0.68003   0.00000  Uiso   1.00
O459   O     0.21485   0.16219   0.81218   0.00000  Uiso   1.00
O460   O     0.11848   0.17115   0.68783   0.00000  Uiso   1.00
C461   C     0.16727   0.16674   0.83622   0.00000  Uiso   1.00
C462   C     0.16606   0.16659   0.66378   0.00000  Uiso   1.00
Zn463  Zn    0.10231   0.17266   0.75521   0.00000  Uiso   1.00
Zn464  Zn    0.23102   0.16067   0.74479   0.00000  Uiso   1.00
C465   C     0.15072   0.12081   0.59335   0.00000  Uiso   1.00
C466   C     0.18261   0.21253   0.90665   0.00000  Uiso   1.00
C467   C     0.16463   0.16671   0.61619   0.00000  Uiso   1.00
C468   C     0.16870   0.16663   0.88381   0.00000  Uiso   1.00
C469   C     0.17759   0.21277   0.59428   0.00000  Uiso   1.00
C470   C     0.15574   0.12057   0.90572   0.00000  Uiso   1.00
C471   C     0.18565   0.21171   0.54729   0.00000  Uiso   1.00
C472   C     0.14769   0.12162   0.95271   0.00000  Uiso   1.00
C473   C     0.16591   0.16675   0.52352   0.00000  Uiso   1.00
C474   C     0.16743   0.16658   0.97648   0.00000  Uiso   1.00
C475   C     0.14482   0.12189   0.54693   0.00000  Uiso   1.00
C476   C     0.18851   0.21144   0.95307   0.00000  Uiso   1.00
C477   C     0.21406   0.25299   0.52348   0.00000  Uiso   1.00
C478   C     0.11928   0.08035   0.97652   0.00000  Uiso   1.00
C479   C     0.21494   0.25317   0.97659   0.00000  Uiso   1.00
C480   C     0.11839   0.08016   0.52341   0.00000  Uiso   1.00
C481   C     0.18813   0.31804   0.74249   0.00000  Uiso   1.00
C482   C     0.14520   0.01529   0.75751   0.00000  Uiso   1.00
N483   N     0.31678   0.15265   0.73783   0.00000  Uiso   1.00
N484   N     0.01656   0.18068   0.76217   0.00000  Uiso   1.00
Cl485  Cl    0.14566   0.06286   0.62386   0.00000  Uiso   1.00
Cl486  Cl    0.18767   0.27047   0.87615   0.00000  Uiso   1.00
Cl487  Cl    0.17515   0.27099   0.62684   0.00000  Uiso   1.00
Cl488  Cl    0.15818   0.06235   0.87316   0.00000  Uiso   1.00
Cl489  Cl    0.25950   0.29959   0.54976   0.00000  Uiso   1.00
Cl490  Cl    0.07384   0.03374   0.95024   0.00000  Uiso   1.00
N491   N     0.24923   0.29260   0.95309   0.00000  Uiso   1.00
O492   O     0.23776   0.00761   0.95958   0.00000  Uiso   1.00
O493   O     0.29484   0.28048   0.92813   0.00000  Uiso   1.00
N494   N     0.08411   0.04073   0.54691   0.00000  Uiso   1.00
O495   O     0.09558   0.32572   0.54042   0.00000  Uiso   1.00
O496   O     0.03850   0.05285   0.57187   0.00000  Uiso   1.00
Cl497  Cl    0.24981   0.00381   0.70707   0.00000  Uiso   1.00
Cl498  Cl    0.08352   0.32952   0.79293   0.00000  Uiso   1.00
Cl499  Cl    0.01401   0.11061   0.69813   0.00000  Uiso   1.00
Cl500  Cl    0.31933   0.22273   0.80187   0.00000  Uiso   1.00
O501   O     0.46308   0.24619   0.75299   0.00000  Uiso   1.00
O502   O     0.53692   0.08714   0.74702   0.00000  Uiso   1.00
O503   O     0.55946   0.23721   0.74519   0.00000  Uiso   1.00
O504   O     0.44054   0.09613   0.75482   0.00000  Uiso   1.00
C505   C     0.51476   0.26467   0.74908   0.00000  Uiso   1.00
C506   C     0.48524   0.06866   0.75092   0.00000  Uiso   1.00
O507   O     0.45181   0.17117   0.81998   0.00000  Uiso   1.00
O508   O     0.54819   0.16216   0.68003   0.00000  Uiso   1.00
O509   O     0.54819   0.16219   0.81218   0.00000  Uiso   1.00
O510   O     0.45181   0.17115   0.68783   0.00000  Uiso   1.00
C511   C     0.50060   0.16674   0.83622   0.00000  Uiso   1.00
C512   C     0.49940   0.16659   0.66378   0.00000  Uiso   1.00
Zn513  Zn    0.43565   0.17266   0.75521   0.00000  Uiso   1.00
Zn514  Zn    0.56435   0.16067   0.74479   0.00000  Uiso   1.00
C515   C     0.48406   0.12081   0.59335   0.00000  Uiso   1.00
C516   C     0.51594   0.21253   0.90665   0.00000  Uiso   1.00
C517   C     0.49796   0.16671   0.61619   0.00000  Uiso   1.00
C518   C     0.50204   0.16663   0.88381   0.00000  Uiso   1.00
C519   C     0.51092   0.21277   0.59428   0.00000  Uiso   1.00
C520   C     0.48908   0.12057   0.90572   0.00000  Uiso   1.00
C521   C     0.51898   0.21171   0.54729   0.00000  Uiso   1.00
C522   C     0.48102   0.12162   0.95271   0.00000  Uiso   1.00
C523   C     0.49924   0.16675   0.52352   0.00000  Uiso   1.00
C524   C     0.50076   0.16658   0.97648   0.00000  Uiso   1.00
C525   C     0.47815   0.12189   0.54693   0.00000  Uiso   1.00
C526   C     0.52185   0.21144   0.95307   0.00000  Uiso   1.00
C527   C     0.54739   0.25299   0.52348   0.00000  Uiso   1.00
C528   C     0.45261   0.08035   0.97652   0.00000  Uiso   1.00
C529   C     0.54828   0.25317   0.97659   0.00000  Uiso   1.00
C530   C     0.45173   0.08016   0.52341   0.00000  Uiso   1.00
C531   C     0.52146   0.31804   0.74249   0.00000  Uiso   1.00
C532   C     0.47854   0.01529   0.75751   0.00000  Uiso   1.00
N533   N     0.65011   0.15265   0.73783   0.00000  Uiso   1.00
N534   N     0.34989   0.18068   0.76217   0.00000  Uiso   1.00
Cl535  Cl    0.47899   0.06286   0.62386   0.00000  Uiso   1.00
Cl536  Cl    0.52101   0.27047   0.87615   0.00000  Uiso   1.00
Cl537  Cl    0.50849   0.27099   0.62684   0.00000  Uiso   1.00
Cl538  Cl    0.49152   0.06235   0.87316   0.00000  Uiso   1.00
Cl539  Cl    0.59284   0.29959   0.54976   0.00000  Uiso   1.00
Cl540  Cl    0.40717   0.03374   0.95024   0.00000  Uiso   1.00
N541   N     0.58256   0.29260   0.95309   0.00000  Uiso   1.00
O542   O     0.57109   0.00761   0.95958   0.00000  Uiso   1.00
O543   O     0.62817   0.28048   0.92813   0.00000  Uiso   1.00
N544   N     0.41744   0.04073   0.54691   0.00000  Uiso   1.00
O545   O     0.42891   0.32572   0.54042   0.00000  Uiso   1.00
O546   O     0.37183   0.05285   0.57187   0.00000  Uiso   1.00
Cl547  Cl    0.58314   0.00381   0.70707   0.00000  Uiso   1.00
Cl548  Cl    0.41686   0.32952   0.79293   0.00000  Uiso   1.00
Cl549  Cl    0.34734   0.11061   0.69813   0.00000  Uiso   1.00
Cl550  Cl    0.65266   0.22273   0.80187   0.00000  Uiso   1.00
O551   O     0.79642   0.24619   0.75299   0.00000  Uiso   1.00
O552   O     0.87025   0.08714   0.74702   0.00000  Uiso   1.00
O553   O     0.89280   0.23721   0.74519   0.00000  Uiso   1.00
O554   O     0.77387   0.09613   0.75482   0.00000  Uiso   1.00
C555   C     0.84809   0.26467   0.74908   0.00000  Uiso   1.00
C556   C     0.81857   0.06866   0.75092   0.00000  Uiso   1.00
O557   O     0.78514   0.17117   0.81998   0.00000  Uiso   1.00
O558   O     0.88153   0.16216   0.68003   0.00000  Uiso   1.00
O559   O     0.88152   0.16219   0.81218   0.00000  Uiso   1.00
O560   O     0.78515   0.17115   0.68783   0.00000  Uiso   1.00
C561   C     0.83394   0.16674   0.83622   0.00000  Uiso   1.00
C562   C     0.83273   0.16659   0.66378   0.00000  Uiso   1.00
Zn563  Zn    0.76898   0.17266   0.75521   0.00000  Uiso   1.00
Zn564  Zn    0.89769   0.16067   0.74479   0.00000  Uiso   1.00
C565   C     0.81739   0.12081   0.59335   0.00000  Uiso   1.00
C566   C     0.84928   0.21253   0.90665   0.00000  Uiso   1.00
C567   C     0.83130   0.16671   0.61619   0.00000  Uiso   1.00
C568   C     0.83537   0.16663   0.88381   0.00000  Uiso   1.00
C569   C     0.84426   0.21277   0.59428   0.00000  Uiso   1.00
C570   C     0.82241   0.12057   0.90572   0.00000  Uiso   1.00
C571   C     0.85232   0.21171   0.54729   0.00000  Uiso   1.00
C572   C     0.81436   0.12162   0.95271   0.00000  Uiso   1.00
C573   C     0.83258   0.16675   0.52352   0.00000  Uiso   1.00
C574   C     0.83409   0.16658   0.97648   0.00000  Uiso   1.00
C575   C     0.81149   0.12189   0.54693   0.00000  Uiso   1.00
C576   C     0.85518   0.21144   0.95307   0.00000  Uiso   1.00
C577   C     0.88072   0.25299   0.52348   0.00000  Uiso   1.00
C578   C     0.78595   0.08035   0.97652   0.00000  Uiso   1.00
C579   C     0.88161   0.25317   0.97659   0.00000  Uiso   1.00
C580   C     0.78506   0.08016   0.52341   0.00000  Uiso   1.00
C581   C     0.85480   0.31804   0.74249   0.00000  Uiso   1.00
C582   C     0.81187   0.01529   0.75751   0.00000  Uiso   1.00
N583   N     0.98344   0.15265   0.73783   0.00000  Uiso   1.00
N584   N     0.68322   0.18068   0.76217   0.00000  Uiso   1.00
Cl585  Cl    0.81232   0.06286   0.62386   0.00000  Uiso   1.00
Cl586  Cl    0.85434   0.27047   0.87615   0.00000  Uiso   1.00
Cl587  Cl    0.84182   0.27099   0.62684   0.00000  Uiso   1.00
Cl588  Cl    0.82485   0.06235   0.87316   0.00000  Uiso   1.00
Cl589  Cl    0.92617   0.29959   0.54976   0.00000  Uiso   1.00
Cl590  Cl    0.74050   0.03374   0.95024   0.00000  Uiso   1.00
N591   N     0.91589   0.29260   0.95309   0.00000  Uiso   1.00
O592   O     0.90443   0.00761   0.95958   0.00000  Uiso   1.00
O593   O     0.96150   0.28048   0.92813   0.00000  Uiso   1.00
N594   N     0.75078   0.04073   0.54691   0.00000  Uiso   1.00
O595   O     0.76225   0.32572   0.54042   0.00000  Uiso   1.00
O596   O     0.70516   0.05285   0.57187   0.00000  Uiso   1.00
Cl597  Cl    0.91648   0.00381   0.70707   0.00000  Uiso   1.00
Cl598  Cl    0.75019   0.32952   0.79293   0.00000  Uiso   1.00
Cl599  Cl    0.68067   0.11061   0.69813   0.00000  Uiso   1.00
Cl600  Cl    0.98599   0.22273   0.80187   0.00000  Uiso   1.00
O601   O     0.12975   0.57952   0.75299   0.00000  Uiso   1.00
O602   O     0.20358   0.42048   0.74702   0.00000  Uiso   1.00
O603   O     0.22613   0.57054   0.74519   0.00000  Uiso   1.00
O604   O     0.10720   0.42946   0.75482   0.00000  Uiso   1.00
C605   C     0.18143   0.59800   0.74908   0.00000  Uiso   1.00
C606   C     0.15191   0.40200   0.75092   0.00000  Uiso   1.00
O607   O     0.11847   0.50450   0.81998   0.00000  Uiso   1.00
O608   O     0.21486   0.49550   0.68003   0.00000  Uiso   1.00
O609   O     0.21485   0.49552   0.81218   0.00000  Uiso   1.00
O610   O     0.11848   0.50448   0.68783   0.00000  Uiso   1.00
C611   C     0.16727   0.50008   0.83622   0.00000  Uiso   1.00
C612   C     0.16606   0.49992   0.66378   0.00000  Uiso   1.00
Zn613  Zn    0.10231   0.50600   0.75521   0.00000  Uiso   1.00
Zn614  Zn    0.23102   0.49400   0.74479   0.00000  Uiso   1.00
C615   C     0.15072   0.45414   0.59335   0.00000  Uiso   1.00
C616   C     0.18261   0.54586   0.90665   0.00000  Uiso   1.00
C617   C     0.16463   0.50004   0.61619   0.00000  Uiso   1.00
C618   C     0.16870   0.49996   0.88381   0.00000  Uiso   1.00
C619   C     0.17759   0.54610   0.59428   0.00000  Uiso   1.00
C620   C     0.15574   0.45390   0.90572   0.00000  Uiso   1.00
C621   C     0.18565   0.54505   0.54729   0.00000  Uiso   1.00
C622   C     0.14769   0.45495   0.95271   0.00000  Uiso   1.00
C623   C     0.16591   0.50008   0.52352   0.00000  Uiso   1.00
C624   C     0.16743   0.49992   0.97648   0.00000  Uiso   1.00
C625   C     0.14482   0.45522   0.54693   0.00000  Uiso   1.00
C626   C     0.18851   0.54478   0.95307   0.00000  Uiso   1.00
C627   C     0.21406   0.58632   0.52348   0.00000  Uiso   1.00
C628   C     0.11928   0.41368   0.97652   0.00000  Uiso   1.00
C629   C     0.21494   0.58650   0.97659   0.00000  Uiso   1.00
C630   C     0.11839   0.41350   0.52341   0.00000  Uiso   1.00
C631   C     0.18813   0.65138   0.74249   0.00000  Uiso   1.00
C632   C     0.14520   0.34862   0.75751   0.00000  Uiso   1.00
N633   N     0.31678   0.48598   0.73783   0.00000  Uiso   1.00
N634   N     0.01656   0.51402   0.76217   0.00000  Uiso   1.00
Cl635  Cl    0.14566   0.39619   0.62386   0.00000  Uiso   1.00
Cl636  Cl    0.18767   0.60381   0.87615   0.00000  Uiso   1.00
Cl637  Cl    0.17515   0.60432   0.62684   0.00000  Uiso   1.00
Cl638  Cl    0.15818   0.39568   0.87316   0.00000  Uiso   1.00
Cl639  Cl    0.25950   0.63292   0.54976   0.00000  Uiso   1.00
Cl640  Cl    0.07384   0.36708   0.95024   0.00000  Uiso   1.00
N641   N     0.24923   0.62593   0.95309   0.00000  Uiso   1.00
O642   O     0.23776   0.34094   0.95958   0.00000  Uiso   1.00
O643   O     0.29484   0.61381   0.92813   0.00000  Uiso   1.00
N644   N     0.08411   0.37406   0.54691   0.00000  Uiso   1.00
O645   O     0.09558   0.65906   0.54042   0.00000  Uiso   1.00
O646   O     0.03850   0.38619   0.57187   0.00000  Uiso   1.00
Cl647  Cl    0.24981   0.33714   0.70707   0.00000  Uiso   1.00
Cl648  Cl    0.08352   0.66286   0.79293   0.00000  Uiso   1.00
Cl649  Cl    0.01401   0.44394   0.69813   0.00000  Uiso   1.00
Cl650  Cl    0.31933   0.55606   0.80187   0.00000  Uiso   1.00
O651   O     0.46308   0.57952   0.75299   0.00000  Uiso   1.00
O652   O     0.53692   0.42048   0.74702   0.00000  Uiso   1.00
O653   O     0.55946   0.57054   0.74519   0.00000  Uiso   1.00
O654   O     0.44054   0.42946   0.75482   0.00000  Uiso   1.00
C655   C     0.51476   0.59800   0.74908   0.00000  Uiso   1.00
C656   C     0.48524   0.40200   0.75092   0.00000  Uiso   1.00
O657   O     0.45181   0.50450   0.81998   0.00000  Uiso   1.00
O658   O     0.54819   0.49550   0.68003   0.00000  Uiso   1.00
O659   O     0.54819   0.49552   0.81218   0.00000  Uiso   1.00
O660   O     0.45181   0.50448   0.68783   0.00000  Uiso   1.00
C661   C     0.50060   0.50008   0.83622   0.00000  Uiso   1.00
C662   C     0.49940   0.49992   0.66378   0.00000  Uiso   1.00
Zn663  Zn    0.43565   0.50600   0.75521   0.00000  Uiso   1.00
Zn664  Zn    0.56435   0.49400   0.74479   0.00000  Uiso   1.00
C665   C     0.48406   0.45414   0.59335   0.00000  Uiso   1.00
C666   C     0.51594   0.54586   0.90665   0.00000  Uiso   1.00
C667   C     0.49796   0.50004   0.61619   0.00000  Uiso   1.00
C668   C     0.50204   0.49996   0.88381   0.00000  Uiso   1.00
C669   C     0.51092   0.54610   0.59428   0.00000  Uiso   1.00
C670   C     0.48908   0.45390   0.90572   0.00000  Uiso   1.00
C671   C     0.51898   0.54505   0.54729   0.00000  Uiso   1.00
C672   C     0.48102   0.45495   0.95271   0.00000  Uiso   1.00
C673   C     0.49924   0.50008   0.52352   0.00000  Uiso   1.00
C674   C     0.50076   0.49992   0.97648   0.00000  Uiso   1.00
C675   C     0.47815   0.45522   0.54693   0.00000  Uiso   1.00
C676   C     0.52185   0.54478   0.95307   0.00000  Uiso   1.00
C677   C     0.54739   0.58632   0.52348   0.00000  Uiso   1.00
C678   C     0.45261   0.41368   0.97652   0.00000  Uiso   1.00
C679   C     0.54828   0.58650   0.97659   0.00000  Uiso   1.00
C680   C     0.45173   0.41350   0.52341   0.00000  Uiso   1.00
C681   C     0.52146   0.65138   0.74249   0.00000  Uiso   1.00
C682   C     0.47854   0.34862   0.75751   0.00000  Uiso   1.00
N683   N     0.65011   0.48598   0.73783   0.00000  Uiso   1.00
N684   N     0.34989   0.51402   0.76217   0.00000  Uiso   1.00
Cl685  Cl    0.47899   0.39619   0.62386   0.00000  Uiso   1.00
Cl686  Cl    0.52101   0.60381   0.87615   0.00000  Uiso   1.00
Cl687  Cl    0.50849   0.60432   0.62684   0.00000  Uiso   1.00
Cl688  Cl    0.49152   0.39568   0.87316   0.00000  Uiso   1.00
Cl689  Cl    0.59284   0.63292   0.54976   0.00000  Uiso   1.00
Cl690  Cl    0.40717   0.36708   0.95024   0.00000  Uiso   1.00
N691   N     0.58256   0.62593   0.95309   0.00000  Uiso   1.00
O692   O     0.57109   0.34094   0.95958   0.00000  Uiso   1.00
O693   O     0.62817   0.61381   0.92813   0.00000  Uiso   1.00
N694   N     0.41744   0.37406   0.54691   0.00000  Uiso   1.00
O695   O     0.42891   0.65906   0.54042   0.00000  Uiso   1.00
O696   O     0.37183   0.38619   0.57187   0.00000  Uiso   1.00
Cl697  Cl    0.58314   0.33714   0.70707   0.00000  Uiso   1.00
Cl698  Cl    0.41686   0.66286   0.79293   0.00000  Uiso   1.00
Cl699  Cl    0.34734   0.44394   0.69813   0.00000  Uiso   1.00
Cl700  Cl    0.65266   0.55606   0.80187   0.00000  Uiso   1.00
O701   O     0.79642   0.57952   0.75299   0.00000  Uiso   1.00
O702   O     0.87025   0.42048   0.74702   0.00000  Uiso   1.00
O703   O     0.89280   0.57054   0.74519   0.00000  Uiso   1.00
O704   O     0.77387   0.42946   0.75482   0.00000  Uiso   1.00
C705   C     0.84809   0.59800   0.74908   0.00000  Uiso   1.00
C706   C     0.81857   0.40200   0.75092   0.00000  Uiso   1.00
O707   O     0.78514   0.50450   0.81998   0.00000  Uiso   1.00
O708   O     0.88153   0.49550   0.68003   0.00000  Uiso   1.00
O709   O     0.88152   0.49552   0.81218   0.00000  Uiso   1.00
O710   O     0.78515   0.50448   0.68783   0.00000  Uiso   1.00
C711   C     0.83394   0.50008   0.83622   0.00000  Uiso   1.00
C712   C     0.83273   0.49992   0.66378   0.00000  Uiso   1.00
Zn713  Zn    0.76898   0.50600   0.75521   0.00000  Uiso   1.00
Zn714  Zn    0.89769   0.49400   0.74479   0.00000  Uiso   1.00
C715   C     0.81739   0.45414   0.59335   0.00000  Uiso   1.00
C716   C     0.84928   0.54586   0.90665   0.00000  Uiso   1.00
C717   C     0.83130   0.50004   0.61619   0.00000  Uiso   1.00
C718   C     0.83537   0.49996   0.88381   0.00000  Uiso   1.00
C719   C     0.84426   0.54610   0.59428   0.00000  Uiso   1.00
C720   C     0.82241   0.45390   0.90572   0.00000  Uiso   1.00
C721   C     0.85232   0.54505   0.54729   0.00000  Uiso   1.00
C722   C     0.81436   0.45495   0.95271   0.00000  Uiso   1.00
C723   C     0.83258   0.50008   0.52352   0.00000  Uiso   1.00
C724   C     0.83409   0.49992   0.97648   0.00000  Uiso   1.00
C725   C     0.81149   0.45522   0.54693   0.00000  Uiso   1.00
C726   C     0.85518   0.54478   0.95307   0.00000  Uiso   1.00
C727   C     0.88072   0.58632   0.52348   0.00000  Uiso   1.00
C728   C     0.78595   0.41368   0.97652   0.00000  Uiso   1.00
C729   C     0.88161   0.58650   0.97659   0.00000  Uiso   1.00
C730   C     0.78506   0.41350   0.52341   0.00000  Uiso   1.00
C731   C     0.85480   0.65138   0.74249   0.00000  Uiso   1.00
C732   C     0.81187   0.34862   0.75751   0.00000  Uiso   1.00
N733   N     0.98344   0.48598   0.73783   0.00000  Uiso   1.00
N734   N     0.68322   0.51402   0.76217   0.00000  Uiso   1.00
Cl735  Cl    0.81232   0.39619   0.62386   0.00000  Uiso   1.00
Cl736  Cl    0.85434   0.60381   0.87615   0.00000  Uiso   1.00
Cl737  Cl    0.84182   0.60432   0.62684   0.00000  Uiso   1.00
Cl738  Cl    0.82485   0.39568   0.87316   0.00000  Uiso   1.00
Cl739  Cl    0.92617   0.63292   0.54976   0.00000  Uiso   1.00
Cl740  Cl    0.74050   0.36708   0.95024   0.00000  Uiso   1.00
N741   N     0.91589   0.62593   0.95309   0.00000  Uiso   1.00
O742   O     0.90443   0.34094   0.95958   0.00000  Uiso   1.00
O743   O     0.96150   0.61381   0.92813   0.00000  Uiso   1.00
N744   N     0.75078   0.37406   0.54691   0.00000  Uiso   1.00
O745   O     0.76225   0.65906   0.54042   0.00000  Uiso   1.00
O746   O     0.70516   0.38619   0.57187   0.00000  Uiso   1.00
Cl747  Cl    0.91648   0.33714   0.70707   0.00000  Uiso   1.00
Cl748  Cl    0.75019   0.66286   0.79293   0.00000  Uiso   1.00
Cl749  Cl    0.68067   0.44394   0.69813   0.00000  Uiso   1.00
Cl750  Cl    0.98599   0.55606   0.80187   0.00000  Uiso   1.00
O751   O     0.12975   0.91286   0.75299   0.00000  Uiso   1.00
O752   O     0.20358   0.75381   0.74702   0.00000  Uiso   1.00
O753   O     0.22613   0.90387   0.74519   0.00000  Uiso   1.00
O754   O     0.10720   0.76279   0.75482   0.00000  Uiso   1.00
C755   C     0.18143   0.93134   0.74908   0.00000  Uiso   1.00
C756   C     0.15191   0.73533   0.75092   0.00000  Uiso   1.00
O757   O     0.11847   0.83784   0.81998   0.00000  Uiso   1.00
O758   O     0.21486   0.82883   0.68003   0.00000  Uiso   1.00
O759   O     0.21485   0.82885   0.81218   0.00000  Uiso   1.00
O760   O     0.11848   0.83781   0.68783   0.00000  Uiso   1.00
C761   C     0.16727   0.83341   0.83622   0.00000  Uiso   1.00
C762   C     0.16606   0.83326   0.66378   0.00000  Uiso   1.00
Zn763  Zn    0.10231   0.83933   0.75521   0.00000  Uiso   1.00
Zn764  Zn    0.23102   0.82734   0.74479   0.00000  Uiso   1.00
C765   C     0.15072   0.78747   0.59335   0.00000  Uiso   1.00
C766   C     0.18261   0.87919   0.90665   0.00000  Uiso   1.00
C767   C     0.16463   0.83337   0.61619   0.00000  Uiso   1.00
C768   C     0.16870   0.83329   0.88381   0.00000  Uiso   1.00
C769   C     0.17759   0.87943   0.59428   0.00000  Uiso   1.00
C770   C     0.15574   0.78723   0.90572   0.00000  Uiso   1.00
C771   C     0.18565   0.87838   0.54729   0.00000  Uiso   1.00
C772   C     0.14769   0.78828   0.95271   0.00000  Uiso   1.00
C773   C     0.16591   0.83341   0.52352   0.00000  Uiso   1.00
C774   C     0.16743   0.83325   0.97648   0.00000  Uiso   1.00
C775   C     0.14482   0.78855   0.54693   0.00000  Uiso   1.00
C776   C     0.18851   0.87811   0.95307   0.00000  Uiso   1.00
C777   C     0.21406   0.91965   0.52348   0.00000  Uiso   1.00
C778   C     0.11928   0.74701   0.97652   0.00000  Uiso   1.00
C779   C     0.21494   0.91984   0.97659   0.00000  Uiso   1.00
C780   C     0.11839   0.74683   0.52341   0.00000  Uiso   1.00
C781   C     0.18813   0.98471   0.74249   0.00000  Uiso   1.00
C782   C     0.14520   0.68196   0.75751   0.00000  Uiso   1.00
N783   N     0.31678   0.81932   0.73783   0.00000  Uiso   1.00
N784   N     0.01656   0.84735   0.76217   0.00000  Uiso   1.00
Cl785  Cl    0.14566   0.72953   0.62386   0.00000  Uiso   1.00
Cl786  Cl    0.18767   0.93714   0.87615   0.00000  Uiso   1.00
Cl787  Cl    0.17515   0.93765   0.62684   0.00000  Uiso   1.00
Cl788  Cl    0.15818   0.72901   0.87316   0.00000  Uiso   1.00
Cl789  Cl    0.25950   0.96625   0.54976   0.00000  Uiso   1.00
Cl790  Cl    0.07384   0.70041   0.95024   0.00000  Uiso   1.00
N791   N     0.24923   0.95927   0.95309   0.00000  Uiso   1.00
O792   O     0.23776   0.67427   0.95958   0.00000  Uiso   1.00
O793   O     0.29484   0.94714   0.92813   0.00000  Uiso   1.00
N794   N     0.08411   0.70740   0.54691   0.00000  Uiso   1.00
O795   O     0.09558   0.99239   0.54042   0.00000  Uiso   1.00
O796   O     0.03850   0.71952   0.57187   0.00000  Uiso   1.00
Cl797  Cl    0.24981   0.67048   0.70707   0.00000  Uiso   1.00
Cl798  Cl    0.08352   0.99619   0.79293   0.00000  Uiso   1.00
Cl799  Cl    0.01401   0.77727   0.69813   0.00000  Uiso   1.00
Cl800  Cl    0.31933   0.88939   0.80187   0.00000  Uiso   1.00
O801   O     0.46308   0.91286   0.75299   0.00000  Uiso   1.00
O802   O     0.53692   0.75381   0.74702   0.00000  Uiso   1.00
O803   O     0.55946   0.90387   0.74519   0.00000  Uiso   1.00
O804   O     0.44054   0.76279   0.75482   0.00000  Uiso   1.00
C805   C     0.51476   0.93134   0.74908   0.00000  Uiso   1.00
C806   C     0.48524   0.73533   0.75092   0.00000  Uiso   1.00
O807   O     0.45181   0.83784   0.81998   0.00000  Uiso   1.00
O808   O     0.54819   0.82883   0.68003   0.00000  Uiso   1.00
O809   O     0.54819   0.82885   0.81218   0.00000  Uiso   1.00
O810   O     0.45181   0.83781   0.68783   0.00000  Uiso   1.00
C811   C     0.50060   0.83341   0.83622   0.00000  Uiso   1.00
C812   C     0.49940   0.83326   0.66378   0.00000  Uiso   1.00
Zn813  Zn    0.43565   0.83933   0.75521   0.00000  Uiso   1.00
Zn814  Zn    0.56435   0.82734   0.74479   0.00000  Uiso   1.00
C815   C     0.48406   0.78747   0.59335   0.00000  Uiso   1.00
C816   C     0.51594   0.87919   0.90665   0.00000  Uiso   1.00
C817   C     0.49796   0.83337   0.61619   0.00000  Uiso   1.00
C818   C     0.50204   0.83329   0.88381   0.00000  Uiso   1.00
C819   C     0.51092   0.87943   0.59428   0.00000  Uiso   1.00
C820   C     0.48908   0.78723   0.90572   0.00000  Uiso   1.00
C821   C     0.51898   0.87838   0.54729   0.00000  Uiso   1.00
C822   C     0.48102   0.78828   0.95271   0.00000  Uiso   1.00
C823   C     0.49924   0.83341   0.52352   0.00000  Uiso   1.00
C824   C     0.50076   0.83325   0.97648   0.00000  Uiso   1.00
C825   C     0.47815   0.78855   0.54693   0.00000  Uiso   1.00
C826   C     0.52185   0.87811   0.95307   0.00000  Uiso   1.00
C827   C     0.54739   0.91965   0.52348   0.00000  Uiso   1.00
C828   C     0.45261   0.74701   0.97652   0.00000  Uiso   1.00
C829   C     0.54828   0.91984   0.97659   0.00000  Uiso   1.00
C830   C     0.45173   0.74683   0.52341   0.00000  Uiso   1.00
C831   C     0.52146   0.98471   0.74249   0.00000  Uiso   1.00
C832   C     0.47854   0.68196   0.75751   0.00000  Uiso   1.00
N833   N     0.65011   0.81932   0.73783   0.00000  Uiso   1.00
N834   N     0.34989   0.84735   0.76217   0.00000  Uiso   1.00
Cl835  Cl    0.47899   0.72953   0.62386   0.00000  Uiso   1.00
Cl836  Cl    0.52101   0.93714   0.87615   0.00000  Uiso   1.00
Cl837  Cl    0.50849   0.93765   0.62684   0.00000  Uiso   1.00
Cl838  Cl    0.49152   0.72901   0.87316   0.00000  Uiso   1.00
Cl839  Cl    0.59284   0.96625   0.54976   0.00000  Uiso   1.00
Cl840  Cl    0.40717   0.70041   0.95024   0.00000  Uiso   1.00
N841   N     0.58256   0.95927   0.95309   0.00000  Uiso   1.00
O842   O     0.57109   0.67427   0.95958   0.00000  Uiso   1.00
O843   O     0.62817   0.94714   0.92813   0.00000  Uiso   1.00
N844   N     0.41744   0.70740   0.54691   0.00000  Uiso   1.00
O845   O     0.42891   0.99239   0.54042   0.00000  Uiso   1.00
O846   O     0.37183   0.71952   0.57187   0.00000  Uiso   1.00
Cl847  Cl    0.58314   0.67048   0.70707   0.00000  Uiso   1.00
Cl848  Cl    0.41686   0.99619   0.79293   0.00000  Uiso   1.00
Cl849  Cl    0.34734   0.77727   0.69813   0.00000  Uiso   1.00
Cl850  Cl    0.65266   0.88939   0.80187   0.00000  Uiso   1.00
O851   O     0.79642   0.91286   0.75299   0.00000  Uiso   1.00
O852   O     0.87025   0.75381   0.74702   0.00000  Uiso   1.00
O853   O     0.89280   0.90387   0.74519   0.00000  Uiso   1.00
O854   O     0.77387   0.76279   0.75482   0.00000  Uiso   1.00
C855   C     0.84809   0.93134   0.74908   0.00000  Uiso   1.00
C856   C     0.81857   0.73533   0.75092   0.00000  Uiso   1.00
O857   O     0.78514   0.83784   0.81998   0.00000  Uiso   1.00
O858   O     0.88153   0.82883   0.68003   0.00000  Uiso   1.00
O859   O     0.88152   0.82885   0.81218   0.00000  Uiso   1.00
O860   O     0.78515   0.83781   0.68783   0.00000  Uiso   1.00
C861   C     0.83394   0.83341   0.83622   0.00000  Uiso   1.00
C862   C     0.83273   0.83326   0.66378   0.00000  Uiso   1.00
Zn863  Zn    0.76898   0.83933   0.75521   0.00000  Uiso   1.00
Zn864  Zn    0.89769   0.82734   0.74479   0.00000  Uiso   1.00
C865   C     0.81739   0.78747   0.59335   0.00000  Uiso   1.00
C866   C     0.84928   0.87919   0.90665   0.00000  Uiso   1.00
C867   C     0.83130   0.83337   0.61619   0.00000  Uiso   1.00
C868   C     0.83537   0.83329   0.88381   0.00000  Uiso   1.00
C869   C     0.84426   0.87943   0.59428   0.00000  Uiso   1.00
C870   C     0.82241   0.78723   0.90572   0.00000  Uiso   1.00
C871   C     0.85232   0.87838   0.54729   0.00000  Uiso   1.00
C872   C     0.81436   0.78828   0.95271   0.00000  Uiso   1.00
C873   C     0.83258   0.83341   0.52352   0.00000  Uiso   1.00
C874   C     0.83409   0.83325   0.97648   0.00000  Uiso   1.00
C875   C     0.81149   0.78855   0.54693   0.00000  Uiso   1.00
C876   C     0.85518   0.87811   0.95307   0.00000  Uiso   1.00
C877   C     0.88072   0.91965   0.52348   0.00000  Uiso   1.00
C878   C     0.78595   0.74701   0.97652   0.00000  Uiso   1.00
C879   C     0.88161   0.91984   0.97659   0.00000  Uiso   1.00
C880   C     0.78506   0.74683   0.52341   0.00000  Uiso   1.00
C881   C     0.85480   0.98471   0.74249   0.00000  Uiso   1.00
C882   C     0.81187   0.68196   0.75751   0.00000  Uiso   1.00
N883   N     0.98344   0.81932   0.73783   0.00000  Uiso   1.00
N884   N     0.68322   0.84735   0.76217   0.00000  Uiso   1.00
Cl885  Cl    0.81232   0.72953   0.62386   0.00000  Uiso   1.00
Cl886  Cl    0.85434   0.93714   0.87615   0.00000  Uiso   1.00
Cl887  Cl    0.84182   0.93765   0.62684   0.00000  Uiso   1.00
Cl888  Cl    0.82485   0.72901   0.87316   0.00000  Uiso   1.00
Cl889  Cl    0.92617   0.96625   0.54976   0.00000  Uiso   1.00
Cl890  Cl    0.74050   0.70041   0.95024   0.00000  Uiso   1.00
N891   N     0.91589   0.95927   0.95309   0.00000  Uiso   1.00
O892   O     0.90443   0.67427   0.95958   0.00000  Uiso   1.00
O893   O     0.96150   0.94714   0.92813   0.00000  Uiso   1.00
N894   N     0.75078   0.70740   0.54691   0.00000  Uiso   1.00
O895   O     0.76225   0.99239   0.54042   0.00000  Uiso   1.00
O896   O     0.70516   0.71952   0.57187   0.00000  Uiso   1.00
Cl897  Cl    0.91648   0.67048   0.70707   0.00000  Uiso   1.00
Cl898  Cl    0.75019   0.99619   0.79293   0.00000  Uiso   1.00
Cl899  Cl    0.68067   0.77727   0.69813   0.00000  Uiso   1.00
Cl900  Cl    0.98599   0.88939   0.80187   0.00000  Uiso   1.00
loop_
_geom_bond_atom_site_label_1
_geom_bond_atom_site_label_2
_geom_bond_distance
_geom_bond_site_symmetry_2
_ccdc_geom_bond_type
O1     C5      1.280   .     A
O1     Zn13    1.984   .     S
O2     Zn14    1.984   .     S
O2     C6      1.280   .     A
O3     Zn14    1.995   .     S
O3     C5      1.293   .     A
O4     C6      1.293   .     A
O4     Zn13    1.995   .     S
C5     C31     1.405   .     S
C6     C32     1.405   .     S
O7     C11     1.289   .     A
O7     Zn13    1.997   .     S
O8     C12     1.289   .     A
O8     Zn14    1.997   .     S
O9     Zn14    2.014   .     S
O9     C11     1.288   .     A
O10    C12     1.288   .     A
O10    Zn13    2.014   .     S
C11    C18     1.421   .     S
C12    C17     1.421   .     S
Zn13   N34     2.028   .     S
Zn14   N33     2.028   .     S
C15    Cl35    1.776   .     S
C15    C25     1.402   .     A
C15    C17     1.390   .     A
C16    Cl36    1.776   .     S
C16    C26     1.402   .     A
C16    C18     1.390   .     A
C17    C19     1.389   .     A
C18    C20     1.389   .     A
C19    C21     1.398   .     A
C19    Cl37    1.770   .     S
C20    C22     1.398   .     A
C20    Cl38    1.770   .     S
C21    C27     1.414   .     A
C21    C23     1.422   .     A
C22    C28     1.414   .     A
C22    C24     1.422   .     A
C23    C25     1.424   .     A
C23    C474    1.399   1_554 S
C24    C26     1.424   .     A
C24    C473    1.399   .     S
C25    C30     1.414   .     A
C26    C29     1.414   .     A
C27    Cl39    1.776   .     S
C27    C479    1.396   1_554 S
C28    Cl40    1.775   .     S
C28    C480    1.396   .     S
C29    N41     1.435   .     S
C29    C477    1.396   .     S
C30    N44     1.435   .     S
C30    C478    1.396   1_554 S
C31    C182    1.354   .     S
C31    Cl197   1.783   .     S
C32    C331    1.354   1_545 S
C32    Cl348   1.783   1_545 S
N33    N84     1.287   .     S
N33    Cl99    1.723   .     S
N34    N133    1.287   1_455 S
N34    Cl150   1.723   1_455 S
N41    O43     1.301   .     A
N41    O192    1.302   .     S
O42    N341    1.302   1_545 S
N44    O46     1.301   .     A
N44    O345    1.302   1_545 S
O45    N194    1.302   .     S
Cl47   C331    1.783   1_545 S
Cl48   C182    1.783   .     S
Cl49   N133    1.723   1_455 S
Cl50   N84     1.723   .     S
O51    C55     1.280   .     A
O51    Zn63    1.984   .     S
O52    Zn64    1.984   .     S
O52    C56     1.280   .     A
O53    Zn64    1.995   .     S
O53    C55     1.293   .     A
O54    C56     1.293   .     A
O54    Zn63    1.995   .     S
C55    C81     1.405   .     S
C56    C82     1.405   .     S
O57    C61     1.289   .     A
O57    Zn63    1.997   .     S
O58    C62     1.289   .     A
O58    Zn64    1.997   .     S
O59    Zn64    2.014   .     S
O59    C61     1.288   .     A
O60    C62     1.288   .     A
O60    Zn63    2.014   .     S
C61    C68     1.421   .     S
C62    C67     1.421   .     S
Zn63   N84     2.028   .     S
Zn64   N83     2.028   .     S
C65    Cl85    1.776   .     S
C65    C75     1.402   .     A
C65    C67     1.390   .     A
C66    Cl86    1.776   .     S
C66    C76     1.402   .     A
C66    C68     1.390   .     A
C67    C69     1.389   .     A
C68    C70     1.389   .     A
C69    C71     1.398   .     A
C69    Cl87    1.770   .     S
C70    C72     1.398   .     A
C70    Cl88    1.770   .     S
C71    C77     1.414   .     A
C71    C73     1.422   .     A
C72    C78     1.414   .     A
C72    C74     1.422   .     A
C73    C75     1.424   .     A
C73    C524    1.399   1_554 S
C74    C76     1.424   .     A
C74    C523    1.399   .     S
C75    C80     1.414   .     A
C76    C79     1.414   .     A
C77    Cl89    1.776   .     S
C77    C529    1.396   1_554 S
C78    Cl90    1.775   .     S
C78    C530    1.396   .     S
C79    N91     1.435   .     S
C79    C527    1.396   .     S
C80    N94     1.435   .     S
C80    C528    1.396   1_554 S
C81    C232    1.354   .     S
C81    Cl247   1.783   .     S
C82    C381    1.354   1_545 S
C82    Cl398   1.783   1_545 S
N83    N134    1.287   .     S
N83    Cl149   1.723   .     S
N91    O93     1.301   .     A
N91    O242    1.302   .     S
O92    N391    1.302   1_545 S
N94    O96     1.301   .     A
N94    O395    1.302   1_545 S
O95    N244    1.302   .     S
Cl97   C381    1.783   1_545 S
Cl98   C232    1.783   .     S
Cl100  N134    1.723   .     S
O101   C105    1.280   .     A
O101   Zn113   1.984   .     S
O102   Zn114   1.984   .     S
O102   C106    1.280   .     A
O103   Zn114   1.995   .     S
O103   C105    1.293   .     A
O104   C106    1.293   .     A
O104   Zn113   1.995   .     S
C105   C131    1.405   .     S
C106   C132    1.405   .     S
O107   C111    1.289   .     A
O107   Zn113   1.997   .     S
O108   C112    1.289   .     A
O108   Zn114   1.997   .     S
O109   Zn114   2.014   .     S
O109   C111    1.288   .     A
O110   C112    1.288   .     A
O110   Zn113   2.014   .     S
C111   C118    1.421   .     S
C112   C117    1.421   .     S
Zn113  N134    2.028   .     S
Zn114  N133    2.028   .     S
C115   Cl135   1.776   .     S
C115   C125    1.402   .     A
C115   C117    1.390   .     A
C116   Cl136   1.776   .     S
C116   C126    1.402   .     A
C116   C118    1.390   .     A
C117   C119    1.389   .     A
C118   C120    1.389   .     A
C119   C121    1.398   .     A
C119   Cl137   1.770   .     S
C120   C122    1.398   .     A
C120   Cl138   1.770   .     S
C121   C127    1.414   .     A
C121   C123    1.422   .     A
C122   C128    1.414   .     A
C122   C124    1.422   .     A
C123   C125    1.424   .     A
C123   C574    1.399   1_554 S
C124   C126    1.424   .     A
C124   C573    1.399   .     S
C125   C130    1.414   .     A
C126   C129    1.414   .     A
C127   Cl139   1.776   .     S
C127   C579    1.396   1_554 S
C128   Cl140   1.775   .     S
C128   C580    1.396   .     S
C129   N141    1.435   .     S
C129   C577    1.396   .     S
C130   N144    1.435   .     S
C130   C578    1.396   1_554 S
C131   C282    1.354   .     S
C131   Cl297   1.783   .     S
C132   C431    1.354   1_545 S
C132   Cl448   1.783   1_545 S
N133   N34     1.287   1_655 S
N133   Cl49    1.723   1_655 S
N141   O143    1.301   .     A
N141   O292    1.302   .     S
O142   N441    1.302   1_545 S
N144   O146    1.301   .     A
N144   O445    1.302   1_545 S
O145   N294    1.302   .     S
Cl147  C431    1.783   1_545 S
Cl148  C282    1.783   .     S
Cl150  N34     1.723   1_655 S
O151   C155    1.280   .     A
O151   Zn163   1.984   .     S
O152   Zn164   1.984   .     S
O152   C156    1.280   .     A
O153   Zn164   1.995   .     S
O153   C155    1.293   .     A
O154   C156    1.293   .     A
O154   Zn163   1.995   .     S
C155   C181    1.405   .     S
C156   C182    1.405   .     S
O157   C161    1.289   .     A
O157   Zn163   1.997   .     S
O158   C162    1.289   .     A
O158   Zn164   1.997   .     S
O159   Zn164   2.014   .     S
O159   C161    1.288   .     A
O160   C162    1.288   .     A
O160   Zn163   2.014   .     S
C161   C168    1.421   .     S
C162   C167    1.421   .     S
Zn163  N184    2.028   .     S
Zn164  N183    2.028   .     S
C165   Cl185   1.776   .     S
C165   C175    1.402   .     A
C165   C167    1.390   .     A
C166   Cl186   1.776   .     S
C166   C176    1.402   .     A
C166   C168    1.390   .     A
C167   C169    1.389   .     A
C168   C170    1.389   .     A
C169   C171    1.398   .     A
C169   Cl187   1.770   .     S
C170   C172    1.398   .     A
C170   Cl188   1.770   .     S
C171   C177    1.414   .     A
C171   C173    1.422   .     A
C172   C178    1.414   .     A
C172   C174    1.422   .     A
C173   C175    1.424   .     A
C173   C624    1.399   1_554 S
C174   C176    1.424   .     A
C174   C623    1.399   .     S
C175   C180    1.414   .     A
C176   C179    1.414   .     A
C177   Cl189   1.776   .     S
C177   C629    1.396   1_554 S
C178   Cl190   1.775   .     S
C178   C630    1.396   .     S
C179   N191    1.435   .     S
C179   C627    1.396   .     S
C180   N194    1.435   .     S
C180   C628    1.396   1_554 S
C181   C332    1.354   .     S
C181   Cl347   1.783   .     S
N183   N234    1.287   .     S
N183   Cl249   1.723   .     S
N184   N283    1.287   1_455 S
N184   Cl300   1.723   1_455 S
N191   O193    1.301   .     A
N191   O342    1.302   .     S
N194   O196    1.301   .     A
O195   N344    1.302   .     S
Cl198  C332    1.783   .     S
Cl199  N283    1.723   1_455 S
Cl200  N234    1.723   .     S
O201   C205    1.280   .     A
O201   Zn213   1.984   .     S
O202   Zn214   1.984   .     S
O202   C206    1.280   .     A
O203   Zn214   1.995   .     S
O203   C205    1.293   .     A
O204   C206    1.293   .     A
O204   Zn213   1.995   .     S
C205   C231    1.405   .     S
C206   C232    1.405   .     S
O207   C211    1.289   .     A
O207   Zn213   1.997   .     S
O208   C212    1.289   .     A
O208   Zn214   1.997   .     S
O209   Zn214   2.014   .     S
O209   C211    1.288   .     A
O210   C212    1.288   .     A
O210   Zn213   2.014   .     S
C211   C218    1.421   .     S
C212   C217    1.421   .     S
Zn213  N234    2.028   .     S
Zn214  N233    2.028   .     S
C215   Cl235   1.776   .     S
C215   C225    1.402   .     A
C215   C217    1.390   .     A
C216   Cl236   1.776   .     S
C216   C226    1.402   .     A
C216   C218    1.390   .     A
C217   C219    1.389   .     A
C218   C220    1.389   .     A
C219   C221    1.398   .     A
C219   Cl237   1.770   .     S
C220   C222    1.398   .     A
C220   Cl238   1.770   .     S
C221   C227    1.414   .     A
C221   C223    1.422   .     A
C222   C228    1.414   .     A
C222   C224    1.422   .     A
C223   C225    1.424   .     A
C223   C674    1.399   1_554 S
C224   C226    1.424   .     A
C224   C673    1.399   .     S
C225   C230    1.414   .     A
C226   C229    1.414   .     A
C227   Cl239   1.776   .     S
C227   C679    1.396   1_554 S
C228   Cl240   1.775   .     S
C228   C680    1.396   .     S
C229   N241    1.435   .     S
C229   C677    1.396   .     S
C230   N244    1.435   .     S
C230   C678    1.396   1_554 S
C231   C382    1.354   .     S
C231   Cl397   1.783   .     S
N233   N284    1.287   .     S
N233   Cl299   1.723   .     S
N241   O243    1.301   .     A
N241   O392    1.302   .     S
N244   O246    1.301   .     A
O245   N394    1.302   .     S
Cl248  C382    1.783   .     S
Cl250  N284    1.723   .     S
O251   C255    1.280   .     A
O251   Zn263   1.984   .     S
O252   Zn264   1.984   .     S
O252   C256    1.280   .     A
O253   Zn264   1.995   .     S
O253   C255    1.293   .     A
O254   C256    1.293   .     A
O254   Zn263   1.995   .     S
C255   C281    1.405   .     S
C256   C282    1.405   .     S
O257   C261    1.289   .     A
O257   Zn263   1.997   .     S
O258   C262    1.289   .     A
O258   Zn264   1.997   .     S
O259   Zn264   2.014   .     S
O259   C261    1.288   .     A
O260   C262    1.288   .     A
O260   Zn263   2.014   .     S
C261   C268    1.421   .     S
C262   C267    1.421   .     S
Zn263  N284    2.028   .     S
Zn264  N283    2.028   .     S
C265   Cl285   1.776   .     S
C265   C275    1.402   .     A
C265   C267    1.390   .     A
C266   Cl286   1.776   .     S
C266   C276    1.402   .     A
C266   C268    1.390   .     A
C267   C269    1.389   .     A
C268   C270    1.389   .     A
C269   C271    1.398   .     A
C269   Cl287   1.770   .     S
C270   C272    1.398   .     A
C270   Cl288   1.770   .     S
C271   C277    1.414   .     A
C271   C273    1.422   .     A
C272   C278    1.414   .     A
C272   C274    1.422   .     A
C273   C275    1.424   .     A
C273   C724    1.399   1_554 S
C274   C276    1.424   .     A
C274   C723    1.399   .     S
C275   C280    1.414   .     A
C276   C279    1.414   .     A
C277   Cl289   1.776   .     S
C277   C729    1.396   1_554 S
C278   Cl290   1.775   .     S
C278   C730    1.396   .     S
C279   N291    1.435   .     S
C279   C727    1.396   .     S
C280   N294    1.435   .     S
C280   C728    1.396   1_554 S
C281   C432    1.354   .     S
C281   Cl447   1.783   .     S
N283   N184    1.287   1_655 S
N283   Cl199   1.723   1_655 S
N291   O293    1.301   .     A
N291   O442    1.302   .     S
N294   O296    1.301   .     A
O295   N444    1.302   .     S
Cl298  C432    1.783   .     S
Cl300  N184    1.723   1_655 S
O301   C305    1.280   .     A
O301   Zn313   1.984   .     S
O302   Zn314   1.984   .     S
O302   C306    1.280   .     A
O303   Zn314   1.995   .     S
O303   C305    1.293   .     A
O304   C306    1.293   .     A
O304   Zn313   1.995   .     S
C305   C331    1.405   .     S
C306   C332    1.405   .     S
O307   C311    1.289   .     A
O307   Zn313   1.997   .     S
O308   C312    1.289   .     A
O308   Zn314   1.997   .     S
O309   Zn314   2.014   .     S
O309   C311    1.288   .     A
O310   C312    1.288   .     A
O310   Zn313   2.014   .     S
C311   C318    1.421   .     S
C312   C317    1.421   .     S
Zn313  N334    2.028   .     S
Zn314  N333    2.028   .     S
C315   Cl335   1.776   .     S
C315   C325    1.402   .     A
C315   C317    1.390   .     A
C316   Cl336   1.776   .     S
C316   C326    1.402   .     A
C316   C318    1.390   .     A
C317   C319    1.389   .     A
C318   C320    1.389   .     A
C319   C321    1.398   .     A
C319   Cl337   1.770   .     S
C320   C322    1.398   .     A
C320   Cl338   1.770   .     S
C321   C327    1.414   .     A
C321   C323    1.422   .     A
C322   C328    1.414   .     A
C322   C324    1.422   .     A
C323   C325    1.424   .     A
C323   C774    1.399   1_554 S
C324   C326    1.424   .     A
C324   C773    1.399   .     S
C325   C330    1.414   .     A
C326   C329    1.414   .     A
C327   Cl339   1.776   .     S
C327   C779    1.396   1_554 S
C328   Cl340   1.775   .     S
C328   C780    1.396   .     S
C329   N341    1.435   .     S
C329   C777    1.396   .     S
C330   N344    1.435   .     S
C330   C778    1.396   1_554 S
C331   C32     1.354   1_565 S
C331   Cl47    1.783   1_565 S
N333   N384    1.287   .     S
N333   Cl399   1.723   .     S
N334   N433    1.287   1_455 S
N334   Cl450   1.723   1_455 S
N341   O343    1.301   .     A
N341   O42     1.302   1_565 S
N344   O346    1.301   .     A
O345   N44     1.302   1_565 S
Cl348  C32     1.783   1_565 S
Cl349  N433    1.723   1_455 S
Cl350  N384    1.723   .     S
O351   C355    1.280   .     A
O351   Zn363   1.984   .     S
O352   Zn364   1.984   .     S
O352   C356    1.280   .     A
O353   Zn364   1.995   .     S
O353   C355    1.293   .     A
O354   C356    1.293   .     A
O354   Zn363   1.995   .     S
C355   C381    1.405   .     S
C356   C382    1.405   .     S
O357   C361    1.289   .     A
O357   Zn363   1.997   .     S
O358   C362    1.289   .     A
O358   Zn364   1.997   .     S
O359   Zn364   2.014   .     S
O359   C361    1.288   .     A
O360   C362    1.288   .     A
O360   Zn363   2.014   .     S
C361   C368    1.421   .     S
C362   C367    1.421   .     S
Zn363  N384    2.028   .     S
Zn364  N383    2.028   .     S
C365   Cl385   1.776   .     S
C365   C375    1.402   .     A
C365   C367    1.390   .     A
C366   Cl386   1.776   .     S
C366   C376    1.402   .     A
C366   C368    1.390   .     A
C367   C369    1.389   .     A
C368   C370    1.389   .     A
C369   C371    1.398   .     A
C369   Cl387   1.770   .     S
C370   C372    1.398   .     A
C370   Cl388   1.770   .     S
C371   C377    1.414   .     A
C371   C373    1.422   .     A
C372   C378    1.414   .     A
C372   C374    1.422   .     A
C373   C375    1.424   .     A
C373   C824    1.399   1_554 S
C374   C376    1.424   .     A
C374   C823    1.399   .     S
C375   C380    1.414   .     A
C376   C379    1.414   .     A
C377   Cl389   1.776   .     S
C377   C829    1.396   1_554 S
C378   Cl390   1.775   .     S
C378   C830    1.396   .     S
C379   N391    1.435   .     S
C379   C827    1.396   .     S
C380   N394    1.435   .     S
C380   C828    1.396   1_554 S
C381   C82     1.354   1_565 S
C381   Cl97    1.783   1_565 S
N383   N434    1.287   .     S
N383   Cl449   1.723   .     S
N391   O393    1.301   .     A
N391   O92     1.302   1_565 S
N394   O396    1.301   .     A
O395   N94     1.302   1_565 S
Cl398  C82     1.783   1_565 S
Cl400  N434    1.723   .     S
O401   C405    1.280   .     A
O401   Zn413   1.984   .     S
O402   Zn414   1.984   .     S
O402   C406    1.280   .     A
O403   Zn414   1.995   .     S
O403   C405    1.293   .     A
O404   C406    1.293   .     A
O404   Zn413   1.995   .     S
C405   C431    1.405   .     S
C406   C432    1.405   .     S
O407   C411    1.289   .     A
O407   Zn413   1.997   .     S
O408   C412    1.289   .     A
O408   Zn414   1.997   .     S
O409   Zn414   2.014   .     S
O409   C411    1.288   .     A
O410   C412    1.288   .     A
O410   Zn413   2.014   .     S
C411   C418    1.421   .     S
C412   C417    1.421   .     S
Zn413  N434    2.028   .     S
Zn414  N433    2.028   .     S
C415   Cl435   1.776   .     S
C415   C425    1.402   .     A
C415   C417    1.390   .     A
C416   Cl436   1.776   .     S
C416   C426    1.402   .     A
C416   C418    1.390   .     A
C417   C419    1.389   .     A
C418   C420    1.389   .     A
C419   C421    1.398   .     A
C419   Cl437   1.770   .     S
C420   C422    1.398   .     A
C420   Cl438   1.770   .     S
C421   C427    1.414   .     A
C421   C423    1.422   .     A
C422   C428    1.414   .     A
C422   C424    1.422   .     A
C423   C425    1.424   .     A
C423   C874    1.399   1_554 S
C424   C426    1.424   .     A
C424   C873    1.399   .     S
C425   C430    1.414   .     A
C426   C429    1.414   .     A
C427   Cl439   1.776   .     S
C427   C879    1.396   1_554 S
C428   Cl440   1.775   .     S
C428   C880    1.396   .     S
C429   N441    1.435   .     S
C429   C877    1.396   .     S
C430   N444    1.435   .     S
C430   C878    1.396   1_554 S
C431   C132    1.354   1_565 S
C431   Cl147   1.783   1_565 S
N433   N334    1.287   1_655 S
N433   Cl349   1.723   1_655 S
N441   O443    1.301   .     A
N441   O142    1.302   1_565 S
N444   O446    1.301   .     A
O445   N144    1.302   1_565 S
Cl448  C132    1.783   1_565 S
Cl450  N334    1.723   1_655 S
O451   C455    1.280   .     A
O451   Zn463   1.984   .     S
O452   Zn464   1.984   .     S
O452   C456    1.280   .     A
O453   Zn464   1.995   .     S
O453   C455    1.293   .     A
O454   C456    1.293   .     A
O454   Zn463   1.995   .     S
C455   C481    1.405   .     S
C456   C482    1.405   .     S
O457   C461    1.289   .     A
O457   Zn463   1.997   .     S
O458   C462    1.289   .     A
O458   Zn464   1.997   .     S
O459   Zn464   2.014   .     S
O459   C461    1.288   .     A
O460   C462    1.288   .     A
O460   Zn463   2.014   .     S
C461   C468    1.421   .     S
C462   C467    1.421   .     S
Zn463  N484    2.028   .     S
Zn464  N483    2.028   .     S
C465   Cl485   1.776   .     S
C465   C475    1.402   .     A
C465   C467    1.390   .     A
C466   Cl486   1.776   .     S
C466   C476    1.402   .     A
C466   C468    1.390   .     A
C467   C469    1.389   .     A
C468   C470    1.389   .     A
C469   C471    1.398   .     A
C469   Cl487   1.770   .     S
C470   C472    1.398   .     A
C470   Cl488   1.770   .     S
C471   C477    1.414   .     A
C471   C473    1.422   .     A
C472   C478    1.414   .     A
C472   C474    1.422   .     A
C473   C475    1.424   .     A
C474   C476    1.424   .     A
C474   C23     1.399   1_556 S
C475   C480    1.414   .     A
C476   C479    1.414   .     A
C477   Cl489   1.776   .     S
C478   Cl490   1.775   .     S
C478   C30     1.396   1_556 S
C479   N491    1.435   .     S
C479   C27     1.396   1_556 S
C480   N494    1.435   .     S
C481   C632    1.354   .     S
C481   Cl647   1.783   .     S
C482   C781    1.354   1_545 S
C482   Cl798   1.783   1_545 S
N483   N534    1.287   .     S
N483   Cl549   1.723   .     S
N484   N583    1.287   1_455 S
N484   Cl600   1.723   1_455 S
N491   O493    1.301   .     A
N491   O642    1.302   .     S
O492   N791    1.302   1_545 S
N494   O496    1.301   .     A
N494   O795    1.302   1_545 S
O495   N644    1.302   .     S
Cl497  C781    1.783   1_545 S
Cl498  C632    1.783   .     S
Cl499  N583    1.723   1_455 S
Cl500  N534    1.723   .     S
O501   C505    1.280   .     A
O501   Zn513   1.984   .     S
O502   Zn514   1.984   .     S
O502   C506    1.280   .     A
O503   Zn514   1.995   .     S
O503   C505    1.293   .     A
O504   C506    1.293   .     A
O504   Zn513   1.995   .     S
C505   C531    1.405   .     S
C506   C532    1.405   .     S
O507   C511    1.289   .     A
O507   Zn513   1.997   .     S
O508   C512    1.289   .     A
O508   Zn514   1.997   .     S
O509   Zn514   2.014   .     S
O509   C511    1.288   .     A
O510   C512    1.288   .     A
O510   Zn513   2.014   .     S
C511   C518    1.421   .     S
C512   C517    1.421   .     S
Zn513  N534    2.028   .     S
Zn514  N533    2.028   .     S
C515   Cl535   1.776   .     S
C515   C525    1.402   .     A
C515   C517    1.390   .     A
C516   Cl536   1.776   .     S
C516   C526    1.402   .     A
C516   C518    1.390   .     A
C517   C519    1.389   .     A
C518   C520    1.389   .     A
C519   C521    1.398   .     A
C519   Cl537   1.770   .     S
C520   C522    1.398   .     A
C520   Cl538   1.770   .     S
C521   C527    1.414   .     A
C521   C523    1.422   .     A
C522   C528    1.414   .     A
C522   C524    1.422   .     A
C523   C525    1.424   .     A
C524   C526    1.424   .     A
C524   C73     1.399   1_556 S
C525   C530    1.414   .     A
C526   C529    1.414   .     A
C527   Cl539   1.776   .     S
C528   Cl540   1.775   .     S
C528   C80     1.396   1_556 S
C529   N541    1.435   .     S
C529   C77     1.396   1_556 S
C530   N544    1.435   .     S
C531   C682    1.354   .     S
C531   Cl697   1.783   .     S
C532   C831    1.354   1_545 S
C532   Cl848   1.783   1_545 S
N533   N584    1.287   .     S
N533   Cl599   1.723   .     S
N541   O543    1.301   .     A
N541   O692    1.302   .     S
O542   N841    1.302   1_545 S
N544   O546    1.301   .     A
N544   O845    1.302   1_545 S
O545   N694    1.302   .     S
Cl547  C831    1.783   1_545 S
Cl548  C682    1.783   .     S
Cl550  N584    1.723   .     S
O551   C555    1.280   .     A
O551   Zn563   1.984   .     S
O552   Zn564   1.984   .     S
O552   C556    1.280   .     A
O553   Zn564   1.995   .     S
O553   C555    1.293   .     A
O554   C556    1.293   .     A
O554   Zn563   1.995   .     S
C555   C581    1.405   .     S
C556   C582    1.405   .     S
O557   C561    1.289   .     A
O557   Zn563   1.997   .     S
O558   C562    1.289   .     A
O558   Zn564   1.997   .     S
O559   Zn564   2.014   .     S
O559   C561    1.288   .     A
O560   C562    1.288   .     A
O560   Zn563   2.014   .     S
C561   C568    1.421   .     S
C562   C567    1.421   .     S
Zn563  N584    2.028   .     S
Zn564  N583    2.028   .     S
C565   Cl585   1.776   .     S
C565   C575    1.402   .     A
C565   C567    1.390   .     A
C566   Cl586   1.776   .     S
C566   C576    1.402   .     A
C566   C568    1.390   .     A
C567   C569    1.389   .     A
C568   C570    1.389   .     A
C569   C571    1.398   .     A
C569   Cl587   1.770   .     S
C570   C572    1.398   .     A
C570   Cl588   1.770   .     S
C571   C577    1.414   .     A
C571   C573    1.422   .     A
C572   C578    1.414   .     A
C572   C574    1.422   .     A
C573   C575    1.424   .     A
C574   C576    1.424   .     A
C574   C123    1.399   1_556 S
C575   C580    1.414   .     A
C576   C579    1.414   .     A
C577   Cl589   1.776   .     S
C578   Cl590   1.775   .     S
C578   C130    1.396   1_556 S
C579   N591    1.435   .     S
C579   C127    1.396   1_556 S
C580   N594    1.435   .     S
C581   C732    1.354   .     S
C581   Cl747   1.783   .     S
C582   C881    1.354   1_545 S
C582   Cl898   1.783   1_545 S
N583   N484    1.287   1_655 S
N583   Cl499   1.723   1_655 S
N591   O593    1.301   .     A
N591   O742    1.302   .     S
O592   N891    1.302   1_545 S
N594   O596    1.301   .     A
N594   O895    1.302   1_545 S
O595   N744    1.302   .     S
Cl597  C881    1.783   1_545 S
Cl598  C732    1.783   .     S
Cl600  N484    1.723   1_655 S
O601   C605    1.280   .     A
O601   Zn613   1.984   .     S
O602   Zn614   1.984   .     S
O602   C606    1.280   .     A
O603   Zn614   1.995   .     S
O603   C605    1.293   .     A
O604   C606    1.293   .     A
O604   Zn613   1.995   .     S
C605   C631    1.405   .     S
C606   C632    1.405   .     S
O607   C611    1.289   .     A
O607   Zn613   1.997   .     S
O608   C612    1.289   .     A
O608   Zn614   1.997   .     S
O609   Zn614   2.014   .     S
O609   C611    1.288   .     A
O610   C612    1.288   .     A
O610   Zn613   2.014   .     S
C611   C618    1.421   .     S
C612   C617    1.421   .     S
Zn613  N634    2.028   .     S
Zn614  N633    2.028   .     S
C615   Cl635   1.776   .     S
C615   C625    1.402   .     A
C615   C617    1.390   .     A
C616   Cl636   1.776   .     S
C616   C626    1.402   .     A
C616   C618    1.390   .     A
C617   C619    1.389   .     A
C618   C620    1.389   .     A
C619   C621    1.398   .     A
C619   Cl637   1.770   .     S
C620   C622    1.398   .     A
C620   Cl638   1.770   .     S
C621   C627    1.414   .     A
C621   C623    1.422   .     A
C622   C628    1.414   .     A
C622   C624    1.422   .     A
C623   C625    1.424   .     A
C624   C626    1.424   .     A
C624   C173    1.399   1_556 S
C625   C630    1.414   .     A
C626   C629    1.414   .     A
C627   Cl639   1.776   .     S
C628   Cl640   1.775   .     S
C628   C180    1.396   1_556 S
C629   N641    1.435   .     S
C629   C177    1.396   1_556 S
C630   N644    1.435   .     S
C631   C782    1.354   .     S
C631   Cl797   1.783   .     S
N633   N684    1.287   .     S
N633   Cl699   1.723   .     S
N634   N733    1.287   1_455 S
N634   Cl750   1.723   1_455 S
N641   O643    1.301   .     A
N641   O792    1.302   .     S
N644   O646    1.301   .     A
O645   N794    1.302   .     S
Cl648  C782    1.783   .     S
Cl649  N733    1.723   1_455 S
Cl650  N684    1.723   .     S
O651   C655    1.280   .     A
O651   Zn663   1.984   .     S
O652   Zn664   1.984   .     S
O652   C656    1.280   .     A
O653   Zn664   1.995   .     S
O653   C655    1.293   .     A
O654   C656    1.293   .     A
O654   Zn663   1.995   .     S
C655   C681    1.405   .     S
C656   C682    1.405   .     S
O657   C661    1.289   .     A
O657   Zn663   1.997   .     S
O658   C662    1.289   .     A
O658   Zn664   1.997   .     S
O659   Zn664   2.014   .     S
O659   C661    1.288   .     A
O660   C662    1.288   .     A
O660   Zn663   2.014   .     S
C661   C668    1.421   .     S
C662   C667    1.421   .     S
Zn663  N684    2.028   .     S
Zn664  N683    2.028   .     S
C665   Cl685   1.776   .     S
C665   C675    1.402   .     A
C665   C667    1.390   .     A
C666   Cl686   1.776   .     S
C666   C676    1.402   .     A
C666   C668    1.390   .     A
C667   C669    1.389   .     A
C668   C670    1.389   .     A
C669   C671    1.398   .     A
C669   Cl687   1.770   .     S
C670   C672    1.398   .     A
C670   Cl688   1.770   .     S
C671   C677    1.414   .     A
C671   C673    1.422   .     A
C672   C678    1.414   .     A
C672   C674    1.422   .     A
C673   C675    1.424   .     A
C674   C676    1.424   .     A
C674   C223    1.399   1_556 S
C675   C680    1.414   .     A
C676   C679    1.414   .     A
C677   Cl689   1.776   .     S
C678   Cl690   1.775   .     S
C678   C230    1.396   1_556 S
C679   N691    1.435   .     S
C679   C227    1.396   1_556 S
C680   N694    1.435   .     S
C681   C832    1.354   .     S
C681   Cl847   1.783   .     S
N683   N734    1.287   .     S
N683   Cl749   1.723   .     S
N691   O693    1.301   .     A
N691   O842    1.302   .     S
N694   O696    1.301   .     A
O695   N844    1.302   .     S
Cl698  C832    1.783   .     S
Cl700  N734    1.723   .     S
O701   C705    1.280   .     A
O701   Zn713   1.984   .     S
O702   Zn714   1.984   .     S
O702   C706    1.280   .     A
O703   Zn714   1.995   .     S
O703   C705    1.293   .     A
O704   C706    1.293   .     A
O704   Zn713   1.995   .     S
C705   C731    1.405   .     S
C706   C732    1.405   .     S
O707   C711    1.289   .     A
O707   Zn713   1.997   .     S
O708   C712    1.289   .     A
O708   Zn714   1.997   .     S
O709   Zn714   2.014   .     S
O709   C711    1.288   .     A
O710   C712    1.288   .     A
O710   Zn713   2.014   .     S
C711   C718    1.421   .     S
C712   C717    1.421   .     S
Zn713  N734    2.028   .     S
Zn714  N733    2.028   .     S
C715   Cl735   1.776   .     S
C715   C725    1.402   .     A
C715   C717    1.390   .     A
C716   Cl736   1.776   .     S
C716   C726    1.402   .     A
C716   C718    1.390   .     A
C717   C719    1.389   .     A
C718   C720    1.389   .     A
C719   C721    1.398   .     A
C719   Cl737   1.770   .     S
C720   C722    1.398   .     A
C720   Cl738   1.770   .     S
C721   C727    1.414   .     A
C721   C723    1.422   .     A
C722   C728    1.414   .     A
C722   C724    1.422   .     A
C723   C725    1.424   .     A
C724   C726    1.424   .     A
C724   C273    1.399   1_556 S
C725   C730    1.414   .     A
C726   C729    1.414   .     A
C727   Cl739   1.776   .     S
C728   Cl740   1.775   .     S
C728   C280    1.396   1_556 S
C729   N741    1.435   .     S
C729   C277    1.396   1_556 S
C730   N744    1.435   .     S
C731   C882    1.354   .     S
C731   Cl897   1.783   .     S
N733   N634    1.287   1_655 S
N733   Cl649   1.723   1_655 S
N741   O743    1.301   .     A
N741   O892    1.302   .     S
N744   O746    1.301   .     A
O745   N894    1.302   .     S
Cl748  C882    1.783   .     S
Cl750  N634    1.723   1_655 S
O751   C755    1.280   .     A
O751   Zn763   1.984   .     S
O752   Zn764   1.984   .     S
O752   C756    1.280   .     A
O753   Zn764   1.995   .     S
O753   C755    1.293   .     A
O754   C756    1.293   .     A
O754   Zn763   1.995   .     S
C755   C781    1.405   .     S
C756   C782    1.405   .     S
O757   C761    1.289   .     A
O757   Zn763   1.997   .     S
O758   C762    1.289   .     A
O758   Zn764   1.997   .     S
O759   Zn764   2.014   .     S
O759   C761    1.288   .     A
O760   C762    1.288   .     A
O760   Zn763   2.014   .     S
C761   C768    1.421   .     S
C762   C767    1.421   .     S
Zn763  N784    2.028   .     S
Zn764  N783    2.028   .     S
C765   Cl785   1.776   .     S
C765   C775    1.402   .     A
C765   C767    1.390   .     A
C766   Cl786   1.776   .     S
C766   C776    1.402   .     A
C766   C768    1.390   .     A
C767   C769    1.389   .     A
C768   C770    1.389   .     A
C769   C771    1.398   .     A
C769   Cl787   1.770   .     S
C770   C772    1.398   .     A
C770   Cl788   1.770   .     S
C771   C777    1.414   .     A
C771   C773    1.422   .     A
C772   C778    1.414   .     A
C772   C774    1.422   .     A
C773   C775    1.424   .     A
C774   C776    1.424   .     A
C774   C323    1.399   1_556 S
C775   C780    1.414   .     A
C776   C779    1.414   .     A
C777   Cl789   1.776   .     S
C778   Cl790   1.775   .     S
C778   C330    1.396   1_556 S
C779   N791    1.435   .     S
C779   C327    1.396   1_556 S
C780   N794    1.435   .     S
C781   C482    1.354   1_565 S
C781   Cl497   1.783   1_565 S
N783   N834    1.287   .     S
N783   Cl849   1.723   .     S
N784   N883    1.287   1_455 S
N784   Cl900   1.723   1_455 S
N791   O793    1.301   .     A
N791   O492    1.302   1_565 S
N794   O796    1.301   .     A
O795   N494    1.302   1_565 S
Cl798  C482    1.783   1_565 S
Cl799  N883    1.723   1_455 S
Cl800  N834    1.723   .     S
O801   C805    1.280   .     A
O801   Zn813   1.984   .     S
O802   Zn814   1.984   .     S
O802   C806    1.280   .     A
O803   Zn814   1.995   .     S
O803   C805    1.293   .     A
O804   C806    1.293   .     A
O804   Zn813   1.995   .     S
C805   C831    1.405   .     S
C806   C832    1.405   .     S
O807   C811    1.289   .     A
O807   Zn813   1.997   .     S
O808   C812    1.289   .     A
O808   Zn814   1.997   .     S
O809   Zn814   2.014   .     S
O809   C811    1.288   .     A
O810   C812    1.288   .     A
O810   Zn813   2.014   .     S
C811   C818    1.421   .     S
C812   C817    1.421   .     S
Zn813  N834    2.028   .     S
Zn814  N833    2.028   .     S
C815   Cl835   1.776   .     S
C815   C825    1.402   .     A
C815   C817    1.390   .     A
C816   Cl836   1.776   .     S
C816   C826    1.402   .     A
C816   C818    1.390   .     A
C817   C819    1.389   .     A
C818   C820    1.389   .     A
C819   C821    1.398   .     A
C819   Cl837   1.770   .     S
C820   C822    1.398   .     A
C820   Cl838   1.770   .     S
C821   C827    1.414   .     A
C821   C823    1.422   .     A
C822   C828    1.414   .     A
C822   C824    1.422   .     A
C823   C825    1.424   .     A
C824   C826    1.424   .     A
C824   C373    1.399   1_556 S
C825   C830    1.414   .     A
C826   C829    1.414   .     A
C827   Cl839   1.776   .     S
C828   Cl840   1.775   .     S
C828   C380    1.396   1_556 S
C829   N841    1.435   .     S
C829   C377    1.396   1_556 S
C830   N844    1.435   .     S
C831   C532    1.354   1_565 S
C831   Cl547   1.783   1_565 S
N833   N884    1.287   .     S
N833   Cl899   1.723   .     S
N841   O843    1.301   .     A
N841   O542    1.302   1_565 S
N844   O846    1.301   .     A
O845   N544    1.302   1_565 S
Cl848  C532    1.783   1_565 S
Cl850  N884    1.723   .     S
O851   C855    1.280   .     A
O851   Zn863   1.984   .     S
O852   Zn864   1.984   .     S
O852   C856    1.280   .     A
O853   Zn864   1.995   .     S
O853   C855    1.293   .     A
O854   C856    1.293   .     A
O854   Zn863   1.995   .     S
C855   C881    1.405   .     S
C856   C882    1.405   .     S
O857   C861    1.289   .     A
O857   Zn863   1.997   .     S
O858   C862    1.289   .     A
O858   Zn864   1.997   .     S
O859   Zn864   2.014   .     S
O859   C861    1.288   .     A
O860   C862    1.288   .     A
O860   Zn863   2.014   .     S
C861   C868    1.421   .     S
C862   C867    1.421   .     S
Zn863  N884    2.028   .     S
Zn864  N883    2.028   .     S
C865   Cl885   1.776   .     S
C865   C875    1.402   .     A
C865   C867    1.390   .     A
C866   Cl886   1.776   .     S
C866   C876    1.402   .     A
C866   C868    1.390   .     A
C867   C869    1.389   .     A
C868   C870    1.389   .     A
C869   C871    1.398   .     A
C869   Cl887   1.770   .     S
C870   C872    1.398   .     A
C870   Cl888   1.770   .     S
C871   C877    1.414   .     A
C871   C873    1.422   .     A
C872   C878    1.414   .     A
C872   C874    1.422   .     A
C873   C875    1.424   .     A
C874   C876    1.424   .     A
C874   C423    1.399   1_556 S
C875   C880    1.414   .     A
C876   C879    1.414   .     A
C877   Cl889   1.776   .     S
C878   Cl890   1.775   .     S
C878   C430    1.396   1_556 S
C879   N891    1.435   .     S
C879   C427    1.396   1_556 S
C880   N894    1.435   .     S
C881   C582    1.354   1_565 S
C881   Cl597   1.783   1_565 S
N883   N784    1.287   1_655 S
N883   Cl799   1.723   1_655 S
N891   O893    1.301   .     A
N891   O592    1.302   1_565 S
N894   O896    1.301   .     A
O895   N594    1.302   1_565 S
Cl898  C582    1.783   1_565 S
Cl900  N784    1.723   1_655 S
