data_str_m3_o1_o16_pcu_sym.137
_audit_creation_date              2020-01-03
_audit_creation_method            'Materials Studio'
_symmetry_space_group_name_H-M    'P1'
_symmetry_Int_Tables_number       1
_symmetry_cell_setting            triclinic
loop_
_symmetry_equiv_pos_as_xyz
  x,y,z
_cell_length_a                    29.7524
_cell_length_b                    32.4453
_cell_length_c                    26.0512
_cell_angle_alpha                 91.7789
_cell_angle_beta                  68.4459
_cell_angle_gamma                 89.4024
loop_
_atom_site_label
_atom_site_type_symbol
_atom_site_fract_x
_atom_site_fract_y
_atom_site_fract_z
_atom_site_U_iso_or_equiv
_atom_site_adp_type
_atom_site_occupancy
C1     C     0.16733   0.24653   0.24726   0.00000  Uiso   1.00
C2     C     0.15371   0.17124   0.48750   0.00000  Uiso   1.00
C3     C     0.15384   0.15037   0.43867   0.00000  Uiso   1.00
C4     C     0.19056   0.15961   0.00796   0.00000  Uiso   1.00
C5     C     0.21938   0.12315   0.48551   0.00000  Uiso   1.00
C6     C     0.21753   0.10250   0.43839   0.00000  Uiso   1.00
C7     C     0.18341   0.11486   0.41695   0.00000  Uiso   1.00
C8     C     0.19762   0.17981   0.05352   0.00000  Uiso   1.00
C9     C     0.23383   0.11692   0.07017   0.00000  Uiso   1.00
C10    C     0.12157   0.16335   0.41395   0.00000  Uiso   1.00
C11    C     0.21113   0.31120   0.23824   0.00000  Uiso   1.00
C12    C     0.13935   0.16529   0.35295   0.00000  Uiso   1.00
C13    C     0.20952   0.01995   0.24759   0.00000  Uiso   1.00
C14    C     0.16656   0.04238   0.25433   0.00000  Uiso   1.00
C15    C     0.12383   0.02168   0.25965   0.00000  Uiso   1.00
C16    C     0.12569   0.31298   0.24981   0.00000  Uiso   1.00
C17    C     0.16824   0.29069   0.24372   0.00000  Uiso   1.00
C18    C     0.32031   0.13962   0.21622   0.00000  Uiso   1.00
C19    C     0.03395   0.13795   0.21902   0.00000  Uiso   1.00
C20    C     0.01448   0.19624   0.28032   0.00000  Uiso   1.00
C21    C     0.29901   0.19540   0.28144   0.00000  Uiso   1.00
C22    C     0.16647   0.08669   0.25177   0.00000  Uiso   1.00
C23    C     0.19393   0.16635   0.14741   0.00000  Uiso   1.00
C24    C     0.24454   0.10458   0.01522   0.00000  Uiso   1.00
C25    C     0.21217   0.15586   0.08857   0.00000  Uiso   1.00
C26    C     0.07806   0.18244   0.44725   0.00000  Uiso   1.00
C27    C     0.07478   0.20217   0.49685   0.00000  Uiso   1.00
C28    C     0.11319   0.19871   0.01610   0.00000  Uiso   1.00
H29    H     0.26634   0.07682   0.49982   0.00000  Uiso   1.00
N30    N     0.04760   0.16668   0.25002   0.00000  Uiso   1.00
N31    N     0.28573   0.16665   0.25000   0.00000  Uiso   1.00
O32    O     0.12846   0.22775   0.25001   0.00000  Uiso   1.00
O33    O     0.20490   0.22774   0.25000   0.00000  Uiso   1.00
O34    O     0.10947   0.16666   0.32681   0.00000  Uiso   1.00
O35    O     0.18591   0.16665   0.32681   0.00000  Uiso   1.00
O36    O     0.12843   0.10559   0.25000   0.00000  Uiso   1.00
O37    O     0.20488   0.10558   0.24999   0.00000  Uiso   1.00
O38    O     0.14742   0.16668   0.17319   0.00000  Uiso   1.00
O39    O     0.22387   0.16667   0.17319   0.00000  Uiso   1.00
Zn40   Zn    0.11562   0.16667   0.25000   0.00000  Uiso   1.00
Zn41   Zn    0.21771   0.16666   0.25000   0.00000  Uiso   1.00
O42    O     0.24369   0.09117   0.10633   0.00000  Uiso   1.00
C43    C     0.21763   0.05445   0.11088   0.00000  Uiso   1.00
H44    H     0.17802   0.06105   0.12631   0.00000  Uiso   1.00
H45    H     0.22519   0.03494   0.14090   0.00000  Uiso   1.00
H46    H     0.22938   0.03589   0.07145   0.00000  Uiso   1.00
Cl47   Cl    0.26245   0.04146   0.25234   0.00000  Uiso   1.00
O48    O     0.07992   0.04227   0.27215   0.00000  Uiso   1.00
C49    C     0.05666   0.04552   0.33004   0.00000  Uiso   1.00
H50    H     0.07903   0.06206   0.34981   0.00000  Uiso   1.00
H51    H     0.04705   0.01460   0.34774   0.00000  Uiso   1.00
H52    H     0.02273   0.06388   0.33989   0.00000  Uiso   1.00
O53    O     0.08437   0.29383   0.25001   0.00000  Uiso   1.00
C54    C     0.08157   0.29717   0.19739   0.00000  Uiso   1.00
H55    H     0.04973   0.28001   0.19672   0.00000  Uiso   1.00
H56    H     0.11428   0.28340   0.16430   0.00000  Uiso   1.00
H57    H     0.07624   0.32980   0.18858   0.00000  Uiso   1.00
O58    O     0.30803   0.11191   0.18241   0.00000  Uiso   1.00
C59    C     0.32980   0.12314   0.12684   0.00000  Uiso   1.00
H60    H     0.32560   0.09776   0.09975   0.00000  Uiso   1.00
H61    H     0.31280   0.15176   0.11925   0.00000  Uiso   1.00
H62    H     0.03589   0.12670   0.11325   0.00000  Uiso   1.00
Cl63   Cl    0.07485   0.09853   0.18112   0.00000  Uiso   1.00
O64    O     0.03229   0.22970   0.30079   0.00000  Uiso   1.00
C65    C     0.00551   0.24065   0.35658   0.00000  Uiso   1.00
H66    H     0.03126   0.24663   0.37759   0.00000  Uiso   1.00
H67    H     0.31328   0.21677   0.37923   0.00000  Uiso   1.00
H68    H     0.31901   0.27027   0.35913   0.00000  Uiso   1.00
Cl69   Cl    0.25541   0.23241   0.32121   0.00000  Uiso   1.00
Cl70   Cl    0.25416   0.05793   0.40880   0.00000  Uiso   1.00
O71    O     0.19099   0.22186   0.06528   0.00000  Uiso   1.00
C72    C     0.22235   0.24328   0.02020   0.00000  Uiso   1.00
H73    H     0.21063   0.24118   0.48433   0.00000  Uiso   1.00
H74    H     0.26050   0.23201   0.00787   0.00000  Uiso   1.00
H75    H     0.22113   0.27637   0.03284   0.00000  Uiso   1.00
Cl76   Cl    0.02562   0.17378   0.43295   0.00000  Uiso   1.00
O77    O     0.10950   0.22181   0.06294   0.00000  Uiso   1.00
C78    C     0.08391   0.19973   0.11013   0.00000  Uiso   1.00
H79    H     0.09831   0.16765   0.10706   0.00000  Uiso   1.00
H80    H     0.04467   0.20015   0.11812   0.00000  Uiso   1.00
H81    H     0.08835   0.21508   0.14642   0.00000  Uiso   1.00
Cl82   Cl    0.02303   0.23303   0.03384   0.00000  Uiso   1.00
Cl83   Cl    0.16853   0.07877   0.37390   0.00000  Uiso   1.00
O84    O     0.25468   0.29013   0.22669   0.00000  Uiso   1.00
C85    C     0.27763   0.28487   0.16886   0.00000  Uiso   1.00
H86    H     0.28722   0.31510   0.14909   0.00000  Uiso   1.00
H87    H     0.25494   0.26732   0.15041   0.00000  Uiso   1.00
H88    H     0.31170   0.26677   0.15973   0.00000  Uiso   1.00
C89    C     0.50066   0.24653   0.24726   0.00000  Uiso   1.00
C90    C     0.48704   0.17124   0.48750   0.00000  Uiso   1.00
C91    C     0.48717   0.15037   0.43867   0.00000  Uiso   1.00
C92    C     0.52390   0.15961   0.00796   0.00000  Uiso   1.00
C93    C     0.55271   0.12315   0.48551   0.00000  Uiso   1.00
C94    C     0.55086   0.10250   0.43839   0.00000  Uiso   1.00
C95    C     0.51674   0.11486   0.41695   0.00000  Uiso   1.00
C96    C     0.53095   0.17981   0.05352   0.00000  Uiso   1.00
C97    C     0.56716   0.11692   0.07017   0.00000  Uiso   1.00
C98    C     0.45491   0.16335   0.41395   0.00000  Uiso   1.00
C99    C     0.54446   0.31120   0.23824   0.00000  Uiso   1.00
C100   C     0.47269   0.16529   0.35295   0.00000  Uiso   1.00
C101   C     0.54286   0.01995   0.24759   0.00000  Uiso   1.00
C102   C     0.49989   0.04238   0.25433   0.00000  Uiso   1.00
C103   C     0.45716   0.02168   0.25965   0.00000  Uiso   1.00
C104   C     0.45902   0.31298   0.24981   0.00000  Uiso   1.00
C105   C     0.50157   0.29069   0.24372   0.00000  Uiso   1.00
C106   C     0.65364   0.13962   0.21622   0.00000  Uiso   1.00
C107   C     0.36728   0.13795   0.21902   0.00000  Uiso   1.00
C108   C     0.34782   0.19624   0.28032   0.00000  Uiso   1.00
C109   C     0.63235   0.19540   0.28144   0.00000  Uiso   1.00
C110   C     0.49980   0.08669   0.25177   0.00000  Uiso   1.00
C111   C     0.52727   0.16635   0.14741   0.00000  Uiso   1.00
C112   C     0.57787   0.10458   0.01522   0.00000  Uiso   1.00
C113   C     0.54550   0.15586   0.08857   0.00000  Uiso   1.00
C114   C     0.41140   0.18244   0.44725   0.00000  Uiso   1.00
C115   C     0.40811   0.20217   0.49685   0.00000  Uiso   1.00
C116   C     0.44652   0.19871   0.01610   0.00000  Uiso   1.00
H117   H     0.59968   0.07682   0.49982   0.00000  Uiso   1.00
N118   N     0.38093   0.16668   0.25002   0.00000  Uiso   1.00
N119   N     0.61906   0.16665   0.25000   0.00000  Uiso   1.00
O120   O     0.46179   0.22775   0.25001   0.00000  Uiso   1.00
O121   O     0.53823   0.22774   0.25000   0.00000  Uiso   1.00
O122   O     0.44280   0.16666   0.32681   0.00000  Uiso   1.00
O123   O     0.51924   0.16665   0.32681   0.00000  Uiso   1.00
O124   O     0.46177   0.10559   0.25000   0.00000  Uiso   1.00
O125   O     0.53821   0.10558   0.24999   0.00000  Uiso   1.00
O126   O     0.48076   0.16668   0.17319   0.00000  Uiso   1.00
O127   O     0.55720   0.16667   0.17319   0.00000  Uiso   1.00
Zn128  Zn    0.44896   0.16667   0.25000   0.00000  Uiso   1.00
Zn129  Zn    0.55104   0.16666   0.25000   0.00000  Uiso   1.00
O130   O     0.57702   0.09117   0.10633   0.00000  Uiso   1.00
C131   C     0.55097   0.05445   0.11088   0.00000  Uiso   1.00
H132   H     0.51135   0.06105   0.12631   0.00000  Uiso   1.00
H133   H     0.55853   0.03494   0.14090   0.00000  Uiso   1.00
H134   H     0.56271   0.03589   0.07145   0.00000  Uiso   1.00
Cl135  Cl    0.59579   0.04146   0.25234   0.00000  Uiso   1.00
O136   O     0.41325   0.04227   0.27215   0.00000  Uiso   1.00
C137   C     0.38999   0.04552   0.33004   0.00000  Uiso   1.00
H138   H     0.41236   0.06206   0.34981   0.00000  Uiso   1.00
H139   H     0.38038   0.01460   0.34774   0.00000  Uiso   1.00
H140   H     0.35607   0.06388   0.33989   0.00000  Uiso   1.00
O141   O     0.41771   0.29383   0.25001   0.00000  Uiso   1.00
C142   C     0.41490   0.29717   0.19739   0.00000  Uiso   1.00
H143   H     0.38307   0.28001   0.19672   0.00000  Uiso   1.00
H144   H     0.44762   0.28340   0.16430   0.00000  Uiso   1.00
H145   H     0.40957   0.32980   0.18858   0.00000  Uiso   1.00
O146   O     0.64136   0.11191   0.18241   0.00000  Uiso   1.00
C147   C     0.66313   0.12314   0.12684   0.00000  Uiso   1.00
H148   H     0.65894   0.09776   0.09975   0.00000  Uiso   1.00
H149   H     0.64613   0.15176   0.11925   0.00000  Uiso   1.00
H150   H     0.36923   0.12670   0.11325   0.00000  Uiso   1.00
Cl151  Cl    0.40819   0.09853   0.18112   0.00000  Uiso   1.00
O152   O     0.36563   0.22970   0.30079   0.00000  Uiso   1.00
C153   C     0.33884   0.24065   0.35658   0.00000  Uiso   1.00
H154   H     0.36460   0.24663   0.37759   0.00000  Uiso   1.00
H155   H     0.64661   0.21677   0.37923   0.00000  Uiso   1.00
H156   H     0.65234   0.27027   0.35913   0.00000  Uiso   1.00
Cl157  Cl    0.58875   0.23241   0.32121   0.00000  Uiso   1.00
Cl158  Cl    0.58750   0.05793   0.40880   0.00000  Uiso   1.00
O159   O     0.52432   0.22186   0.06528   0.00000  Uiso   1.00
C160   C     0.55568   0.24328   0.02020   0.00000  Uiso   1.00
H161   H     0.54396   0.24118   0.48433   0.00000  Uiso   1.00
H162   H     0.59383   0.23201   0.00787   0.00000  Uiso   1.00
H163   H     0.55446   0.27637   0.03284   0.00000  Uiso   1.00
Cl164  Cl    0.35895   0.17378   0.43295   0.00000  Uiso   1.00
O165   O     0.44284   0.22181   0.06294   0.00000  Uiso   1.00
C166   C     0.41724   0.19973   0.11013   0.00000  Uiso   1.00
H167   H     0.43165   0.16765   0.10706   0.00000  Uiso   1.00
H168   H     0.37801   0.20015   0.11812   0.00000  Uiso   1.00
H169   H     0.42168   0.21508   0.14642   0.00000  Uiso   1.00
Cl170  Cl    0.35636   0.23303   0.03384   0.00000  Uiso   1.00
Cl171  Cl    0.50186   0.07877   0.37390   0.00000  Uiso   1.00
O172   O     0.58802   0.29013   0.22669   0.00000  Uiso   1.00
C173   C     0.61097   0.28487   0.16886   0.00000  Uiso   1.00
H174   H     0.62056   0.31510   0.14909   0.00000  Uiso   1.00
H175   H     0.58828   0.26732   0.15041   0.00000  Uiso   1.00
H176   H     0.64504   0.26677   0.15973   0.00000  Uiso   1.00
C177   C     0.83400   0.24653   0.24726   0.00000  Uiso   1.00
C178   C     0.82038   0.17124   0.48750   0.00000  Uiso   1.00
C179   C     0.82050   0.15037   0.43867   0.00000  Uiso   1.00
C180   C     0.85723   0.15961   0.00796   0.00000  Uiso   1.00
C181   C     0.88604   0.12315   0.48551   0.00000  Uiso   1.00
C182   C     0.88420   0.10250   0.43839   0.00000  Uiso   1.00
C183   C     0.85008   0.11486   0.41695   0.00000  Uiso   1.00
C184   C     0.86429   0.17981   0.05352   0.00000  Uiso   1.00
C185   C     0.90049   0.11692   0.07017   0.00000  Uiso   1.00
C186   C     0.78824   0.16335   0.41395   0.00000  Uiso   1.00
C187   C     0.87780   0.31120   0.23824   0.00000  Uiso   1.00
C188   C     0.80602   0.16529   0.35295   0.00000  Uiso   1.00
C189   C     0.87619   0.01995   0.24759   0.00000  Uiso   1.00
C190   C     0.83323   0.04238   0.25433   0.00000  Uiso   1.00
C191   C     0.79050   0.02168   0.25965   0.00000  Uiso   1.00
C192   C     0.79236   0.31298   0.24981   0.00000  Uiso   1.00
C193   C     0.83490   0.29069   0.24372   0.00000  Uiso   1.00
C194   C     0.98698   0.13962   0.21622   0.00000  Uiso   1.00
C195   C     0.70062   0.13795   0.21902   0.00000  Uiso   1.00
C196   C     0.68115   0.19624   0.28032   0.00000  Uiso   1.00
C197   C     0.96568   0.19540   0.28144   0.00000  Uiso   1.00
C198   C     0.83314   0.08669   0.25177   0.00000  Uiso   1.00
C199   C     0.86060   0.16635   0.14741   0.00000  Uiso   1.00
C200   C     0.91121   0.10458   0.01522   0.00000  Uiso   1.00
C201   C     0.87884   0.15586   0.08857   0.00000  Uiso   1.00
C202   C     0.74473   0.18244   0.44725   0.00000  Uiso   1.00
C203   C     0.74144   0.20217   0.49685   0.00000  Uiso   1.00
C204   C     0.77985   0.19871   0.01610   0.00000  Uiso   1.00
H205   H     0.93301   0.07682   0.49982   0.00000  Uiso   1.00
N206   N     0.71426   0.16668   0.25002   0.00000  Uiso   1.00
N207   N     0.95239   0.16665   0.25000   0.00000  Uiso   1.00
O208   O     0.79512   0.22775   0.25001   0.00000  Uiso   1.00
O209   O     0.87157   0.22774   0.25000   0.00000  Uiso   1.00
O210   O     0.77613   0.16666   0.32681   0.00000  Uiso   1.00
O211   O     0.85258   0.16665   0.32681   0.00000  Uiso   1.00
O212   O     0.79510   0.10559   0.25000   0.00000  Uiso   1.00
O213   O     0.87154   0.10558   0.24999   0.00000  Uiso   1.00
O214   O     0.81409   0.16668   0.17319   0.00000  Uiso   1.00
O215   O     0.89053   0.16667   0.17319   0.00000  Uiso   1.00
Zn216  Zn    0.78229   0.16667   0.25000   0.00000  Uiso   1.00
Zn217  Zn    0.88438   0.16666   0.25000   0.00000  Uiso   1.00
O218   O     0.91035   0.09117   0.10633   0.00000  Uiso   1.00
C219   C     0.88430   0.05445   0.11088   0.00000  Uiso   1.00
H220   H     0.84468   0.06105   0.12631   0.00000  Uiso   1.00
H221   H     0.89186   0.03494   0.14090   0.00000  Uiso   1.00
H222   H     0.89604   0.03589   0.07145   0.00000  Uiso   1.00
Cl223  Cl    0.92912   0.04146   0.25234   0.00000  Uiso   1.00
O224   O     0.74659   0.04227   0.27215   0.00000  Uiso   1.00
C225   C     0.72333   0.04552   0.33004   0.00000  Uiso   1.00
H226   H     0.74570   0.06206   0.34981   0.00000  Uiso   1.00
H227   H     0.71371   0.01460   0.34774   0.00000  Uiso   1.00
H228   H     0.68940   0.06388   0.33989   0.00000  Uiso   1.00
O229   O     0.75104   0.29383   0.25001   0.00000  Uiso   1.00
C230   C     0.74824   0.29717   0.19739   0.00000  Uiso   1.00
H231   H     0.71640   0.28001   0.19672   0.00000  Uiso   1.00
H232   H     0.78095   0.28340   0.16430   0.00000  Uiso   1.00
H233   H     0.74290   0.32980   0.18858   0.00000  Uiso   1.00
O234   O     0.97470   0.11191   0.18241   0.00000  Uiso   1.00
C235   C     0.99647   0.12314   0.12684   0.00000  Uiso   1.00
H236   H     0.99227   0.09776   0.09975   0.00000  Uiso   1.00
H237   H     0.97946   0.15176   0.11925   0.00000  Uiso   1.00
H238   H     0.70256   0.12670   0.11325   0.00000  Uiso   1.00
Cl239  Cl    0.74152   0.09853   0.18112   0.00000  Uiso   1.00
O240   O     0.69896   0.22970   0.30079   0.00000  Uiso   1.00
C241   C     0.67217   0.24065   0.35658   0.00000  Uiso   1.00
H242   H     0.69793   0.24663   0.37759   0.00000  Uiso   1.00
H243   H     0.97995   0.21677   0.37923   0.00000  Uiso   1.00
H244   H     0.98567   0.27027   0.35913   0.00000  Uiso   1.00
Cl245  Cl    0.92208   0.23241   0.32121   0.00000  Uiso   1.00
Cl246  Cl    0.92083   0.05793   0.40880   0.00000  Uiso   1.00
O247   O     0.85765   0.22186   0.06528   0.00000  Uiso   1.00
C248   C     0.88901   0.24328   0.02020   0.00000  Uiso   1.00
H249   H     0.87729   0.24118   0.48433   0.00000  Uiso   1.00
H250   H     0.92716   0.23201   0.00787   0.00000  Uiso   1.00
H251   H     0.88779   0.27637   0.03284   0.00000  Uiso   1.00
Cl252  Cl    0.69229   0.17378   0.43295   0.00000  Uiso   1.00
O253   O     0.77617   0.22181   0.06294   0.00000  Uiso   1.00
C254   C     0.75058   0.19973   0.11013   0.00000  Uiso   1.00
H255   H     0.76498   0.16765   0.10706   0.00000  Uiso   1.00
H256   H     0.71134   0.20015   0.11812   0.00000  Uiso   1.00
H257   H     0.75502   0.21508   0.14642   0.00000  Uiso   1.00
Cl258  Cl    0.68970   0.23303   0.03384   0.00000  Uiso   1.00
Cl259  Cl    0.83520   0.07877   0.37390   0.00000  Uiso   1.00
O260   O     0.92135   0.29013   0.22669   0.00000  Uiso   1.00
C261   C     0.94430   0.28487   0.16886   0.00000  Uiso   1.00
H262   H     0.95389   0.31510   0.14909   0.00000  Uiso   1.00
H263   H     0.92161   0.26732   0.15041   0.00000  Uiso   1.00
H264   H     0.97837   0.26677   0.15973   0.00000  Uiso   1.00
C265   C     0.16733   0.57986   0.24726   0.00000  Uiso   1.00
C266   C     0.15371   0.50458   0.48750   0.00000  Uiso   1.00
C267   C     0.15384   0.48370   0.43867   0.00000  Uiso   1.00
C268   C     0.19056   0.49294   0.00796   0.00000  Uiso   1.00
C269   C     0.21938   0.45648   0.48551   0.00000  Uiso   1.00
C270   C     0.21753   0.43583   0.43839   0.00000  Uiso   1.00
C271   C     0.18341   0.44819   0.41695   0.00000  Uiso   1.00
C272   C     0.19762   0.51314   0.05352   0.00000  Uiso   1.00
C273   C     0.23383   0.45025   0.07017   0.00000  Uiso   1.00
C274   C     0.12157   0.49668   0.41395   0.00000  Uiso   1.00
C275   C     0.21113   0.64454   0.23824   0.00000  Uiso   1.00
C276   C     0.13935   0.49862   0.35295   0.00000  Uiso   1.00
C277   C     0.20952   0.35328   0.24759   0.00000  Uiso   1.00
C278   C     0.16656   0.37572   0.25433   0.00000  Uiso   1.00
C279   C     0.12383   0.35501   0.25965   0.00000  Uiso   1.00
C280   C     0.12569   0.64632   0.24981   0.00000  Uiso   1.00
C281   C     0.16824   0.62402   0.24372   0.00000  Uiso   1.00
C282   C     0.32031   0.47296   0.21622   0.00000  Uiso   1.00
C283   C     0.03395   0.47128   0.21902   0.00000  Uiso   1.00
C284   C     0.01448   0.52957   0.28032   0.00000  Uiso   1.00
C285   C     0.29901   0.52874   0.28144   0.00000  Uiso   1.00
C286   C     0.16647   0.42002   0.25177   0.00000  Uiso   1.00
C287   C     0.19393   0.49969   0.14741   0.00000  Uiso   1.00
C288   C     0.24454   0.43792   0.01522   0.00000  Uiso   1.00
C289   C     0.21217   0.48919   0.08857   0.00000  Uiso   1.00
C290   C     0.07806   0.51577   0.44725   0.00000  Uiso   1.00
C291   C     0.07478   0.53551   0.49685   0.00000  Uiso   1.00
C292   C     0.11319   0.53204   0.01610   0.00000  Uiso   1.00
H293   H     0.26634   0.41016   0.49982   0.00000  Uiso   1.00
N294   N     0.04760   0.50001   0.25002   0.00000  Uiso   1.00
N295   N     0.28573   0.49998   0.25000   0.00000  Uiso   1.00
O296   O     0.12846   0.56108   0.25001   0.00000  Uiso   1.00
O297   O     0.20490   0.56107   0.25000   0.00000  Uiso   1.00
O298   O     0.10947   0.50000   0.32681   0.00000  Uiso   1.00
O299   O     0.18591   0.49999   0.32681   0.00000  Uiso   1.00
O300   O     0.12843   0.43893   0.25000   0.00000  Uiso   1.00
O301   O     0.20488   0.43892   0.24999   0.00000  Uiso   1.00
O302   O     0.14742   0.50001   0.17319   0.00000  Uiso   1.00
O303   O     0.22387   0.50000   0.17319   0.00000  Uiso   1.00
Zn304  Zn    0.11562   0.50001   0.25000   0.00000  Uiso   1.00
Zn305  Zn    0.21771   0.49999   0.25000   0.00000  Uiso   1.00
O306   O     0.24369   0.42450   0.10633   0.00000  Uiso   1.00
C307   C     0.21763   0.38778   0.11088   0.00000  Uiso   1.00
H308   H     0.17802   0.39438   0.12631   0.00000  Uiso   1.00
H309   H     0.22519   0.36828   0.14090   0.00000  Uiso   1.00
H310   H     0.22938   0.36922   0.07145   0.00000  Uiso   1.00
Cl311  Cl    0.26245   0.37480   0.25234   0.00000  Uiso   1.00
O312   O     0.07992   0.37560   0.27215   0.00000  Uiso   1.00
C313   C     0.05666   0.37885   0.33004   0.00000  Uiso   1.00
H314   H     0.07903   0.39539   0.34981   0.00000  Uiso   1.00
H315   H     0.04705   0.34793   0.34774   0.00000  Uiso   1.00
H316   H     0.02273   0.39721   0.33989   0.00000  Uiso   1.00
O317   O     0.08437   0.62716   0.25001   0.00000  Uiso   1.00
C318   C     0.08157   0.63051   0.19739   0.00000  Uiso   1.00
H319   H     0.04973   0.61335   0.19672   0.00000  Uiso   1.00
H320   H     0.11428   0.61673   0.16430   0.00000  Uiso   1.00
H321   H     0.07624   0.66313   0.18858   0.00000  Uiso   1.00
O322   O     0.30803   0.44524   0.18241   0.00000  Uiso   1.00
C323   C     0.32980   0.45647   0.12684   0.00000  Uiso   1.00
H324   H     0.32560   0.43110   0.09975   0.00000  Uiso   1.00
H325   H     0.31280   0.48509   0.11925   0.00000  Uiso   1.00
H326   H     0.03589   0.46003   0.11325   0.00000  Uiso   1.00
Cl327  Cl    0.07485   0.43187   0.18112   0.00000  Uiso   1.00
O328   O     0.03229   0.56303   0.30079   0.00000  Uiso   1.00
C329   C     0.00551   0.57399   0.35658   0.00000  Uiso   1.00
H330   H     0.03126   0.57996   0.37759   0.00000  Uiso   1.00
H331   H     0.31328   0.55010   0.37923   0.00000  Uiso   1.00
H332   H     0.31901   0.60361   0.35913   0.00000  Uiso   1.00
Cl333  Cl    0.25541   0.56574   0.32121   0.00000  Uiso   1.00
Cl334  Cl    0.25416   0.39126   0.40880   0.00000  Uiso   1.00
O335   O     0.19099   0.55520   0.06528   0.00000  Uiso   1.00
C336   C     0.22235   0.57661   0.02020   0.00000  Uiso   1.00
H337   H     0.21063   0.57451   0.48433   0.00000  Uiso   1.00
H338   H     0.26050   0.56535   0.00787   0.00000  Uiso   1.00
H339   H     0.22113   0.60970   0.03284   0.00000  Uiso   1.00
Cl340  Cl    0.02562   0.50711   0.43295   0.00000  Uiso   1.00
O341   O     0.10950   0.55515   0.06294   0.00000  Uiso   1.00
C342   C     0.08391   0.53306   0.11013   0.00000  Uiso   1.00
H343   H     0.09831   0.50098   0.10706   0.00000  Uiso   1.00
H344   H     0.04467   0.53348   0.11812   0.00000  Uiso   1.00
H345   H     0.08835   0.54841   0.14642   0.00000  Uiso   1.00
Cl346  Cl    0.02303   0.56636   0.03384   0.00000  Uiso   1.00
Cl347  Cl    0.16853   0.41210   0.37390   0.00000  Uiso   1.00
O348   O     0.25468   0.62346   0.22669   0.00000  Uiso   1.00
C349   C     0.27763   0.61820   0.16886   0.00000  Uiso   1.00
H350   H     0.28722   0.64843   0.14909   0.00000  Uiso   1.00
H351   H     0.25494   0.60065   0.15041   0.00000  Uiso   1.00
H352   H     0.31170   0.60010   0.15973   0.00000  Uiso   1.00
C353   C     0.50066   0.57986   0.24726   0.00000  Uiso   1.00
C354   C     0.48704   0.50458   0.48750   0.00000  Uiso   1.00
C355   C     0.48717   0.48370   0.43867   0.00000  Uiso   1.00
C356   C     0.52390   0.49294   0.00796   0.00000  Uiso   1.00
C357   C     0.55271   0.45648   0.48551   0.00000  Uiso   1.00
C358   C     0.55086   0.43583   0.43839   0.00000  Uiso   1.00
C359   C     0.51674   0.44819   0.41695   0.00000  Uiso   1.00
C360   C     0.53095   0.51314   0.05352   0.00000  Uiso   1.00
C361   C     0.56716   0.45025   0.07017   0.00000  Uiso   1.00
C362   C     0.45491   0.49668   0.41395   0.00000  Uiso   1.00
C363   C     0.54446   0.64454   0.23824   0.00000  Uiso   1.00
C364   C     0.47269   0.49862   0.35295   0.00000  Uiso   1.00
C365   C     0.54286   0.35328   0.24759   0.00000  Uiso   1.00
C366   C     0.49989   0.37572   0.25433   0.00000  Uiso   1.00
C367   C     0.45716   0.35501   0.25965   0.00000  Uiso   1.00
C368   C     0.45902   0.64632   0.24981   0.00000  Uiso   1.00
C369   C     0.50157   0.62402   0.24372   0.00000  Uiso   1.00
C370   C     0.65364   0.47296   0.21622   0.00000  Uiso   1.00
C371   C     0.36728   0.47128   0.21902   0.00000  Uiso   1.00
C372   C     0.34782   0.52957   0.28032   0.00000  Uiso   1.00
C373   C     0.63235   0.52874   0.28144   0.00000  Uiso   1.00
C374   C     0.49980   0.42002   0.25177   0.00000  Uiso   1.00
C375   C     0.52727   0.49969   0.14741   0.00000  Uiso   1.00
C376   C     0.57787   0.43792   0.01522   0.00000  Uiso   1.00
C377   C     0.54550   0.48919   0.08857   0.00000  Uiso   1.00
C378   C     0.41140   0.51577   0.44725   0.00000  Uiso   1.00
C379   C     0.40811   0.53551   0.49685   0.00000  Uiso   1.00
C380   C     0.44652   0.53204   0.01610   0.00000  Uiso   1.00
H381   H     0.59968   0.41016   0.49982   0.00000  Uiso   1.00
N382   N     0.38093   0.50001   0.25002   0.00000  Uiso   1.00
N383   N     0.61906   0.49998   0.25000   0.00000  Uiso   1.00
O384   O     0.46179   0.56108   0.25001   0.00000  Uiso   1.00
O385   O     0.53823   0.56107   0.25000   0.00000  Uiso   1.00
O386   O     0.44280   0.50000   0.32681   0.00000  Uiso   1.00
O387   O     0.51924   0.49999   0.32681   0.00000  Uiso   1.00
O388   O     0.46177   0.43893   0.25000   0.00000  Uiso   1.00
O389   O     0.53821   0.43892   0.24999   0.00000  Uiso   1.00
O390   O     0.48076   0.50001   0.17319   0.00000  Uiso   1.00
O391   O     0.55720   0.50000   0.17319   0.00000  Uiso   1.00
Zn392  Zn    0.44896   0.50001   0.25000   0.00000  Uiso   1.00
Zn393  Zn    0.55104   0.49999   0.25000   0.00000  Uiso   1.00
O394   O     0.57702   0.42450   0.10633   0.00000  Uiso   1.00
C395   C     0.55097   0.38778   0.11088   0.00000  Uiso   1.00
H396   H     0.51135   0.39438   0.12631   0.00000  Uiso   1.00
H397   H     0.55853   0.36828   0.14090   0.00000  Uiso   1.00
H398   H     0.56271   0.36922   0.07145   0.00000  Uiso   1.00
Cl399  Cl    0.59579   0.37480   0.25234   0.00000  Uiso   1.00
O400   O     0.41325   0.37560   0.27215   0.00000  Uiso   1.00
C401   C     0.38999   0.37885   0.33004   0.00000  Uiso   1.00
H402   H     0.41236   0.39539   0.34981   0.00000  Uiso   1.00
H403   H     0.38038   0.34793   0.34774   0.00000  Uiso   1.00
H404   H     0.35607   0.39721   0.33989   0.00000  Uiso   1.00
O405   O     0.41771   0.62716   0.25001   0.00000  Uiso   1.00
C406   C     0.41490   0.63051   0.19739   0.00000  Uiso   1.00
H407   H     0.38307   0.61335   0.19672   0.00000  Uiso   1.00
H408   H     0.44762   0.61673   0.16430   0.00000  Uiso   1.00
H409   H     0.40957   0.66313   0.18858   0.00000  Uiso   1.00
O410   O     0.64136   0.44524   0.18241   0.00000  Uiso   1.00
C411   C     0.66313   0.45647   0.12684   0.00000  Uiso   1.00
H412   H     0.65894   0.43110   0.09975   0.00000  Uiso   1.00
H413   H     0.64613   0.48509   0.11925   0.00000  Uiso   1.00
H414   H     0.36923   0.46003   0.11325   0.00000  Uiso   1.00
Cl415  Cl    0.40819   0.43187   0.18112   0.00000  Uiso   1.00
O416   O     0.36563   0.56303   0.30079   0.00000  Uiso   1.00
C417   C     0.33884   0.57399   0.35658   0.00000  Uiso   1.00
H418   H     0.36460   0.57996   0.37759   0.00000  Uiso   1.00
H419   H     0.64661   0.55010   0.37923   0.00000  Uiso   1.00
H420   H     0.65234   0.60361   0.35913   0.00000  Uiso   1.00
Cl421  Cl    0.58875   0.56574   0.32121   0.00000  Uiso   1.00
Cl422  Cl    0.58750   0.39126   0.40880   0.00000  Uiso   1.00
O423   O     0.52432   0.55520   0.06528   0.00000  Uiso   1.00
C424   C     0.55568   0.57661   0.02020   0.00000  Uiso   1.00
H425   H     0.54396   0.57451   0.48433   0.00000  Uiso   1.00
H426   H     0.59383   0.56535   0.00787   0.00000  Uiso   1.00
H427   H     0.55446   0.60970   0.03284   0.00000  Uiso   1.00
Cl428  Cl    0.35895   0.50711   0.43295   0.00000  Uiso   1.00
O429   O     0.44284   0.55515   0.06294   0.00000  Uiso   1.00
C430   C     0.41724   0.53306   0.11013   0.00000  Uiso   1.00
H431   H     0.43165   0.50098   0.10706   0.00000  Uiso   1.00
H432   H     0.37801   0.53348   0.11812   0.00000  Uiso   1.00
H433   H     0.42168   0.54841   0.14642   0.00000  Uiso   1.00
Cl434  Cl    0.35636   0.56636   0.03384   0.00000  Uiso   1.00
Cl435  Cl    0.50186   0.41210   0.37390   0.00000  Uiso   1.00
O436   O     0.58802   0.62346   0.22669   0.00000  Uiso   1.00
C437   C     0.61097   0.61820   0.16886   0.00000  Uiso   1.00
H438   H     0.62056   0.64843   0.14909   0.00000  Uiso   1.00
H439   H     0.58828   0.60065   0.15041   0.00000  Uiso   1.00
H440   H     0.64504   0.60010   0.15973   0.00000  Uiso   1.00
C441   C     0.83400   0.57986   0.24726   0.00000  Uiso   1.00
C442   C     0.82038   0.50458   0.48750   0.00000  Uiso   1.00
C443   C     0.82050   0.48370   0.43867   0.00000  Uiso   1.00
C444   C     0.85723   0.49294   0.00796   0.00000  Uiso   1.00
C445   C     0.88604   0.45648   0.48551   0.00000  Uiso   1.00
C446   C     0.88420   0.43583   0.43839   0.00000  Uiso   1.00
C447   C     0.85008   0.44819   0.41695   0.00000  Uiso   1.00
C448   C     0.86429   0.51314   0.05352   0.00000  Uiso   1.00
C449   C     0.90049   0.45025   0.07017   0.00000  Uiso   1.00
C450   C     0.78824   0.49668   0.41395   0.00000  Uiso   1.00
C451   C     0.87780   0.64454   0.23824   0.00000  Uiso   1.00
C452   C     0.80602   0.49862   0.35295   0.00000  Uiso   1.00
C453   C     0.87619   0.35328   0.24759   0.00000  Uiso   1.00
C454   C     0.83323   0.37572   0.25433   0.00000  Uiso   1.00
C455   C     0.79050   0.35501   0.25965   0.00000  Uiso   1.00
C456   C     0.79236   0.64632   0.24981   0.00000  Uiso   1.00
C457   C     0.83490   0.62402   0.24372   0.00000  Uiso   1.00
C458   C     0.98698   0.47296   0.21622   0.00000  Uiso   1.00
C459   C     0.70062   0.47128   0.21902   0.00000  Uiso   1.00
C460   C     0.68115   0.52957   0.28032   0.00000  Uiso   1.00
C461   C     0.96568   0.52874   0.28144   0.00000  Uiso   1.00
C462   C     0.83314   0.42002   0.25177   0.00000  Uiso   1.00
C463   C     0.86060   0.49969   0.14741   0.00000  Uiso   1.00
C464   C     0.91121   0.43792   0.01522   0.00000  Uiso   1.00
C465   C     0.87884   0.48919   0.08857   0.00000  Uiso   1.00
C466   C     0.74473   0.51577   0.44725   0.00000  Uiso   1.00
C467   C     0.74144   0.53551   0.49685   0.00000  Uiso   1.00
C468   C     0.77985   0.53204   0.01610   0.00000  Uiso   1.00
H469   H     0.93301   0.41016   0.49982   0.00000  Uiso   1.00
N470   N     0.71426   0.50001   0.25002   0.00000  Uiso   1.00
N471   N     0.95239   0.49998   0.25000   0.00000  Uiso   1.00
O472   O     0.79512   0.56108   0.25001   0.00000  Uiso   1.00
O473   O     0.87157   0.56107   0.25000   0.00000  Uiso   1.00
O474   O     0.77613   0.50000   0.32681   0.00000  Uiso   1.00
O475   O     0.85258   0.49999   0.32681   0.00000  Uiso   1.00
O476   O     0.79510   0.43893   0.25000   0.00000  Uiso   1.00
O477   O     0.87154   0.43892   0.24999   0.00000  Uiso   1.00
O478   O     0.81409   0.50001   0.17319   0.00000  Uiso   1.00
O479   O     0.89053   0.50000   0.17319   0.00000  Uiso   1.00
Zn480  Zn    0.78229   0.50001   0.25000   0.00000  Uiso   1.00
Zn481  Zn    0.88438   0.49999   0.25000   0.00000  Uiso   1.00
O482   O     0.91035   0.42450   0.10633   0.00000  Uiso   1.00
C483   C     0.88430   0.38778   0.11088   0.00000  Uiso   1.00
H484   H     0.84468   0.39438   0.12631   0.00000  Uiso   1.00
H485   H     0.89186   0.36828   0.14090   0.00000  Uiso   1.00
H486   H     0.89604   0.36922   0.07145   0.00000  Uiso   1.00
Cl487  Cl    0.92912   0.37480   0.25234   0.00000  Uiso   1.00
O488   O     0.74659   0.37560   0.27215   0.00000  Uiso   1.00
C489   C     0.72333   0.37885   0.33004   0.00000  Uiso   1.00
H490   H     0.74570   0.39539   0.34981   0.00000  Uiso   1.00
H491   H     0.71371   0.34793   0.34774   0.00000  Uiso   1.00
H492   H     0.68940   0.39721   0.33989   0.00000  Uiso   1.00
O493   O     0.75104   0.62716   0.25001   0.00000  Uiso   1.00
C494   C     0.74824   0.63051   0.19739   0.00000  Uiso   1.00
H495   H     0.71640   0.61335   0.19672   0.00000  Uiso   1.00
H496   H     0.78095   0.61673   0.16430   0.00000  Uiso   1.00
H497   H     0.74290   0.66313   0.18858   0.00000  Uiso   1.00
O498   O     0.97470   0.44524   0.18241   0.00000  Uiso   1.00
C499   C     0.99647   0.45647   0.12684   0.00000  Uiso   1.00
H500   H     0.99227   0.43110   0.09975   0.00000  Uiso   1.00
H501   H     0.97946   0.48509   0.11925   0.00000  Uiso   1.00
H502   H     0.70256   0.46003   0.11325   0.00000  Uiso   1.00
Cl503  Cl    0.74152   0.43187   0.18112   0.00000  Uiso   1.00
O504   O     0.69896   0.56303   0.30079   0.00000  Uiso   1.00
C505   C     0.67217   0.57399   0.35658   0.00000  Uiso   1.00
H506   H     0.69793   0.57996   0.37759   0.00000  Uiso   1.00
H507   H     0.97995   0.55010   0.37923   0.00000  Uiso   1.00
H508   H     0.98567   0.60361   0.35913   0.00000  Uiso   1.00
Cl509  Cl    0.92208   0.56574   0.32121   0.00000  Uiso   1.00
Cl510  Cl    0.92083   0.39126   0.40880   0.00000  Uiso   1.00
O511   O     0.85765   0.55520   0.06528   0.00000  Uiso   1.00
C512   C     0.88901   0.57661   0.02020   0.00000  Uiso   1.00
H513   H     0.87729   0.57451   0.48433   0.00000  Uiso   1.00
H514   H     0.92716   0.56535   0.00787   0.00000  Uiso   1.00
H515   H     0.88779   0.60970   0.03284   0.00000  Uiso   1.00
Cl516  Cl    0.69229   0.50711   0.43295   0.00000  Uiso   1.00
O517   O     0.77617   0.55515   0.06294   0.00000  Uiso   1.00
C518   C     0.75058   0.53306   0.11013   0.00000  Uiso   1.00
H519   H     0.76498   0.50098   0.10706   0.00000  Uiso   1.00
H520   H     0.71134   0.53348   0.11812   0.00000  Uiso   1.00
H521   H     0.75502   0.54841   0.14642   0.00000  Uiso   1.00
Cl522  Cl    0.68970   0.56636   0.03384   0.00000  Uiso   1.00
Cl523  Cl    0.83520   0.41210   0.37390   0.00000  Uiso   1.00
O524   O     0.92135   0.62346   0.22669   0.00000  Uiso   1.00
C525   C     0.94430   0.61820   0.16886   0.00000  Uiso   1.00
H526   H     0.95389   0.64843   0.14909   0.00000  Uiso   1.00
H527   H     0.92161   0.60065   0.15041   0.00000  Uiso   1.00
H528   H     0.97837   0.60010   0.15973   0.00000  Uiso   1.00
C529   C     0.16733   0.91319   0.24726   0.00000  Uiso   1.00
C530   C     0.15371   0.83791   0.48750   0.00000  Uiso   1.00
C531   C     0.15384   0.81704   0.43867   0.00000  Uiso   1.00
C532   C     0.19056   0.82628   0.00796   0.00000  Uiso   1.00
C533   C     0.21938   0.78982   0.48551   0.00000  Uiso   1.00
C534   C     0.21753   0.76917   0.43839   0.00000  Uiso   1.00
C535   C     0.18341   0.78153   0.41695   0.00000  Uiso   1.00
C536   C     0.19762   0.84647   0.05352   0.00000  Uiso   1.00
C537   C     0.23383   0.78359   0.07017   0.00000  Uiso   1.00
C538   C     0.12157   0.83002   0.41395   0.00000  Uiso   1.00
C539   C     0.21113   0.97787   0.23824   0.00000  Uiso   1.00
C540   C     0.13935   0.83195   0.35295   0.00000  Uiso   1.00
C541   C     0.20952   0.68661   0.24759   0.00000  Uiso   1.00
C542   C     0.16656   0.70905   0.25433   0.00000  Uiso   1.00
C543   C     0.12383   0.68835   0.25965   0.00000  Uiso   1.00
C544   C     0.12569   0.97965   0.24981   0.00000  Uiso   1.00
C545   C     0.16824   0.95735   0.24372   0.00000  Uiso   1.00
C546   C     0.32031   0.80629   0.21622   0.00000  Uiso   1.00
C547   C     0.03395   0.80462   0.21902   0.00000  Uiso   1.00
C548   C     0.01448   0.86290   0.28032   0.00000  Uiso   1.00
C549   C     0.29901   0.86207   0.28144   0.00000  Uiso   1.00
C550   C     0.16647   0.75335   0.25177   0.00000  Uiso   1.00
C551   C     0.19393   0.83302   0.14741   0.00000  Uiso   1.00
C552   C     0.24454   0.77125   0.01522   0.00000  Uiso   1.00
C553   C     0.21217   0.82252   0.08857   0.00000  Uiso   1.00
C554   C     0.07806   0.84910   0.44725   0.00000  Uiso   1.00
C555   C     0.07478   0.86884   0.49685   0.00000  Uiso   1.00
C556   C     0.11319   0.86537   0.01610   0.00000  Uiso   1.00
H557   H     0.26634   0.74349   0.49982   0.00000  Uiso   1.00
N558   N     0.04760   0.83334   0.25002   0.00000  Uiso   1.00
N559   N     0.28573   0.83331   0.25000   0.00000  Uiso   1.00
O560   O     0.12846   0.89442   0.25001   0.00000  Uiso   1.00
O561   O     0.20490   0.89441   0.25000   0.00000  Uiso   1.00
O562   O     0.10947   0.83333   0.32681   0.00000  Uiso   1.00
O563   O     0.18591   0.83332   0.32681   0.00000  Uiso   1.00
O564   O     0.12843   0.77226   0.25000   0.00000  Uiso   1.00
O565   O     0.20488   0.77225   0.24999   0.00000  Uiso   1.00
O566   O     0.14742   0.83335   0.17319   0.00000  Uiso   1.00
O567   O     0.22387   0.83334   0.17319   0.00000  Uiso   1.00
Zn568  Zn    0.11562   0.83334   0.25000   0.00000  Uiso   1.00
Zn569  Zn    0.21771   0.83333   0.25000   0.00000  Uiso   1.00
O570   O     0.24369   0.75784   0.10633   0.00000  Uiso   1.00
C571   C     0.21763   0.72112   0.11088   0.00000  Uiso   1.00
H572   H     0.17802   0.72772   0.12631   0.00000  Uiso   1.00
H573   H     0.22519   0.70161   0.14090   0.00000  Uiso   1.00
H574   H     0.22938   0.70256   0.07145   0.00000  Uiso   1.00
Cl575  Cl    0.26245   0.70813   0.25234   0.00000  Uiso   1.00
O576   O     0.07992   0.70894   0.27215   0.00000  Uiso   1.00
C577   C     0.05666   0.71218   0.33004   0.00000  Uiso   1.00
H578   H     0.07903   0.72872   0.34981   0.00000  Uiso   1.00
H579   H     0.04705   0.68126   0.34774   0.00000  Uiso   1.00
H580   H     0.02273   0.73055   0.33989   0.00000  Uiso   1.00
O581   O     0.08437   0.96049   0.25001   0.00000  Uiso   1.00
C582   C     0.08157   0.96384   0.19739   0.00000  Uiso   1.00
H583   H     0.04973   0.94668   0.19672   0.00000  Uiso   1.00
H584   H     0.11428   0.95006   0.16430   0.00000  Uiso   1.00
H585   H     0.07624   0.99646   0.18858   0.00000  Uiso   1.00
O586   O     0.30803   0.77858   0.18241   0.00000  Uiso   1.00
C587   C     0.32980   0.78981   0.12684   0.00000  Uiso   1.00
H588   H     0.32560   0.76443   0.09975   0.00000  Uiso   1.00
H589   H     0.31280   0.81842   0.11925   0.00000  Uiso   1.00
H590   H     0.03589   0.79336   0.11325   0.00000  Uiso   1.00
Cl591  Cl    0.07485   0.76520   0.18112   0.00000  Uiso   1.00
O592   O     0.03229   0.89637   0.30079   0.00000  Uiso   1.00
C593   C     0.00551   0.90732   0.35658   0.00000  Uiso   1.00
H594   H     0.03126   0.91329   0.37759   0.00000  Uiso   1.00
H595   H     0.31328   0.88344   0.37923   0.00000  Uiso   1.00
H596   H     0.31901   0.93694   0.35913   0.00000  Uiso   1.00
Cl597  Cl    0.25541   0.89907   0.32121   0.00000  Uiso   1.00
Cl598  Cl    0.25416   0.72460   0.40880   0.00000  Uiso   1.00
O599   O     0.19099   0.88853   0.06528   0.00000  Uiso   1.00
C600   C     0.22235   0.90994   0.02020   0.00000  Uiso   1.00
H601   H     0.21063   0.90784   0.48433   0.00000  Uiso   1.00
H602   H     0.26050   0.89868   0.00787   0.00000  Uiso   1.00
H603   H     0.22113   0.94303   0.03284   0.00000  Uiso   1.00
Cl604  Cl    0.02562   0.84044   0.43295   0.00000  Uiso   1.00
O605   O     0.10950   0.88848   0.06294   0.00000  Uiso   1.00
C606   C     0.08391   0.86639   0.11013   0.00000  Uiso   1.00
H607   H     0.09831   0.83432   0.10706   0.00000  Uiso   1.00
H608   H     0.04467   0.86681   0.11812   0.00000  Uiso   1.00
H609   H     0.08835   0.88174   0.14642   0.00000  Uiso   1.00
Cl610  Cl    0.02303   0.89970   0.03384   0.00000  Uiso   1.00
Cl611  Cl    0.16853   0.74544   0.37390   0.00000  Uiso   1.00
O612   O     0.25468   0.95680   0.22669   0.00000  Uiso   1.00
C613   C     0.27763   0.95153   0.16886   0.00000  Uiso   1.00
H614   H     0.28722   0.98177   0.14909   0.00000  Uiso   1.00
H615   H     0.25494   0.93399   0.15041   0.00000  Uiso   1.00
H616   H     0.31170   0.93344   0.15973   0.00000  Uiso   1.00
C617   C     0.50066   0.91319   0.24726   0.00000  Uiso   1.00
C618   C     0.48704   0.83791   0.48750   0.00000  Uiso   1.00
C619   C     0.48717   0.81704   0.43867   0.00000  Uiso   1.00
C620   C     0.52390   0.82628   0.00796   0.00000  Uiso   1.00
C621   C     0.55271   0.78982   0.48551   0.00000  Uiso   1.00
C622   C     0.55086   0.76917   0.43839   0.00000  Uiso   1.00
C623   C     0.51674   0.78153   0.41695   0.00000  Uiso   1.00
C624   C     0.53095   0.84647   0.05352   0.00000  Uiso   1.00
C625   C     0.56716   0.78359   0.07017   0.00000  Uiso   1.00
C626   C     0.45491   0.83002   0.41395   0.00000  Uiso   1.00
C627   C     0.54446   0.97787   0.23824   0.00000  Uiso   1.00
C628   C     0.47269   0.83195   0.35295   0.00000  Uiso   1.00
C629   C     0.54286   0.68661   0.24759   0.00000  Uiso   1.00
C630   C     0.49989   0.70905   0.25433   0.00000  Uiso   1.00
C631   C     0.45716   0.68835   0.25965   0.00000  Uiso   1.00
C632   C     0.45902   0.97965   0.24981   0.00000  Uiso   1.00
C633   C     0.50157   0.95735   0.24372   0.00000  Uiso   1.00
C634   C     0.65364   0.80629   0.21622   0.00000  Uiso   1.00
C635   C     0.36728   0.80462   0.21902   0.00000  Uiso   1.00
C636   C     0.34782   0.86290   0.28032   0.00000  Uiso   1.00
C637   C     0.63235   0.86207   0.28144   0.00000  Uiso   1.00
C638   C     0.49980   0.75335   0.25177   0.00000  Uiso   1.00
C639   C     0.52727   0.83302   0.14741   0.00000  Uiso   1.00
C640   C     0.57787   0.77125   0.01522   0.00000  Uiso   1.00
C641   C     0.54550   0.82252   0.08857   0.00000  Uiso   1.00
C642   C     0.41140   0.84910   0.44725   0.00000  Uiso   1.00
C643   C     0.40811   0.86884   0.49685   0.00000  Uiso   1.00
C644   C     0.44652   0.86537   0.01610   0.00000  Uiso   1.00
H645   H     0.59968   0.74349   0.49982   0.00000  Uiso   1.00
N646   N     0.38093   0.83334   0.25002   0.00000  Uiso   1.00
N647   N     0.61906   0.83331   0.25000   0.00000  Uiso   1.00
O648   O     0.46179   0.89442   0.25001   0.00000  Uiso   1.00
O649   O     0.53823   0.89441   0.25000   0.00000  Uiso   1.00
O650   O     0.44280   0.83333   0.32681   0.00000  Uiso   1.00
O651   O     0.51924   0.83332   0.32681   0.00000  Uiso   1.00
O652   O     0.46177   0.77226   0.25000   0.00000  Uiso   1.00
O653   O     0.53821   0.77225   0.24999   0.00000  Uiso   1.00
O654   O     0.48076   0.83335   0.17319   0.00000  Uiso   1.00
O655   O     0.55720   0.83334   0.17319   0.00000  Uiso   1.00
Zn656  Zn    0.44896   0.83334   0.25000   0.00000  Uiso   1.00
Zn657  Zn    0.55104   0.83333   0.25000   0.00000  Uiso   1.00
O658   O     0.57702   0.75784   0.10633   0.00000  Uiso   1.00
C659   C     0.55097   0.72112   0.11088   0.00000  Uiso   1.00
H660   H     0.51135   0.72772   0.12631   0.00000  Uiso   1.00
H661   H     0.55853   0.70161   0.14090   0.00000  Uiso   1.00
H662   H     0.56271   0.70256   0.07145   0.00000  Uiso   1.00
Cl663  Cl    0.59579   0.70813   0.25234   0.00000  Uiso   1.00
O664   O     0.41325   0.70894   0.27215   0.00000  Uiso   1.00
C665   C     0.38999   0.71218   0.33004   0.00000  Uiso   1.00
H666   H     0.41236   0.72872   0.34981   0.00000  Uiso   1.00
H667   H     0.38038   0.68126   0.34774   0.00000  Uiso   1.00
H668   H     0.35607   0.73055   0.33989   0.00000  Uiso   1.00
O669   O     0.41771   0.96049   0.25001   0.00000  Uiso   1.00
C670   C     0.41490   0.96384   0.19739   0.00000  Uiso   1.00
H671   H     0.38307   0.94668   0.19672   0.00000  Uiso   1.00
H672   H     0.44762   0.95006   0.16430   0.00000  Uiso   1.00
H673   H     0.40957   0.99646   0.18858   0.00000  Uiso   1.00
O674   O     0.64136   0.77858   0.18241   0.00000  Uiso   1.00
C675   C     0.66313   0.78981   0.12684   0.00000  Uiso   1.00
H676   H     0.65894   0.76443   0.09975   0.00000  Uiso   1.00
H677   H     0.64613   0.81842   0.11925   0.00000  Uiso   1.00
H678   H     0.36923   0.79336   0.11325   0.00000  Uiso   1.00
Cl679  Cl    0.40819   0.76520   0.18112   0.00000  Uiso   1.00
O680   O     0.36563   0.89637   0.30079   0.00000  Uiso   1.00
C681   C     0.33884   0.90732   0.35658   0.00000  Uiso   1.00
H682   H     0.36460   0.91329   0.37759   0.00000  Uiso   1.00
H683   H     0.64661   0.88344   0.37923   0.00000  Uiso   1.00
H684   H     0.65234   0.93694   0.35913   0.00000  Uiso   1.00
Cl685  Cl    0.58875   0.89907   0.32121   0.00000  Uiso   1.00
Cl686  Cl    0.58750   0.72460   0.40880   0.00000  Uiso   1.00
O687   O     0.52432   0.88853   0.06528   0.00000  Uiso   1.00
C688   C     0.55568   0.90994   0.02020   0.00000  Uiso   1.00
H689   H     0.54396   0.90784   0.48433   0.00000  Uiso   1.00
H690   H     0.59383   0.89868   0.00787   0.00000  Uiso   1.00
H691   H     0.55446   0.94303   0.03284   0.00000  Uiso   1.00
Cl692  Cl    0.35895   0.84044   0.43295   0.00000  Uiso   1.00
O693   O     0.44284   0.88848   0.06294   0.00000  Uiso   1.00
C694   C     0.41724   0.86639   0.11013   0.00000  Uiso   1.00
H695   H     0.43165   0.83432   0.10706   0.00000  Uiso   1.00
H696   H     0.37801   0.86681   0.11812   0.00000  Uiso   1.00
H697   H     0.42168   0.88174   0.14642   0.00000  Uiso   1.00
Cl698  Cl    0.35636   0.89970   0.03384   0.00000  Uiso   1.00
Cl699  Cl    0.50186   0.74544   0.37390   0.00000  Uiso   1.00
O700   O     0.58802   0.95680   0.22669   0.00000  Uiso   1.00
C701   C     0.61097   0.95153   0.16886   0.00000  Uiso   1.00
H702   H     0.62056   0.98177   0.14909   0.00000  Uiso   1.00
H703   H     0.58828   0.93399   0.15041   0.00000  Uiso   1.00
H704   H     0.64504   0.93344   0.15973   0.00000  Uiso   1.00
C705   C     0.83400   0.91319   0.24726   0.00000  Uiso   1.00
C706   C     0.82038   0.83791   0.48750   0.00000  Uiso   1.00
C707   C     0.82050   0.81704   0.43867   0.00000  Uiso   1.00
C708   C     0.85723   0.82628   0.00796   0.00000  Uiso   1.00
C709   C     0.88604   0.78982   0.48551   0.00000  Uiso   1.00
C710   C     0.88420   0.76917   0.43839   0.00000  Uiso   1.00
C711   C     0.85008   0.78153   0.41695   0.00000  Uiso   1.00
C712   C     0.86429   0.84647   0.05352   0.00000  Uiso   1.00
C713   C     0.90049   0.78359   0.07017   0.00000  Uiso   1.00
C714   C     0.78824   0.83002   0.41395   0.00000  Uiso   1.00
C715   C     0.87780   0.97787   0.23824   0.00000  Uiso   1.00
C716   C     0.80602   0.83195   0.35295   0.00000  Uiso   1.00
C717   C     0.87619   0.68661   0.24759   0.00000  Uiso   1.00
C718   C     0.83323   0.70905   0.25433   0.00000  Uiso   1.00
C719   C     0.79050   0.68835   0.25965   0.00000  Uiso   1.00
C720   C     0.79236   0.97965   0.24981   0.00000  Uiso   1.00
C721   C     0.83490   0.95735   0.24372   0.00000  Uiso   1.00
C722   C     0.98698   0.80629   0.21622   0.00000  Uiso   1.00
C723   C     0.70062   0.80462   0.21902   0.00000  Uiso   1.00
C724   C     0.68115   0.86290   0.28032   0.00000  Uiso   1.00
C725   C     0.96568   0.86207   0.28144   0.00000  Uiso   1.00
C726   C     0.83314   0.75335   0.25177   0.00000  Uiso   1.00
C727   C     0.86060   0.83302   0.14741   0.00000  Uiso   1.00
C728   C     0.91121   0.77125   0.01522   0.00000  Uiso   1.00
C729   C     0.87884   0.82252   0.08857   0.00000  Uiso   1.00
C730   C     0.74473   0.84910   0.44725   0.00000  Uiso   1.00
C731   C     0.74144   0.86884   0.49685   0.00000  Uiso   1.00
C732   C     0.77985   0.86537   0.01610   0.00000  Uiso   1.00
H733   H     0.93301   0.74349   0.49982   0.00000  Uiso   1.00
N734   N     0.71426   0.83334   0.25002   0.00000  Uiso   1.00
N735   N     0.95239   0.83331   0.25000   0.00000  Uiso   1.00
O736   O     0.79512   0.89442   0.25001   0.00000  Uiso   1.00
O737   O     0.87157   0.89441   0.25000   0.00000  Uiso   1.00
O738   O     0.77613   0.83333   0.32681   0.00000  Uiso   1.00
O739   O     0.85258   0.83332   0.32681   0.00000  Uiso   1.00
O740   O     0.79510   0.77226   0.25000   0.00000  Uiso   1.00
O741   O     0.87154   0.77225   0.24999   0.00000  Uiso   1.00
O742   O     0.81409   0.83335   0.17319   0.00000  Uiso   1.00
O743   O     0.89053   0.83334   0.17319   0.00000  Uiso   1.00
Zn744  Zn    0.78229   0.83334   0.25000   0.00000  Uiso   1.00
Zn745  Zn    0.88438   0.83333   0.25000   0.00000  Uiso   1.00
O746   O     0.91035   0.75784   0.10633   0.00000  Uiso   1.00
C747   C     0.88430   0.72112   0.11088   0.00000  Uiso   1.00
H748   H     0.84468   0.72772   0.12631   0.00000  Uiso   1.00
H749   H     0.89186   0.70161   0.14090   0.00000  Uiso   1.00
H750   H     0.89604   0.70256   0.07145   0.00000  Uiso   1.00
Cl751  Cl    0.92912   0.70813   0.25234   0.00000  Uiso   1.00
O752   O     0.74659   0.70894   0.27215   0.00000  Uiso   1.00
C753   C     0.72333   0.71218   0.33004   0.00000  Uiso   1.00
H754   H     0.74570   0.72872   0.34981   0.00000  Uiso   1.00
H755   H     0.71371   0.68126   0.34774   0.00000  Uiso   1.00
H756   H     0.68940   0.73055   0.33989   0.00000  Uiso   1.00
O757   O     0.75104   0.96049   0.25001   0.00000  Uiso   1.00
C758   C     0.74824   0.96384   0.19739   0.00000  Uiso   1.00
H759   H     0.71640   0.94668   0.19672   0.00000  Uiso   1.00
H760   H     0.78095   0.95006   0.16430   0.00000  Uiso   1.00
H761   H     0.74290   0.99646   0.18858   0.00000  Uiso   1.00
O762   O     0.97470   0.77858   0.18241   0.00000  Uiso   1.00
C763   C     0.99647   0.78981   0.12684   0.00000  Uiso   1.00
H764   H     0.99227   0.76443   0.09975   0.00000  Uiso   1.00
H765   H     0.97946   0.81842   0.11925   0.00000  Uiso   1.00
H766   H     0.70256   0.79336   0.11325   0.00000  Uiso   1.00
Cl767  Cl    0.74152   0.76520   0.18112   0.00000  Uiso   1.00
O768   O     0.69896   0.89637   0.30079   0.00000  Uiso   1.00
C769   C     0.67217   0.90732   0.35658   0.00000  Uiso   1.00
H770   H     0.69793   0.91329   0.37759   0.00000  Uiso   1.00
H771   H     0.97995   0.88344   0.37923   0.00000  Uiso   1.00
H772   H     0.98567   0.93694   0.35913   0.00000  Uiso   1.00
Cl773  Cl    0.92208   0.89907   0.32121   0.00000  Uiso   1.00
Cl774  Cl    0.92083   0.72460   0.40880   0.00000  Uiso   1.00
O775   O     0.85765   0.88853   0.06528   0.00000  Uiso   1.00
C776   C     0.88901   0.90994   0.02020   0.00000  Uiso   1.00
H777   H     0.87729   0.90784   0.48433   0.00000  Uiso   1.00
H778   H     0.92716   0.89868   0.00787   0.00000  Uiso   1.00
H779   H     0.88779   0.94303   0.03284   0.00000  Uiso   1.00
Cl780  Cl    0.69229   0.84044   0.43295   0.00000  Uiso   1.00
O781   O     0.77617   0.88848   0.06294   0.00000  Uiso   1.00
C782   C     0.75058   0.86639   0.11013   0.00000  Uiso   1.00
H783   H     0.76498   0.83432   0.10706   0.00000  Uiso   1.00
H784   H     0.71134   0.86681   0.11812   0.00000  Uiso   1.00
H785   H     0.75502   0.88174   0.14642   0.00000  Uiso   1.00
Cl786  Cl    0.68970   0.89970   0.03384   0.00000  Uiso   1.00
Cl787  Cl    0.83520   0.74544   0.37390   0.00000  Uiso   1.00
O788   O     0.92135   0.95680   0.22669   0.00000  Uiso   1.00
C789   C     0.94430   0.95153   0.16886   0.00000  Uiso   1.00
H790   H     0.95389   0.98177   0.14909   0.00000  Uiso   1.00
H791   H     0.92161   0.93399   0.15041   0.00000  Uiso   1.00
H792   H     0.97837   0.93344   0.15973   0.00000  Uiso   1.00
C793   C     0.16733   0.24653   0.74726   0.00000  Uiso   1.00
C794   C     0.15371   0.17124   0.98750   0.00000  Uiso   1.00
C795   C     0.15384   0.15037   0.93867   0.00000  Uiso   1.00
C796   C     0.19056   0.15961   0.50796   0.00000  Uiso   1.00
C797   C     0.21938   0.12315   0.98551   0.00000  Uiso   1.00
C798   C     0.21753   0.10250   0.93839   0.00000  Uiso   1.00
C799   C     0.18341   0.11486   0.91695   0.00000  Uiso   1.00
C800   C     0.19762   0.17981   0.55352   0.00000  Uiso   1.00
C801   C     0.23383   0.11692   0.57017   0.00000  Uiso   1.00
C802   C     0.12157   0.16335   0.91395   0.00000  Uiso   1.00
C803   C     0.21113   0.31120   0.73824   0.00000  Uiso   1.00
C804   C     0.13935   0.16529   0.85295   0.00000  Uiso   1.00
C805   C     0.20952   0.01995   0.74759   0.00000  Uiso   1.00
C806   C     0.16656   0.04238   0.75433   0.00000  Uiso   1.00
C807   C     0.12383   0.02168   0.75965   0.00000  Uiso   1.00
C808   C     0.12569   0.31298   0.74981   0.00000  Uiso   1.00
C809   C     0.16824   0.29069   0.74372   0.00000  Uiso   1.00
C810   C     0.32031   0.13962   0.71622   0.00000  Uiso   1.00
C811   C     0.03395   0.13795   0.71902   0.00000  Uiso   1.00
C812   C     0.01448   0.19624   0.78032   0.00000  Uiso   1.00
C813   C     0.29901   0.19540   0.78144   0.00000  Uiso   1.00
C814   C     0.16647   0.08669   0.75177   0.00000  Uiso   1.00
C815   C     0.19393   0.16635   0.64741   0.00000  Uiso   1.00
C816   C     0.24454   0.10458   0.51522   0.00000  Uiso   1.00
C817   C     0.21217   0.15586   0.58857   0.00000  Uiso   1.00
C818   C     0.07806   0.18244   0.94725   0.00000  Uiso   1.00
C819   C     0.07478   0.20217   0.99685   0.00000  Uiso   1.00
C820   C     0.11319   0.19871   0.51610   0.00000  Uiso   1.00
H821   H     0.26634   0.07682   0.99982   0.00000  Uiso   1.00
N822   N     0.04760   0.16668   0.75002   0.00000  Uiso   1.00
N823   N     0.28573   0.16665   0.75000   0.00000  Uiso   1.00
O824   O     0.12846   0.22775   0.75001   0.00000  Uiso   1.00
O825   O     0.20490   0.22774   0.75000   0.00000  Uiso   1.00
O826   O     0.10947   0.16666   0.82681   0.00000  Uiso   1.00
O827   O     0.18591   0.16665   0.82681   0.00000  Uiso   1.00
O828   O     0.12843   0.10559   0.75000   0.00000  Uiso   1.00
O829   O     0.20488   0.10558   0.74999   0.00000  Uiso   1.00
O830   O     0.14742   0.16668   0.67319   0.00000  Uiso   1.00
O831   O     0.22387   0.16667   0.67319   0.00000  Uiso   1.00
Zn832  Zn    0.11562   0.16667   0.75000   0.00000  Uiso   1.00
Zn833  Zn    0.21771   0.16666   0.75000   0.00000  Uiso   1.00
O834   O     0.24369   0.09117   0.60633   0.00000  Uiso   1.00
C835   C     0.21763   0.05445   0.61088   0.00000  Uiso   1.00
H836   H     0.17802   0.06105   0.62631   0.00000  Uiso   1.00
H837   H     0.22519   0.03494   0.64090   0.00000  Uiso   1.00
H838   H     0.22938   0.03589   0.57145   0.00000  Uiso   1.00
Cl839  Cl    0.26245   0.04146   0.75234   0.00000  Uiso   1.00
O840   O     0.07992   0.04227   0.77215   0.00000  Uiso   1.00
C841   C     0.05666   0.04552   0.83004   0.00000  Uiso   1.00
H842   H     0.07903   0.06206   0.84981   0.00000  Uiso   1.00
H843   H     0.04705   0.01460   0.84774   0.00000  Uiso   1.00
H844   H     0.02273   0.06388   0.83989   0.00000  Uiso   1.00
O845   O     0.08437   0.29383   0.75001   0.00000  Uiso   1.00
C846   C     0.08157   0.29717   0.69739   0.00000  Uiso   1.00
H847   H     0.04973   0.28001   0.69672   0.00000  Uiso   1.00
H848   H     0.11428   0.28340   0.66430   0.00000  Uiso   1.00
H849   H     0.07624   0.32980   0.68858   0.00000  Uiso   1.00
O850   O     0.30803   0.11191   0.68241   0.00000  Uiso   1.00
C851   C     0.32980   0.12314   0.62684   0.00000  Uiso   1.00
H852   H     0.32560   0.09776   0.59975   0.00000  Uiso   1.00
H853   H     0.31280   0.15176   0.61925   0.00000  Uiso   1.00
H854   H     0.03589   0.12670   0.61325   0.00000  Uiso   1.00
Cl855  Cl    0.07485   0.09853   0.68112   0.00000  Uiso   1.00
O856   O     0.03229   0.22970   0.80079   0.00000  Uiso   1.00
C857   C     0.00551   0.24065   0.85658   0.00000  Uiso   1.00
H858   H     0.03126   0.24663   0.87759   0.00000  Uiso   1.00
H859   H     0.31328   0.21677   0.87923   0.00000  Uiso   1.00
H860   H     0.31901   0.27027   0.85913   0.00000  Uiso   1.00
Cl861  Cl    0.25541   0.23241   0.82121   0.00000  Uiso   1.00
Cl862  Cl    0.25416   0.05793   0.90880   0.00000  Uiso   1.00
O863   O     0.19099   0.22186   0.56528   0.00000  Uiso   1.00
C864   C     0.22235   0.24328   0.52020   0.00000  Uiso   1.00
H865   H     0.21063   0.24118   0.98433   0.00000  Uiso   1.00
H866   H     0.26050   0.23201   0.50787   0.00000  Uiso   1.00
H867   H     0.22113   0.27637   0.53284   0.00000  Uiso   1.00
Cl868  Cl    0.02562   0.17378   0.93295   0.00000  Uiso   1.00
O869   O     0.10950   0.22181   0.56294   0.00000  Uiso   1.00
C870   C     0.08391   0.19973   0.61013   0.00000  Uiso   1.00
H871   H     0.09831   0.16765   0.60706   0.00000  Uiso   1.00
H872   H     0.04467   0.20015   0.61812   0.00000  Uiso   1.00
H873   H     0.08835   0.21508   0.64642   0.00000  Uiso   1.00
Cl874  Cl    0.02303   0.23303   0.53384   0.00000  Uiso   1.00
Cl875  Cl    0.16853   0.07877   0.87390   0.00000  Uiso   1.00
O876   O     0.25468   0.29013   0.72669   0.00000  Uiso   1.00
C877   C     0.27763   0.28487   0.66886   0.00000  Uiso   1.00
H878   H     0.28722   0.31510   0.64909   0.00000  Uiso   1.00
H879   H     0.25494   0.26732   0.65041   0.00000  Uiso   1.00
H880   H     0.31170   0.26677   0.65973   0.00000  Uiso   1.00
C881   C     0.50066   0.24653   0.74726   0.00000  Uiso   1.00
C882   C     0.48704   0.17124   0.98750   0.00000  Uiso   1.00
C883   C     0.48717   0.15037   0.93867   0.00000  Uiso   1.00
C884   C     0.52390   0.15961   0.50796   0.00000  Uiso   1.00
C885   C     0.55271   0.12315   0.98551   0.00000  Uiso   1.00
C886   C     0.55086   0.10250   0.93839   0.00000  Uiso   1.00
C887   C     0.51674   0.11486   0.91695   0.00000  Uiso   1.00
C888   C     0.53095   0.17981   0.55352   0.00000  Uiso   1.00
C889   C     0.56716   0.11692   0.57017   0.00000  Uiso   1.00
C890   C     0.45491   0.16335   0.91395   0.00000  Uiso   1.00
C891   C     0.54446   0.31120   0.73824   0.00000  Uiso   1.00
C892   C     0.47269   0.16529   0.85295   0.00000  Uiso   1.00
C893   C     0.54286   0.01995   0.74759   0.00000  Uiso   1.00
C894   C     0.49989   0.04238   0.75433   0.00000  Uiso   1.00
C895   C     0.45716   0.02168   0.75965   0.00000  Uiso   1.00
C896   C     0.45902   0.31298   0.74981   0.00000  Uiso   1.00
C897   C     0.50157   0.29069   0.74372   0.00000  Uiso   1.00
C898   C     0.65364   0.13962   0.71622   0.00000  Uiso   1.00
C899   C     0.36728   0.13795   0.71902   0.00000  Uiso   1.00
C900   C     0.34782   0.19624   0.78032   0.00000  Uiso   1.00
C901   C     0.63235   0.19540   0.78144   0.00000  Uiso   1.00
C902   C     0.49980   0.08669   0.75177   0.00000  Uiso   1.00
C903   C     0.52727   0.16635   0.64741   0.00000  Uiso   1.00
C904   C     0.57787   0.10458   0.51522   0.00000  Uiso   1.00
C905   C     0.54550   0.15586   0.58857   0.00000  Uiso   1.00
C906   C     0.41140   0.18244   0.94725   0.00000  Uiso   1.00
C907   C     0.40811   0.20217   0.99685   0.00000  Uiso   1.00
C908   C     0.44652   0.19871   0.51610   0.00000  Uiso   1.00
H909   H     0.59968   0.07682   0.99982   0.00000  Uiso   1.00
N910   N     0.38093   0.16668   0.75002   0.00000  Uiso   1.00
N911   N     0.61906   0.16665   0.75000   0.00000  Uiso   1.00
O912   O     0.46179   0.22775   0.75001   0.00000  Uiso   1.00
O913   O     0.53823   0.22774   0.75000   0.00000  Uiso   1.00
O914   O     0.44280   0.16666   0.82681   0.00000  Uiso   1.00
O915   O     0.51924   0.16665   0.82681   0.00000  Uiso   1.00
O916   O     0.46177   0.10559   0.75000   0.00000  Uiso   1.00
O917   O     0.53821   0.10558   0.74999   0.00000  Uiso   1.00
O918   O     0.48076   0.16668   0.67319   0.00000  Uiso   1.00
O919   O     0.55720   0.16667   0.67319   0.00000  Uiso   1.00
Zn920  Zn    0.44896   0.16667   0.75000   0.00000  Uiso   1.00
Zn921  Zn    0.55104   0.16666   0.75000   0.00000  Uiso   1.00
O922   O     0.57702   0.09117   0.60633   0.00000  Uiso   1.00
C923   C     0.55097   0.05445   0.61088   0.00000  Uiso   1.00
H924   H     0.51135   0.06105   0.62631   0.00000  Uiso   1.00
H925   H     0.55853   0.03494   0.64090   0.00000  Uiso   1.00
H926   H     0.56271   0.03589   0.57145   0.00000  Uiso   1.00
Cl927  Cl    0.59579   0.04146   0.75234   0.00000  Uiso   1.00
O928   O     0.41325   0.04227   0.77215   0.00000  Uiso   1.00
C929   C     0.38999   0.04552   0.83004   0.00000  Uiso   1.00
H930   H     0.41236   0.06206   0.84981   0.00000  Uiso   1.00
H931   H     0.38038   0.01460   0.84774   0.00000  Uiso   1.00
H932   H     0.35607   0.06388   0.83989   0.00000  Uiso   1.00
O933   O     0.41771   0.29383   0.75001   0.00000  Uiso   1.00
C934   C     0.41490   0.29717   0.69739   0.00000  Uiso   1.00
H935   H     0.38307   0.28001   0.69672   0.00000  Uiso   1.00
H936   H     0.44762   0.28340   0.66430   0.00000  Uiso   1.00
H937   H     0.40957   0.32980   0.68858   0.00000  Uiso   1.00
O938   O     0.64136   0.11191   0.68241   0.00000  Uiso   1.00
C939   C     0.66313   0.12314   0.62684   0.00000  Uiso   1.00
H940   H     0.65894   0.09776   0.59975   0.00000  Uiso   1.00
H941   H     0.64613   0.15176   0.61925   0.00000  Uiso   1.00
H942   H     0.36923   0.12670   0.61325   0.00000  Uiso   1.00
Cl943  Cl    0.40819   0.09853   0.68112   0.00000  Uiso   1.00
O944   O     0.36563   0.22970   0.80079   0.00000  Uiso   1.00
C945   C     0.33884   0.24065   0.85658   0.00000  Uiso   1.00
H946   H     0.36460   0.24663   0.87759   0.00000  Uiso   1.00
H947   H     0.64661   0.21677   0.87923   0.00000  Uiso   1.00
H948   H     0.65234   0.27027   0.85913   0.00000  Uiso   1.00
Cl949  Cl    0.58875   0.23241   0.82121   0.00000  Uiso   1.00
Cl950  Cl    0.58750   0.05793   0.90880   0.00000  Uiso   1.00
O951   O     0.52432   0.22186   0.56528   0.00000  Uiso   1.00
C952   C     0.55568   0.24328   0.52020   0.00000  Uiso   1.00
H953   H     0.54396   0.24118   0.98433   0.00000  Uiso   1.00
H954   H     0.59383   0.23201   0.50787   0.00000  Uiso   1.00
H955   H     0.55446   0.27637   0.53284   0.00000  Uiso   1.00
Cl956  Cl    0.35895   0.17378   0.93295   0.00000  Uiso   1.00
O957   O     0.44284   0.22181   0.56294   0.00000  Uiso   1.00
C958   C     0.41724   0.19973   0.61013   0.00000  Uiso   1.00
H959   H     0.43165   0.16765   0.60706   0.00000  Uiso   1.00
H960   H     0.37801   0.20015   0.61812   0.00000  Uiso   1.00
H961   H     0.42168   0.21508   0.64642   0.00000  Uiso   1.00
Cl962  Cl    0.35636   0.23303   0.53384   0.00000  Uiso   1.00
Cl963  Cl    0.50186   0.07877   0.87390   0.00000  Uiso   1.00
O964   O     0.58802   0.29013   0.72669   0.00000  Uiso   1.00
C965   C     0.61097   0.28487   0.66886   0.00000  Uiso   1.00
H966   H     0.62056   0.31510   0.64909   0.00000  Uiso   1.00
H967   H     0.58828   0.26732   0.65041   0.00000  Uiso   1.00
H968   H     0.64504   0.26677   0.65973   0.00000  Uiso   1.00
C969   C     0.83400   0.24653   0.74726   0.00000  Uiso   1.00
C970   C     0.82038   0.17124   0.98750   0.00000  Uiso   1.00
C971   C     0.82050   0.15037   0.93867   0.00000  Uiso   1.00
C972   C     0.85723   0.15961   0.50796   0.00000  Uiso   1.00
C973   C     0.88604   0.12315   0.98551   0.00000  Uiso   1.00
C974   C     0.88420   0.10250   0.93839   0.00000  Uiso   1.00
C975   C     0.85008   0.11486   0.91695   0.00000  Uiso   1.00
C976   C     0.86429   0.17981   0.55352   0.00000  Uiso   1.00
C977   C     0.90049   0.11692   0.57017   0.00000  Uiso   1.00
C978   C     0.78824   0.16335   0.91395   0.00000  Uiso   1.00
C979   C     0.87780   0.31120   0.73824   0.00000  Uiso   1.00
C980   C     0.80602   0.16529   0.85295   0.00000  Uiso   1.00
C981   C     0.87619   0.01995   0.74759   0.00000  Uiso   1.00
C982   C     0.83323   0.04238   0.75433   0.00000  Uiso   1.00
C983   C     0.79050   0.02168   0.75965   0.00000  Uiso   1.00
C984   C     0.79236   0.31298   0.74981   0.00000  Uiso   1.00
C985   C     0.83490   0.29069   0.74372   0.00000  Uiso   1.00
C986   C     0.98698   0.13962   0.71622   0.00000  Uiso   1.00
C987   C     0.70062   0.13795   0.71902   0.00000  Uiso   1.00
C988   C     0.68115   0.19624   0.78032   0.00000  Uiso   1.00
C989   C     0.96568   0.19540   0.78144   0.00000  Uiso   1.00
C990   C     0.83314   0.08669   0.75177   0.00000  Uiso   1.00
C991   C     0.86060   0.16635   0.64741   0.00000  Uiso   1.00
C992   C     0.91121   0.10458   0.51522   0.00000  Uiso   1.00
C993   C     0.87884   0.15586   0.58857   0.00000  Uiso   1.00
C994   C     0.74473   0.18244   0.94725   0.00000  Uiso   1.00
C995   C     0.74144   0.20217   0.99685   0.00000  Uiso   1.00
C996   C     0.77985   0.19871   0.51610   0.00000  Uiso   1.00
H997   H     0.93301   0.07682   0.99982   0.00000  Uiso   1.00
N998   N     0.71426   0.16668   0.75002   0.00000  Uiso   1.00
N999   N     0.95239   0.16665   0.75000   0.00000  Uiso   1.00
O1000  O     0.79512   0.22775   0.75001   0.00000  Uiso   1.00
O1001  O     0.87157   0.22774   0.75000   0.00000  Uiso   1.00
O1002  O     0.77613   0.16666   0.82681   0.00000  Uiso   1.00
O1003  O     0.85258   0.16665   0.82681   0.00000  Uiso   1.00
O1004  O     0.79510   0.10559   0.75000   0.00000  Uiso   1.00
O1005  O     0.87154   0.10558   0.74999   0.00000  Uiso   1.00
O1006  O     0.81409   0.16668   0.67319   0.00000  Uiso   1.00
O1007  O     0.89053   0.16667   0.67319   0.00000  Uiso   1.00
Zn1008 Zn    0.78229   0.16667   0.75000   0.00000  Uiso   1.00
Zn1009 Zn    0.88438   0.16666   0.75000   0.00000  Uiso   1.00
O1010  O     0.91035   0.09117   0.60633   0.00000  Uiso   1.00
C1011  C     0.88430   0.05445   0.61088   0.00000  Uiso   1.00
H1012  H     0.84468   0.06105   0.62631   0.00000  Uiso   1.00
H1013  H     0.89186   0.03494   0.64090   0.00000  Uiso   1.00
H1014  H     0.89604   0.03589   0.57145   0.00000  Uiso   1.00
Cl1015 Cl    0.92912   0.04146   0.75234   0.00000  Uiso   1.00
O1016  O     0.74659   0.04227   0.77215   0.00000  Uiso   1.00
C1017  C     0.72333   0.04552   0.83004   0.00000  Uiso   1.00
H1018  H     0.74570   0.06206   0.84981   0.00000  Uiso   1.00
H1019  H     0.71371   0.01460   0.84774   0.00000  Uiso   1.00
H1020  H     0.68940   0.06388   0.83989   0.00000  Uiso   1.00
O1021  O     0.75104   0.29383   0.75001   0.00000  Uiso   1.00
C1022  C     0.74824   0.29717   0.69739   0.00000  Uiso   1.00
H1023  H     0.71640   0.28001   0.69672   0.00000  Uiso   1.00
H1024  H     0.78095   0.28340   0.66430   0.00000  Uiso   1.00
H1025  H     0.74290   0.32980   0.68858   0.00000  Uiso   1.00
O1026  O     0.97470   0.11191   0.68241   0.00000  Uiso   1.00
C1027  C     0.99647   0.12314   0.62684   0.00000  Uiso   1.00
H1028  H     0.99227   0.09776   0.59975   0.00000  Uiso   1.00
H1029  H     0.97946   0.15176   0.61925   0.00000  Uiso   1.00
H1030  H     0.70256   0.12670   0.61325   0.00000  Uiso   1.00
Cl1031 Cl    0.74152   0.09853   0.68112   0.00000  Uiso   1.00
O1032  O     0.69896   0.22970   0.80079   0.00000  Uiso   1.00
C1033  C     0.67217   0.24065   0.85658   0.00000  Uiso   1.00
H1034  H     0.69793   0.24663   0.87759   0.00000  Uiso   1.00
H1035  H     0.97995   0.21677   0.87923   0.00000  Uiso   1.00
H1036  H     0.98567   0.27027   0.85913   0.00000  Uiso   1.00
Cl1037 Cl    0.92208   0.23241   0.82121   0.00000  Uiso   1.00
Cl1038 Cl    0.92083   0.05793   0.90880   0.00000  Uiso   1.00
O1039  O     0.85765   0.22186   0.56528   0.00000  Uiso   1.00
C1040  C     0.88901   0.24328   0.52020   0.00000  Uiso   1.00
H1041  H     0.87729   0.24118   0.98433   0.00000  Uiso   1.00
H1042  H     0.92716   0.23201   0.50787   0.00000  Uiso   1.00
H1043  H     0.88779   0.27637   0.53284   0.00000  Uiso   1.00
Cl1044 Cl    0.69229   0.17378   0.93295   0.00000  Uiso   1.00
O1045  O     0.77617   0.22181   0.56294   0.00000  Uiso   1.00
C1046  C     0.75058   0.19973   0.61013   0.00000  Uiso   1.00
H1047  H     0.76498   0.16765   0.60706   0.00000  Uiso   1.00
H1048  H     0.71134   0.20015   0.61812   0.00000  Uiso   1.00
H1049  H     0.75502   0.21508   0.64642   0.00000  Uiso   1.00
Cl1050 Cl    0.68970   0.23303   0.53384   0.00000  Uiso   1.00
Cl1051 Cl    0.83520   0.07877   0.87390   0.00000  Uiso   1.00
O1052  O     0.92135   0.29013   0.72669   0.00000  Uiso   1.00
C1053  C     0.94430   0.28487   0.66886   0.00000  Uiso   1.00
H1054  H     0.95389   0.31510   0.64909   0.00000  Uiso   1.00
H1055  H     0.92161   0.26732   0.65041   0.00000  Uiso   1.00
H1056  H     0.97837   0.26677   0.65973   0.00000  Uiso   1.00
C1057  C     0.16733   0.57986   0.74726   0.00000  Uiso   1.00
C1058  C     0.15371   0.50458   0.98750   0.00000  Uiso   1.00
C1059  C     0.15384   0.48370   0.93867   0.00000  Uiso   1.00
C1060  C     0.19056   0.49294   0.50796   0.00000  Uiso   1.00
C1061  C     0.21938   0.45648   0.98551   0.00000  Uiso   1.00
C1062  C     0.21753   0.43583   0.93839   0.00000  Uiso   1.00
C1063  C     0.18341   0.44819   0.91695   0.00000  Uiso   1.00
C1064  C     0.19762   0.51314   0.55352   0.00000  Uiso   1.00
C1065  C     0.23383   0.45025   0.57017   0.00000  Uiso   1.00
C1066  C     0.12157   0.49668   0.91395   0.00000  Uiso   1.00
C1067  C     0.21113   0.64454   0.73824   0.00000  Uiso   1.00
C1068  C     0.13935   0.49862   0.85295   0.00000  Uiso   1.00
C1069  C     0.20952   0.35328   0.74759   0.00000  Uiso   1.00
C1070  C     0.16656   0.37572   0.75433   0.00000  Uiso   1.00
C1071  C     0.12383   0.35501   0.75965   0.00000  Uiso   1.00
C1072  C     0.12569   0.64632   0.74981   0.00000  Uiso   1.00
C1073  C     0.16824   0.62402   0.74372   0.00000  Uiso   1.00
C1074  C     0.32031   0.47296   0.71622   0.00000  Uiso   1.00
C1075  C     0.03395   0.47128   0.71902   0.00000  Uiso   1.00
C1076  C     0.01448   0.52957   0.78032   0.00000  Uiso   1.00
C1077  C     0.29901   0.52874   0.78144   0.00000  Uiso   1.00
C1078  C     0.16647   0.42002   0.75177   0.00000  Uiso   1.00
C1079  C     0.19393   0.49969   0.64741   0.00000  Uiso   1.00
C1080  C     0.24454   0.43792   0.51522   0.00000  Uiso   1.00
C1081  C     0.21217   0.48919   0.58857   0.00000  Uiso   1.00
C1082  C     0.07806   0.51577   0.94725   0.00000  Uiso   1.00
C1083  C     0.07478   0.53551   0.99685   0.00000  Uiso   1.00
C1084  C     0.11319   0.53204   0.51610   0.00000  Uiso   1.00
H1085  H     0.26634   0.41016   0.99982   0.00000  Uiso   1.00
N1086  N     0.04760   0.50001   0.75002   0.00000  Uiso   1.00
N1087  N     0.28573   0.49998   0.75000   0.00000  Uiso   1.00
O1088  O     0.12846   0.56108   0.75001   0.00000  Uiso   1.00
O1089  O     0.20490   0.56107   0.75000   0.00000  Uiso   1.00
O1090  O     0.10947   0.50000   0.82681   0.00000  Uiso   1.00
O1091  O     0.18591   0.49999   0.82681   0.00000  Uiso   1.00
O1092  O     0.12843   0.43893   0.75000   0.00000  Uiso   1.00
O1093  O     0.20488   0.43892   0.74999   0.00000  Uiso   1.00
O1094  O     0.14742   0.50001   0.67319   0.00000  Uiso   1.00
O1095  O     0.22387   0.50000   0.67319   0.00000  Uiso   1.00
Zn1096 Zn    0.11562   0.50001   0.75000   0.00000  Uiso   1.00
Zn1097 Zn    0.21771   0.49999   0.75000   0.00000  Uiso   1.00
O1098  O     0.24369   0.42450   0.60633   0.00000  Uiso   1.00
C1099  C     0.21763   0.38778   0.61088   0.00000  Uiso   1.00
H1100  H     0.17802   0.39438   0.62631   0.00000  Uiso   1.00
H1101  H     0.22519   0.36828   0.64090   0.00000  Uiso   1.00
H1102  H     0.22938   0.36922   0.57145   0.00000  Uiso   1.00
Cl1103 Cl    0.26245   0.37480   0.75234   0.00000  Uiso   1.00
O1104  O     0.07992   0.37560   0.77215   0.00000  Uiso   1.00
C1105  C     0.05666   0.37885   0.83004   0.00000  Uiso   1.00
H1106  H     0.07903   0.39539   0.84981   0.00000  Uiso   1.00
H1107  H     0.04705   0.34793   0.84774   0.00000  Uiso   1.00
H1108  H     0.02273   0.39721   0.83989   0.00000  Uiso   1.00
O1109  O     0.08437   0.62716   0.75001   0.00000  Uiso   1.00
C1110  C     0.08157   0.63051   0.69739   0.00000  Uiso   1.00
H1111  H     0.04973   0.61335   0.69672   0.00000  Uiso   1.00
H1112  H     0.11428   0.61673   0.66430   0.00000  Uiso   1.00
H1113  H     0.07624   0.66313   0.68858   0.00000  Uiso   1.00
O1114  O     0.30803   0.44524   0.68241   0.00000  Uiso   1.00
C1115  C     0.32980   0.45647   0.62684   0.00000  Uiso   1.00
H1116  H     0.32560   0.43110   0.59975   0.00000  Uiso   1.00
H1117  H     0.31280   0.48509   0.61925   0.00000  Uiso   1.00
H1118  H     0.03589   0.46003   0.61325   0.00000  Uiso   1.00
Cl1119 Cl    0.07485   0.43187   0.68112   0.00000  Uiso   1.00
O1120  O     0.03229   0.56303   0.80079   0.00000  Uiso   1.00
C1121  C     0.00551   0.57399   0.85658   0.00000  Uiso   1.00
H1122  H     0.03126   0.57996   0.87759   0.00000  Uiso   1.00
H1123  H     0.31328   0.55010   0.87923   0.00000  Uiso   1.00
H1124  H     0.31901   0.60361   0.85913   0.00000  Uiso   1.00
Cl1125 Cl    0.25541   0.56574   0.82121   0.00000  Uiso   1.00
Cl1126 Cl    0.25416   0.39126   0.90880   0.00000  Uiso   1.00
O1127  O     0.19099   0.55520   0.56528   0.00000  Uiso   1.00
C1128  C     0.22235   0.57661   0.52020   0.00000  Uiso   1.00
H1129  H     0.21063   0.57451   0.98433   0.00000  Uiso   1.00
H1130  H     0.26050   0.56535   0.50787   0.00000  Uiso   1.00
H1131  H     0.22113   0.60970   0.53284   0.00000  Uiso   1.00
Cl1132 Cl    0.02562   0.50711   0.93295   0.00000  Uiso   1.00
O1133  O     0.10950   0.55515   0.56294   0.00000  Uiso   1.00
C1134  C     0.08391   0.53306   0.61013   0.00000  Uiso   1.00
H1135  H     0.09831   0.50098   0.60706   0.00000  Uiso   1.00
H1136  H     0.04467   0.53348   0.61812   0.00000  Uiso   1.00
H1137  H     0.08835   0.54841   0.64642   0.00000  Uiso   1.00
Cl1138 Cl    0.02303   0.56636   0.53384   0.00000  Uiso   1.00
Cl1139 Cl    0.16853   0.41210   0.87390   0.00000  Uiso   1.00
O1140  O     0.25468   0.62346   0.72669   0.00000  Uiso   1.00
C1141  C     0.27763   0.61820   0.66886   0.00000  Uiso   1.00
H1142  H     0.28722   0.64843   0.64909   0.00000  Uiso   1.00
H1143  H     0.25494   0.60065   0.65041   0.00000  Uiso   1.00
H1144  H     0.31170   0.60010   0.65973   0.00000  Uiso   1.00
C1145  C     0.50066   0.57986   0.74726   0.00000  Uiso   1.00
C1146  C     0.48704   0.50458   0.98750   0.00000  Uiso   1.00
C1147  C     0.48717   0.48370   0.93867   0.00000  Uiso   1.00
C1148  C     0.52390   0.49294   0.50796   0.00000  Uiso   1.00
C1149  C     0.55271   0.45648   0.98551   0.00000  Uiso   1.00
C1150  C     0.55086   0.43583   0.93839   0.00000  Uiso   1.00
C1151  C     0.51674   0.44819   0.91695   0.00000  Uiso   1.00
C1152  C     0.53095   0.51314   0.55352   0.00000  Uiso   1.00
C1153  C     0.56716   0.45025   0.57017   0.00000  Uiso   1.00
C1154  C     0.45491   0.49668   0.91395   0.00000  Uiso   1.00
C1155  C     0.54446   0.64454   0.73824   0.00000  Uiso   1.00
C1156  C     0.47269   0.49862   0.85295   0.00000  Uiso   1.00
C1157  C     0.54286   0.35328   0.74759   0.00000  Uiso   1.00
C1158  C     0.49989   0.37572   0.75433   0.00000  Uiso   1.00
C1159  C     0.45716   0.35501   0.75965   0.00000  Uiso   1.00
C1160  C     0.45902   0.64632   0.74981   0.00000  Uiso   1.00
C1161  C     0.50157   0.62402   0.74372   0.00000  Uiso   1.00
C1162  C     0.65364   0.47296   0.71622   0.00000  Uiso   1.00
C1163  C     0.36728   0.47128   0.71902   0.00000  Uiso   1.00
C1164  C     0.34782   0.52957   0.78032   0.00000  Uiso   1.00
C1165  C     0.63235   0.52874   0.78144   0.00000  Uiso   1.00
C1166  C     0.49980   0.42002   0.75177   0.00000  Uiso   1.00
C1167  C     0.52727   0.49969   0.64741   0.00000  Uiso   1.00
C1168  C     0.57787   0.43792   0.51522   0.00000  Uiso   1.00
C1169  C     0.54550   0.48919   0.58857   0.00000  Uiso   1.00
C1170  C     0.41140   0.51577   0.94725   0.00000  Uiso   1.00
C1171  C     0.40811   0.53551   0.99685   0.00000  Uiso   1.00
C1172  C     0.44652   0.53204   0.51610   0.00000  Uiso   1.00
H1173  H     0.59968   0.41016   0.99982   0.00000  Uiso   1.00
N1174  N     0.38093   0.50001   0.75002   0.00000  Uiso   1.00
N1175  N     0.61906   0.49998   0.75000   0.00000  Uiso   1.00
O1176  O     0.46179   0.56108   0.75001   0.00000  Uiso   1.00
O1177  O     0.53823   0.56107   0.75000   0.00000  Uiso   1.00
O1178  O     0.44280   0.50000   0.82681   0.00000  Uiso   1.00
O1179  O     0.51924   0.49999   0.82681   0.00000  Uiso   1.00
O1180  O     0.46177   0.43893   0.75000   0.00000  Uiso   1.00
O1181  O     0.53821   0.43892   0.74999   0.00000  Uiso   1.00
O1182  O     0.48076   0.50001   0.67319   0.00000  Uiso   1.00
O1183  O     0.55720   0.50000   0.67319   0.00000  Uiso   1.00
Zn1184 Zn    0.44896   0.50001   0.75000   0.00000  Uiso   1.00
Zn1185 Zn    0.55104   0.49999   0.75000   0.00000  Uiso   1.00
O1186  O     0.57702   0.42450   0.60633   0.00000  Uiso   1.00
C1187  C     0.55097   0.38778   0.61088   0.00000  Uiso   1.00
H1188  H     0.51135   0.39438   0.62631   0.00000  Uiso   1.00
H1189  H     0.55853   0.36828   0.64090   0.00000  Uiso   1.00
H1190  H     0.56271   0.36922   0.57145   0.00000  Uiso   1.00
Cl1191 Cl    0.59579   0.37480   0.75234   0.00000  Uiso   1.00
O1192  O     0.41325   0.37560   0.77215   0.00000  Uiso   1.00
C1193  C     0.38999   0.37885   0.83004   0.00000  Uiso   1.00
H1194  H     0.41236   0.39539   0.84981   0.00000  Uiso   1.00
H1195  H     0.38038   0.34793   0.84774   0.00000  Uiso   1.00
H1196  H     0.35607   0.39721   0.83989   0.00000  Uiso   1.00
O1197  O     0.41771   0.62716   0.75001   0.00000  Uiso   1.00
C1198  C     0.41490   0.63051   0.69739   0.00000  Uiso   1.00
H1199  H     0.38307   0.61335   0.69672   0.00000  Uiso   1.00
H1200  H     0.44762   0.61673   0.66430   0.00000  Uiso   1.00
H1201  H     0.40957   0.66313   0.68858   0.00000  Uiso   1.00
O1202  O     0.64136   0.44524   0.68241   0.00000  Uiso   1.00
C1203  C     0.66313   0.45647   0.62684   0.00000  Uiso   1.00
H1204  H     0.65894   0.43110   0.59975   0.00000  Uiso   1.00
H1205  H     0.64613   0.48509   0.61925   0.00000  Uiso   1.00
H1206  H     0.36923   0.46003   0.61325   0.00000  Uiso   1.00
Cl1207 Cl    0.40819   0.43187   0.68112   0.00000  Uiso   1.00
O1208  O     0.36563   0.56303   0.80079   0.00000  Uiso   1.00
C1209  C     0.33884   0.57399   0.85658   0.00000  Uiso   1.00
H1210  H     0.36460   0.57996   0.87759   0.00000  Uiso   1.00
H1211  H     0.64661   0.55010   0.87923   0.00000  Uiso   1.00
H1212  H     0.65234   0.60361   0.85913   0.00000  Uiso   1.00
Cl1213 Cl    0.58875   0.56574   0.82121   0.00000  Uiso   1.00
Cl1214 Cl    0.58750   0.39126   0.90880   0.00000  Uiso   1.00
O1215  O     0.52432   0.55520   0.56528   0.00000  Uiso   1.00
C1216  C     0.55568   0.57661   0.52020   0.00000  Uiso   1.00
H1217  H     0.54396   0.57451   0.98433   0.00000  Uiso   1.00
H1218  H     0.59383   0.56535   0.50787   0.00000  Uiso   1.00
H1219  H     0.55446   0.60970   0.53284   0.00000  Uiso   1.00
Cl1220 Cl    0.35895   0.50711   0.93295   0.00000  Uiso   1.00
O1221  O     0.44284   0.55515   0.56294   0.00000  Uiso   1.00
C1222  C     0.41724   0.53306   0.61013   0.00000  Uiso   1.00
H1223  H     0.43165   0.50098   0.60706   0.00000  Uiso   1.00
H1224  H     0.37801   0.53348   0.61812   0.00000  Uiso   1.00
H1225  H     0.42168   0.54841   0.64642   0.00000  Uiso   1.00
Cl1226 Cl    0.35636   0.56636   0.53384   0.00000  Uiso   1.00
Cl1227 Cl    0.50186   0.41210   0.87390   0.00000  Uiso   1.00
O1228  O     0.58802   0.62346   0.72669   0.00000  Uiso   1.00
C1229  C     0.61097   0.61820   0.66886   0.00000  Uiso   1.00
H1230  H     0.62056   0.64843   0.64909   0.00000  Uiso   1.00
H1231  H     0.58828   0.60065   0.65041   0.00000  Uiso   1.00
H1232  H     0.64504   0.60010   0.65973   0.00000  Uiso   1.00
C1233  C     0.83400   0.57986   0.74726   0.00000  Uiso   1.00
C1234  C     0.82038   0.50458   0.98750   0.00000  Uiso   1.00
C1235  C     0.82050   0.48370   0.93867   0.00000  Uiso   1.00
C1236  C     0.85723   0.49294   0.50796   0.00000  Uiso   1.00
C1237  C     0.88604   0.45648   0.98551   0.00000  Uiso   1.00
C1238  C     0.88420   0.43583   0.93839   0.00000  Uiso   1.00
C1239  C     0.85008   0.44819   0.91695   0.00000  Uiso   1.00
C1240  C     0.86429   0.51314   0.55352   0.00000  Uiso   1.00
C1241  C     0.90049   0.45025   0.57017   0.00000  Uiso   1.00
C1242  C     0.78824   0.49668   0.91395   0.00000  Uiso   1.00
C1243  C     0.87780   0.64454   0.73824   0.00000  Uiso   1.00
C1244  C     0.80602   0.49862   0.85295   0.00000  Uiso   1.00
C1245  C     0.87619   0.35328   0.74759   0.00000  Uiso   1.00
C1246  C     0.83323   0.37572   0.75433   0.00000  Uiso   1.00
C1247  C     0.79050   0.35501   0.75965   0.00000  Uiso   1.00
C1248  C     0.79236   0.64632   0.74981   0.00000  Uiso   1.00
C1249  C     0.83490   0.62402   0.74372   0.00000  Uiso   1.00
C1250  C     0.98698   0.47296   0.71622   0.00000  Uiso   1.00
C1251  C     0.70062   0.47128   0.71902   0.00000  Uiso   1.00
C1252  C     0.68115   0.52957   0.78032   0.00000  Uiso   1.00
C1253  C     0.96568   0.52874   0.78144   0.00000  Uiso   1.00
C1254  C     0.83314   0.42002   0.75177   0.00000  Uiso   1.00
C1255  C     0.86060   0.49969   0.64741   0.00000  Uiso   1.00
C1256  C     0.91121   0.43792   0.51522   0.00000  Uiso   1.00
C1257  C     0.87884   0.48919   0.58857   0.00000  Uiso   1.00
C1258  C     0.74473   0.51577   0.94725   0.00000  Uiso   1.00
C1259  C     0.74144   0.53551   0.99685   0.00000  Uiso   1.00
C1260  C     0.77985   0.53204   0.51610   0.00000  Uiso   1.00
H1261  H     0.93301   0.41016   0.99982   0.00000  Uiso   1.00
N1262  N     0.71426   0.50001   0.75002   0.00000  Uiso   1.00
N1263  N     0.95239   0.49998   0.75000   0.00000  Uiso   1.00
O1264  O     0.79512   0.56108   0.75001   0.00000  Uiso   1.00
O1265  O     0.87157   0.56107   0.75000   0.00000  Uiso   1.00
O1266  O     0.77613   0.50000   0.82681   0.00000  Uiso   1.00
O1267  O     0.85258   0.49999   0.82681   0.00000  Uiso   1.00
O1268  O     0.79510   0.43893   0.75000   0.00000  Uiso   1.00
O1269  O     0.87154   0.43892   0.74999   0.00000  Uiso   1.00
O1270  O     0.81409   0.50001   0.67319   0.00000  Uiso   1.00
O1271  O     0.89053   0.50000   0.67319   0.00000  Uiso   1.00
Zn1272 Zn    0.78229   0.50001   0.75000   0.00000  Uiso   1.00
Zn1273 Zn    0.88438   0.49999   0.75000   0.00000  Uiso   1.00
O1274  O     0.91035   0.42450   0.60633   0.00000  Uiso   1.00
C1275  C     0.88430   0.38778   0.61088   0.00000  Uiso   1.00
H1276  H     0.84468   0.39438   0.62631   0.00000  Uiso   1.00
H1277  H     0.89186   0.36828   0.64090   0.00000  Uiso   1.00
H1278  H     0.89604   0.36922   0.57145   0.00000  Uiso   1.00
Cl1279 Cl    0.92912   0.37480   0.75234   0.00000  Uiso   1.00
O1280  O     0.74659   0.37560   0.77215   0.00000  Uiso   1.00
C1281  C     0.72333   0.37885   0.83004   0.00000  Uiso   1.00
H1282  H     0.74570   0.39539   0.84981   0.00000  Uiso   1.00
H1283  H     0.71371   0.34793   0.84774   0.00000  Uiso   1.00
H1284  H     0.68940   0.39721   0.83989   0.00000  Uiso   1.00
O1285  O     0.75104   0.62716   0.75001   0.00000  Uiso   1.00
C1286  C     0.74824   0.63051   0.69739   0.00000  Uiso   1.00
H1287  H     0.71640   0.61335   0.69672   0.00000  Uiso   1.00
H1288  H     0.78095   0.61673   0.66430   0.00000  Uiso   1.00
H1289  H     0.74290   0.66313   0.68858   0.00000  Uiso   1.00
O1290  O     0.97470   0.44524   0.68241   0.00000  Uiso   1.00
C1291  C     0.99647   0.45647   0.62684   0.00000  Uiso   1.00
H1292  H     0.99227   0.43110   0.59975   0.00000  Uiso   1.00
H1293  H     0.97946   0.48509   0.61925   0.00000  Uiso   1.00
H1294  H     0.70256   0.46003   0.61325   0.00000  Uiso   1.00
Cl1295 Cl    0.74152   0.43187   0.68112   0.00000  Uiso   1.00
O1296  O     0.69896   0.56303   0.80079   0.00000  Uiso   1.00
C1297  C     0.67217   0.57399   0.85658   0.00000  Uiso   1.00
H1298  H     0.69793   0.57996   0.87759   0.00000  Uiso   1.00
H1299  H     0.97995   0.55010   0.87923   0.00000  Uiso   1.00
H1300  H     0.98567   0.60361   0.85913   0.00000  Uiso   1.00
Cl1301 Cl    0.92208   0.56574   0.82121   0.00000  Uiso   1.00
Cl1302 Cl    0.92083   0.39126   0.90880   0.00000  Uiso   1.00
O1303  O     0.85765   0.55520   0.56528   0.00000  Uiso   1.00
C1304  C     0.88901   0.57661   0.52020   0.00000  Uiso   1.00
H1305  H     0.87729   0.57451   0.98433   0.00000  Uiso   1.00
H1306  H     0.92716   0.56535   0.50787   0.00000  Uiso   1.00
H1307  H     0.88779   0.60970   0.53284   0.00000  Uiso   1.00
Cl1308 Cl    0.69229   0.50711   0.93295   0.00000  Uiso   1.00
O1309  O     0.77617   0.55515   0.56294   0.00000  Uiso   1.00
C1310  C     0.75058   0.53306   0.61013   0.00000  Uiso   1.00
H1311  H     0.76498   0.50098   0.60706   0.00000  Uiso   1.00
H1312  H     0.71134   0.53348   0.61812   0.00000  Uiso   1.00
H1313  H     0.75502   0.54841   0.64642   0.00000  Uiso   1.00
Cl1314 Cl    0.68970   0.56636   0.53384   0.00000  Uiso   1.00
Cl1315 Cl    0.83520   0.41210   0.87390   0.00000  Uiso   1.00
O1316  O     0.92135   0.62346   0.72669   0.00000  Uiso   1.00
C1317  C     0.94430   0.61820   0.66886   0.00000  Uiso   1.00
H1318  H     0.95389   0.64843   0.64909   0.00000  Uiso   1.00
H1319  H     0.92161   0.60065   0.65041   0.00000  Uiso   1.00
H1320  H     0.97837   0.60010   0.65973   0.00000  Uiso   1.00
C1321  C     0.16733   0.91319   0.74726   0.00000  Uiso   1.00
C1322  C     0.15371   0.83791   0.98750   0.00000  Uiso   1.00
C1323  C     0.15384   0.81704   0.93867   0.00000  Uiso   1.00
C1324  C     0.19056   0.82628   0.50796   0.00000  Uiso   1.00
C1325  C     0.21938   0.78982   0.98551   0.00000  Uiso   1.00
C1326  C     0.21753   0.76917   0.93839   0.00000  Uiso   1.00
C1327  C     0.18341   0.78153   0.91695   0.00000  Uiso   1.00
C1328  C     0.19762   0.84647   0.55352   0.00000  Uiso   1.00
C1329  C     0.23383   0.78359   0.57017   0.00000  Uiso   1.00
C1330  C     0.12157   0.83002   0.91395   0.00000  Uiso   1.00
C1331  C     0.21113   0.97787   0.73824   0.00000  Uiso   1.00
C1332  C     0.13935   0.83195   0.85295   0.00000  Uiso   1.00
C1333  C     0.20952   0.68661   0.74759   0.00000  Uiso   1.00
C1334  C     0.16656   0.70905   0.75433   0.00000  Uiso   1.00
C1335  C     0.12383   0.68835   0.75965   0.00000  Uiso   1.00
C1336  C     0.12569   0.97965   0.74981   0.00000  Uiso   1.00
C1337  C     0.16824   0.95735   0.74372   0.00000  Uiso   1.00
C1338  C     0.32031   0.80629   0.71622   0.00000  Uiso   1.00
C1339  C     0.03395   0.80462   0.71902   0.00000  Uiso   1.00
C1340  C     0.01448   0.86290   0.78032   0.00000  Uiso   1.00
C1341  C     0.29901   0.86207   0.78144   0.00000  Uiso   1.00
C1342  C     0.16647   0.75335   0.75177   0.00000  Uiso   1.00
C1343  C     0.19393   0.83302   0.64741   0.00000  Uiso   1.00
C1344  C     0.24454   0.77125   0.51522   0.00000  Uiso   1.00
C1345  C     0.21217   0.82252   0.58857   0.00000  Uiso   1.00
C1346  C     0.07806   0.84910   0.94725   0.00000  Uiso   1.00
C1347  C     0.07478   0.86884   0.99685   0.00000  Uiso   1.00
C1348  C     0.11319   0.86537   0.51610   0.00000  Uiso   1.00
H1349  H     0.26634   0.74349   0.99982   0.00000  Uiso   1.00
N1350  N     0.04760   0.83334   0.75002   0.00000  Uiso   1.00
N1351  N     0.28573   0.83331   0.75000   0.00000  Uiso   1.00
O1352  O     0.12846   0.89442   0.75001   0.00000  Uiso   1.00
O1353  O     0.20490   0.89441   0.75000   0.00000  Uiso   1.00
O1354  O     0.10947   0.83333   0.82681   0.00000  Uiso   1.00
O1355  O     0.18591   0.83332   0.82681   0.00000  Uiso   1.00
O1356  O     0.12843   0.77226   0.75000   0.00000  Uiso   1.00
O1357  O     0.20488   0.77225   0.74999   0.00000  Uiso   1.00
O1358  O     0.14742   0.83335   0.67319   0.00000  Uiso   1.00
O1359  O     0.22387   0.83334   0.67319   0.00000  Uiso   1.00
Zn1360 Zn    0.11562   0.83334   0.75000   0.00000  Uiso   1.00
Zn1361 Zn    0.21771   0.83333   0.75000   0.00000  Uiso   1.00
O1362  O     0.24369   0.75784   0.60633   0.00000  Uiso   1.00
C1363  C     0.21763   0.72112   0.61088   0.00000  Uiso   1.00
H1364  H     0.17802   0.72772   0.62631   0.00000  Uiso   1.00
H1365  H     0.22519   0.70161   0.64090   0.00000  Uiso   1.00
H1366  H     0.22938   0.70256   0.57145   0.00000  Uiso   1.00
Cl1367 Cl    0.26245   0.70813   0.75234   0.00000  Uiso   1.00
O1368  O     0.07992   0.70894   0.77215   0.00000  Uiso   1.00
C1369  C     0.05666   0.71218   0.83004   0.00000  Uiso   1.00
H1370  H     0.07903   0.72872   0.84981   0.00000  Uiso   1.00
H1371  H     0.04705   0.68126   0.84774   0.00000  Uiso   1.00
H1372  H     0.02273   0.73055   0.83989   0.00000  Uiso   1.00
O1373  O     0.08437   0.96049   0.75001   0.00000  Uiso   1.00
C1374  C     0.08157   0.96384   0.69739   0.00000  Uiso   1.00
H1375  H     0.04973   0.94668   0.69672   0.00000  Uiso   1.00
H1376  H     0.11428   0.95006   0.66430   0.00000  Uiso   1.00
H1377  H     0.07624   0.99646   0.68858   0.00000  Uiso   1.00
O1378  O     0.30803   0.77858   0.68241   0.00000  Uiso   1.00
C1379  C     0.32980   0.78981   0.62684   0.00000  Uiso   1.00
H1380  H     0.32560   0.76443   0.59975   0.00000  Uiso   1.00
H1381  H     0.31280   0.81842   0.61925   0.00000  Uiso   1.00
H1382  H     0.03589   0.79336   0.61325   0.00000  Uiso   1.00
Cl1383 Cl    0.07485   0.76520   0.68112   0.00000  Uiso   1.00
O1384  O     0.03229   0.89637   0.80079   0.00000  Uiso   1.00
C1385  C     0.00551   0.90732   0.85658   0.00000  Uiso   1.00
H1386  H     0.03126   0.91329   0.87759   0.00000  Uiso   1.00
H1387  H     0.31328   0.88344   0.87923   0.00000  Uiso   1.00
H1388  H     0.31901   0.93694   0.85913   0.00000  Uiso   1.00
Cl1389 Cl    0.25541   0.89907   0.82121   0.00000  Uiso   1.00
Cl1390 Cl    0.25416   0.72460   0.90880   0.00000  Uiso   1.00
O1391  O     0.19099   0.88853   0.56528   0.00000  Uiso   1.00
C1392  C     0.22235   0.90994   0.52020   0.00000  Uiso   1.00
H1393  H     0.21063   0.90784   0.98433   0.00000  Uiso   1.00
H1394  H     0.26050   0.89868   0.50787   0.00000  Uiso   1.00
H1395  H     0.22113   0.94303   0.53284   0.00000  Uiso   1.00
Cl1396 Cl    0.02562   0.84044   0.93295   0.00000  Uiso   1.00
O1397  O     0.10950   0.88848   0.56294   0.00000  Uiso   1.00
C1398  C     0.08391   0.86639   0.61013   0.00000  Uiso   1.00
H1399  H     0.09831   0.83432   0.60706   0.00000  Uiso   1.00
H1400  H     0.04467   0.86681   0.61812   0.00000  Uiso   1.00
H1401  H     0.08835   0.88174   0.64642   0.00000  Uiso   1.00
Cl1402 Cl    0.02303   0.89970   0.53384   0.00000  Uiso   1.00
Cl1403 Cl    0.16853   0.74544   0.87390   0.00000  Uiso   1.00
O1404  O     0.25468   0.95680   0.72669   0.00000  Uiso   1.00
C1405  C     0.27763   0.95153   0.66886   0.00000  Uiso   1.00
H1406  H     0.28722   0.98177   0.64909   0.00000  Uiso   1.00
H1407  H     0.25494   0.93399   0.65041   0.00000  Uiso   1.00
H1408  H     0.31170   0.93344   0.65973   0.00000  Uiso   1.00
C1409  C     0.50066   0.91319   0.74726   0.00000  Uiso   1.00
C1410  C     0.48704   0.83791   0.98750   0.00000  Uiso   1.00
C1411  C     0.48717   0.81704   0.93867   0.00000  Uiso   1.00
C1412  C     0.52390   0.82628   0.50796   0.00000  Uiso   1.00
C1413  C     0.55271   0.78982   0.98551   0.00000  Uiso   1.00
C1414  C     0.55086   0.76917   0.93839   0.00000  Uiso   1.00
C1415  C     0.51674   0.78153   0.91695   0.00000  Uiso   1.00
C1416  C     0.53095   0.84647   0.55352   0.00000  Uiso   1.00
C1417  C     0.56716   0.78359   0.57017   0.00000  Uiso   1.00
C1418  C     0.45491   0.83002   0.91395   0.00000  Uiso   1.00
C1419  C     0.54446   0.97787   0.73824   0.00000  Uiso   1.00
C1420  C     0.47269   0.83195   0.85295   0.00000  Uiso   1.00
C1421  C     0.54286   0.68661   0.74759   0.00000  Uiso   1.00
C1422  C     0.49989   0.70905   0.75433   0.00000  Uiso   1.00
C1423  C     0.45716   0.68835   0.75965   0.00000  Uiso   1.00
C1424  C     0.45902   0.97965   0.74981   0.00000  Uiso   1.00
C1425  C     0.50157   0.95735   0.74372   0.00000  Uiso   1.00
C1426  C     0.65364   0.80629   0.71622   0.00000  Uiso   1.00
C1427  C     0.36728   0.80462   0.71902   0.00000  Uiso   1.00
C1428  C     0.34782   0.86290   0.78032   0.00000  Uiso   1.00
C1429  C     0.63235   0.86207   0.78144   0.00000  Uiso   1.00
C1430  C     0.49980   0.75335   0.75177   0.00000  Uiso   1.00
C1431  C     0.52727   0.83302   0.64741   0.00000  Uiso   1.00
C1432  C     0.57787   0.77125   0.51522   0.00000  Uiso   1.00
C1433  C     0.54550   0.82252   0.58857   0.00000  Uiso   1.00
C1434  C     0.41140   0.84910   0.94725   0.00000  Uiso   1.00
C1435  C     0.40811   0.86884   0.99685   0.00000  Uiso   1.00
C1436  C     0.44652   0.86537   0.51610   0.00000  Uiso   1.00
H1437  H     0.59968   0.74349   0.99982   0.00000  Uiso   1.00
N1438  N     0.38093   0.83334   0.75002   0.00000  Uiso   1.00
N1439  N     0.61906   0.83331   0.75000   0.00000  Uiso   1.00
O1440  O     0.46179   0.89442   0.75001   0.00000  Uiso   1.00
O1441  O     0.53823   0.89441   0.75000   0.00000  Uiso   1.00
O1442  O     0.44280   0.83333   0.82681   0.00000  Uiso   1.00
O1443  O     0.51924   0.83332   0.82681   0.00000  Uiso   1.00
O1444  O     0.46177   0.77226   0.75000   0.00000  Uiso   1.00
O1445  O     0.53821   0.77225   0.74999   0.00000  Uiso   1.00
O1446  O     0.48076   0.83335   0.67319   0.00000  Uiso   1.00
O1447  O     0.55720   0.83334   0.67319   0.00000  Uiso   1.00
Zn1448 Zn    0.44896   0.83334   0.75000   0.00000  Uiso   1.00
Zn1449 Zn    0.55104   0.83333   0.75000   0.00000  Uiso   1.00
O1450  O     0.57702   0.75784   0.60633   0.00000  Uiso   1.00
C1451  C     0.55097   0.72112   0.61088   0.00000  Uiso   1.00
H1452  H     0.51135   0.72772   0.62631   0.00000  Uiso   1.00
H1453  H     0.55853   0.70161   0.64090   0.00000  Uiso   1.00
H1454  H     0.56271   0.70256   0.57145   0.00000  Uiso   1.00
Cl1455 Cl    0.59579   0.70813   0.75234   0.00000  Uiso   1.00
O1456  O     0.41325   0.70894   0.77215   0.00000  Uiso   1.00
C1457  C     0.38999   0.71218   0.83004   0.00000  Uiso   1.00
H1458  H     0.41236   0.72872   0.84981   0.00000  Uiso   1.00
H1459  H     0.38038   0.68126   0.84774   0.00000  Uiso   1.00
H1460  H     0.35607   0.73055   0.83989   0.00000  Uiso   1.00
O1461  O     0.41771   0.96049   0.75001   0.00000  Uiso   1.00
C1462  C     0.41490   0.96384   0.69739   0.00000  Uiso   1.00
H1463  H     0.38307   0.94668   0.69672   0.00000  Uiso   1.00
H1464  H     0.44762   0.95006   0.66430   0.00000  Uiso   1.00
H1465  H     0.40957   0.99646   0.68858   0.00000  Uiso   1.00
O1466  O     0.64136   0.77858   0.68241   0.00000  Uiso   1.00
C1467  C     0.66313   0.78981   0.62684   0.00000  Uiso   1.00
H1468  H     0.65894   0.76443   0.59975   0.00000  Uiso   1.00
H1469  H     0.64613   0.81842   0.61925   0.00000  Uiso   1.00
H1470  H     0.36923   0.79336   0.61325   0.00000  Uiso   1.00
Cl1471 Cl    0.40819   0.76520   0.68112   0.00000  Uiso   1.00
O1472  O     0.36563   0.89637   0.80079   0.00000  Uiso   1.00
C1473  C     0.33884   0.90732   0.85658   0.00000  Uiso   1.00
H1474  H     0.36460   0.91329   0.87759   0.00000  Uiso   1.00
H1475  H     0.64661   0.88344   0.87923   0.00000  Uiso   1.00
H1476  H     0.65234   0.93694   0.85913   0.00000  Uiso   1.00
Cl1477 Cl    0.58875   0.89907   0.82121   0.00000  Uiso   1.00
Cl1478 Cl    0.58750   0.72460   0.90880   0.00000  Uiso   1.00
O1479  O     0.52432   0.88853   0.56528   0.00000  Uiso   1.00
C1480  C     0.55568   0.90994   0.52020   0.00000  Uiso   1.00
H1481  H     0.54396   0.90784   0.98433   0.00000  Uiso   1.00
H1482  H     0.59383   0.89868   0.50787   0.00000  Uiso   1.00
H1483  H     0.55446   0.94303   0.53284   0.00000  Uiso   1.00
Cl1484 Cl    0.35895   0.84044   0.93295   0.00000  Uiso   1.00
O1485  O     0.44284   0.88848   0.56294   0.00000  Uiso   1.00
C1486  C     0.41724   0.86639   0.61013   0.00000  Uiso   1.00
H1487  H     0.43165   0.83432   0.60706   0.00000  Uiso   1.00
H1488  H     0.37801   0.86681   0.61812   0.00000  Uiso   1.00
H1489  H     0.42168   0.88174   0.64642   0.00000  Uiso   1.00
Cl1490 Cl    0.35636   0.89970   0.53384   0.00000  Uiso   1.00
Cl1491 Cl    0.50186   0.74544   0.87390   0.00000  Uiso   1.00
O1492  O     0.58802   0.95680   0.72669   0.00000  Uiso   1.00
C1493  C     0.61097   0.95153   0.66886   0.00000  Uiso   1.00
H1494  H     0.62056   0.98177   0.64909   0.00000  Uiso   1.00
H1495  H     0.58828   0.93399   0.65041   0.00000  Uiso   1.00
H1496  H     0.64504   0.93344   0.65973   0.00000  Uiso   1.00
C1497  C     0.83400   0.91319   0.74726   0.00000  Uiso   1.00
C1498  C     0.82038   0.83791   0.98750   0.00000  Uiso   1.00
C1499  C     0.82050   0.81704   0.93867   0.00000  Uiso   1.00
C1500  C     0.85723   0.82628   0.50796   0.00000  Uiso   1.00
C1501  C     0.88604   0.78982   0.98551   0.00000  Uiso   1.00
C1502  C     0.88420   0.76917   0.93839   0.00000  Uiso   1.00
C1503  C     0.85008   0.78153   0.91695   0.00000  Uiso   1.00
C1504  C     0.86429   0.84647   0.55352   0.00000  Uiso   1.00
C1505  C     0.90049   0.78359   0.57017   0.00000  Uiso   1.00
C1506  C     0.78824   0.83002   0.91395   0.00000  Uiso   1.00
C1507  C     0.87780   0.97787   0.73824   0.00000  Uiso   1.00
C1508  C     0.80602   0.83195   0.85295   0.00000  Uiso   1.00
C1509  C     0.87619   0.68661   0.74759   0.00000  Uiso   1.00
C1510  C     0.83323   0.70905   0.75433   0.00000  Uiso   1.00
C1511  C     0.79050   0.68835   0.75965   0.00000  Uiso   1.00
C1512  C     0.79236   0.97965   0.74981   0.00000  Uiso   1.00
C1513  C     0.83490   0.95735   0.74372   0.00000  Uiso   1.00
C1514  C     0.98698   0.80629   0.71622   0.00000  Uiso   1.00
C1515  C     0.70062   0.80462   0.71902   0.00000  Uiso   1.00
C1516  C     0.68115   0.86290   0.78032   0.00000  Uiso   1.00
C1517  C     0.96568   0.86207   0.78144   0.00000  Uiso   1.00
C1518  C     0.83314   0.75335   0.75177   0.00000  Uiso   1.00
C1519  C     0.86060   0.83302   0.64741   0.00000  Uiso   1.00
C1520  C     0.91121   0.77125   0.51522   0.00000  Uiso   1.00
C1521  C     0.87884   0.82252   0.58857   0.00000  Uiso   1.00
C1522  C     0.74473   0.84910   0.94725   0.00000  Uiso   1.00
C1523  C     0.74144   0.86884   0.99685   0.00000  Uiso   1.00
C1524  C     0.77985   0.86537   0.51610   0.00000  Uiso   1.00
H1525  H     0.93301   0.74349   0.99982   0.00000  Uiso   1.00
N1526  N     0.71426   0.83334   0.75002   0.00000  Uiso   1.00
N1527  N     0.95239   0.83331   0.75000   0.00000  Uiso   1.00
O1528  O     0.79512   0.89442   0.75001   0.00000  Uiso   1.00
O1529  O     0.87157   0.89441   0.75000   0.00000  Uiso   1.00
O1530  O     0.77613   0.83333   0.82681   0.00000  Uiso   1.00
O1531  O     0.85258   0.83332   0.82681   0.00000  Uiso   1.00
O1532  O     0.79510   0.77226   0.75000   0.00000  Uiso   1.00
O1533  O     0.87154   0.77225   0.74999   0.00000  Uiso   1.00
O1534  O     0.81409   0.83335   0.67319   0.00000  Uiso   1.00
O1535  O     0.89053   0.83334   0.67319   0.00000  Uiso   1.00
Zn1536 Zn    0.78229   0.83334   0.75000   0.00000  Uiso   1.00
Zn1537 Zn    0.88438   0.83333   0.75000   0.00000  Uiso   1.00
O1538  O     0.91035   0.75784   0.60633   0.00000  Uiso   1.00
C1539  C     0.88430   0.72112   0.61088   0.00000  Uiso   1.00
H1540  H     0.84468   0.72772   0.62631   0.00000  Uiso   1.00
H1541  H     0.89186   0.70161   0.64090   0.00000  Uiso   1.00
H1542  H     0.89604   0.70256   0.57145   0.00000  Uiso   1.00
Cl1543 Cl    0.92912   0.70813   0.75234   0.00000  Uiso   1.00
O1544  O     0.74659   0.70894   0.77215   0.00000  Uiso   1.00
C1545  C     0.72333   0.71218   0.83004   0.00000  Uiso   1.00
H1546  H     0.74570   0.72872   0.84981   0.00000  Uiso   1.00
H1547  H     0.71371   0.68126   0.84774   0.00000  Uiso   1.00
H1548  H     0.68940   0.73055   0.83989   0.00000  Uiso   1.00
O1549  O     0.75104   0.96049   0.75001   0.00000  Uiso   1.00
C1550  C     0.74824   0.96384   0.69739   0.00000  Uiso   1.00
H1551  H     0.71640   0.94668   0.69672   0.00000  Uiso   1.00
H1552  H     0.78095   0.95006   0.66430   0.00000  Uiso   1.00
H1553  H     0.74290   0.99646   0.68858   0.00000  Uiso   1.00
O1554  O     0.97470   0.77858   0.68241   0.00000  Uiso   1.00
C1555  C     0.99647   0.78981   0.62684   0.00000  Uiso   1.00
H1556  H     0.99227   0.76443   0.59975   0.00000  Uiso   1.00
H1557  H     0.97946   0.81842   0.61925   0.00000  Uiso   1.00
H1558  H     0.70256   0.79336   0.61325   0.00000  Uiso   1.00
Cl1559 Cl    0.74152   0.76520   0.68112   0.00000  Uiso   1.00
O1560  O     0.69896   0.89637   0.80079   0.00000  Uiso   1.00
C1561  C     0.67217   0.90732   0.85658   0.00000  Uiso   1.00
H1562  H     0.69793   0.91329   0.87759   0.00000  Uiso   1.00
H1563  H     0.97995   0.88344   0.87923   0.00000  Uiso   1.00
H1564  H     0.98567   0.93694   0.85913   0.00000  Uiso   1.00
Cl1565 Cl    0.92208   0.89907   0.82121   0.00000  Uiso   1.00
Cl1566 Cl    0.92083   0.72460   0.90880   0.00000  Uiso   1.00
O1567  O     0.85765   0.88853   0.56528   0.00000  Uiso   1.00
C1568  C     0.88901   0.90994   0.52020   0.00000  Uiso   1.00
H1569  H     0.87729   0.90784   0.98433   0.00000  Uiso   1.00
H1570  H     0.92716   0.89868   0.50787   0.00000  Uiso   1.00
H1571  H     0.88779   0.94303   0.53284   0.00000  Uiso   1.00
Cl1572 Cl    0.69229   0.84044   0.93295   0.00000  Uiso   1.00
O1573  O     0.77617   0.88848   0.56294   0.00000  Uiso   1.00
C1574  C     0.75058   0.86639   0.61013   0.00000  Uiso   1.00
H1575  H     0.76498   0.83432   0.60706   0.00000  Uiso   1.00
H1576  H     0.71134   0.86681   0.61812   0.00000  Uiso   1.00
H1577  H     0.75502   0.88174   0.64642   0.00000  Uiso   1.00
Cl1578 Cl    0.68970   0.89970   0.53384   0.00000  Uiso   1.00
Cl1579 Cl    0.83520   0.74544   0.87390   0.00000  Uiso   1.00
O1580  O     0.92135   0.95680   0.72669   0.00000  Uiso   1.00
C1581  C     0.94430   0.95153   0.66886   0.00000  Uiso   1.00
H1582  H     0.95389   0.98177   0.64909   0.00000  Uiso   1.00
H1583  H     0.92161   0.93399   0.65041   0.00000  Uiso   1.00
H1584  H     0.97837   0.93344   0.65973   0.00000  Uiso   1.00
loop_
_geom_bond_atom_site_label_1
_geom_bond_atom_site_label_2
_geom_bond_distance
_geom_bond_site_symmetry_2
_ccdc_geom_bond_type
C1     O33     1.294   .     A
C1     O32     1.293   .     A
C1     C17     1.439   .     S
C2     C3      1.421   .     A
C2     C796    1.436   .     S
C2     C820    1.442   .     S
C3     C7      1.412   .     A
C3     C10     1.406   .     A
C4     C8      1.421   .     A
C4     C794    1.436   1_554 S
C4     C797    1.430   1_554 S
C5     C6      1.399   .     A
C5     C796    1.430   .     S
C5     C816    1.403   .     S
C6     Cl70    1.776   .     S
C6     C7      1.388   .     A
C7     Cl83    1.766   .     S
C8     C25     1.397   .     A
C8     O71     1.385   .     S
C9     C25     1.400   .     A
C9     O42     1.385   .     S
C9     C24     1.392   .     A
C10    C26     1.392   .     A
C10    C12     1.483   .     S
C11    C17     1.408   .     A
C11    O84     1.385   .     S
C11    C277    1.376   .     S
C12    O35     1.302   .     A
C12    O34     1.305   .     A
C13    C14     1.415   .     A
C13    Cl47    1.773   .     S
C13    C539    1.376   1_545 S
C14    C22     1.441   .     S
C14    C15     1.407   .     A
C15    O48     1.384   .     S
C15    C544    1.376   1_545 S
C16    O53     1.382   .     S
C16    C17     1.406   .     A
C16    C279    1.376   .     S
C18    O58     1.383   .     S
C18    N31     1.367   .     A
C18    C107    1.427   .     S
C19    Cl63    1.760   .     S
C19    N30     1.374   .     A
C19    C194    1.427   1_455 S
C20    N30     1.369   .     A
C20    O64     1.388   .     S
C20    C197    1.442   1_455 S
C21    N31     1.377   .     A
C21    Cl69    1.761   .     S
C21    C108    1.442   .     S
C22    O37     1.289   .     A
C22    O36     1.298   .     A
C23    C25     1.453   .     S
C23    O38     1.297   .     A
C23    O39     1.298   .     A
C24    C797    1.403   1_554 S
C24    H821    1.080   1_554 S
C26    C27     1.394   .     A
C26    Cl76    1.756   .     S
C27    C820    1.411   .     S
C27    Cl874   1.766   .     S
C28    O77     1.381   .     S
C28    C794    1.442   1_554 S
C28    C819    1.411   1_554 S
H29    C816    1.080   .     S
N30    Zn40    2.024   .     S
N31    Zn41    2.024   .     S
O32    Zn40    2.022   .     S
O33    Zn41    2.014   .     S
O34    Zn40    1.941   .     S
O35    Zn41    1.873   .     S
O36    Zn40    2.014   .     S
O37    Zn41    2.022   .     S
O38    Zn40    1.873   .     S
O39    Zn41    1.941   .     S
O42    C43     1.412   .     S
C43    H44     1.113   .     S
C43    H45     1.104   .     S
C43    H46     1.111   .     S
O48    C49     1.409   .     S
C49    H51     1.113   .     S
C49    H50     1.113   .     S
C49    H52     1.108   .     S
O53    C54     1.411   .     S
C54    H56     1.114   .     S
C54    H55     1.109   .     S
C54    H57     1.112   .     S
O58    C59     1.413   .     S
C59    H60     1.106   .     S
C59    H61     1.110   .     S
C59    H150    1.102   .     S
H62    C235    1.102   1_455 S
O64    C65     1.409   .     S
C65    H66     1.109   .     S
C65    H243    1.113   1_455 S
C65    H244    1.110   1_455 S
H67    C153    1.113   .     S
H68    C153    1.110   .     S
O71    C72     1.411   .     S
C72    H75     1.109   .     S
C72    H74     1.114   .     S
C72    H865    1.111   1_554 S
H73    C864    1.111   .     S
O77    C78     1.408   .     S
C78    H80     1.108   .     S
C78    H79     1.111   .     S
C78    H81     1.106   .     S
Cl82   C819    1.766   1_554 S
O84    C85     1.411   .     S
C85    H86     1.113   .     S
C85    H87     1.114   .     S
C85    H88     1.109   .     S
C89    O121    1.294   .     A
C89    O120    1.293   .     A
C89    C105    1.439   .     S
C90    C91     1.421   .     A
C90    C884    1.436   .     S
C90    C908    1.442   .     S
C91    C95     1.412   .     A
C91    C98     1.406   .     A
C92    C96     1.421   .     A
C92    C882    1.436   1_554 S
C92    C885    1.430   1_554 S
C93    C94     1.399   .     A
C93    C884    1.430   .     S
C93    C904    1.403   .     S
C94    Cl158   1.776   .     S
C94    C95     1.388   .     A
C95    Cl171   1.766   .     S
C96    C113    1.397   .     A
C96    O159    1.385   .     S
C97    C113    1.400   .     A
C97    O130    1.385   .     S
C97    C112    1.392   .     A
C98    C114    1.392   .     A
C98    C100    1.483   .     S
C99    C105    1.408   .     A
C99    O172    1.385   .     S
C99    C365    1.376   .     S
C100   O123    1.302   .     A
C100   O122    1.305   .     A
C101   C102    1.415   .     A
C101   Cl135   1.773   .     S
C101   C627    1.376   1_545 S
C102   C110    1.441   .     S
C102   C103    1.407   .     A
C103   O136    1.384   .     S
C103   C632    1.376   1_545 S
C104   O141    1.382   .     S
C104   C105    1.406   .     A
C104   C367    1.376   .     S
C106   O146    1.383   .     S
C106   N119    1.367   .     A
C106   C195    1.427   .     S
C107   Cl151   1.760   .     S
C107   N118    1.374   .     A
C108   N118    1.369   .     A
C108   O152    1.388   .     S
C109   N119    1.377   .     A
C109   Cl157   1.761   .     S
C109   C196    1.442   .     S
C110   O125    1.289   .     A
C110   O124    1.298   .     A
C111   C113    1.453   .     S
C111   O126    1.297   .     A
C111   O127    1.298   .     A
C112   C885    1.403   1_554 S
C112   H909    1.080   1_554 S
C114   C115    1.394   .     A
C114   Cl164   1.756   .     S
C115   C908    1.411   .     S
C115   Cl962   1.766   .     S
C116   O165    1.381   .     S
C116   C882    1.442   1_554 S
C116   C907    1.411   1_554 S
H117   C904    1.080   .     S
N118   Zn128   2.024   .     S
N119   Zn129   2.024   .     S
O120   Zn128   2.022   .     S
O121   Zn129   2.014   .     S
O122   Zn128   1.941   .     S
O123   Zn129   1.873   .     S
O124   Zn128   2.014   .     S
O125   Zn129   2.022   .     S
O126   Zn128   1.873   .     S
O127   Zn129   1.941   .     S
O130   C131    1.412   .     S
C131   H132    1.113   .     S
C131   H133    1.104   .     S
C131   H134    1.111   .     S
O136   C137    1.409   .     S
C137   H139    1.113   .     S
C137   H138    1.113   .     S
C137   H140    1.108   .     S
O141   C142    1.411   .     S
C142   H144    1.114   .     S
C142   H143    1.109   .     S
C142   H145    1.112   .     S
O146   C147    1.413   .     S
C147   H148    1.106   .     S
C147   H149    1.110   .     S
C147   H238    1.102   .     S
O152   C153    1.409   .     S
C153   H154    1.109   .     S
H155   C241    1.113   .     S
H156   C241    1.110   .     S
O159   C160    1.411   .     S
C160   H163    1.109   .     S
C160   H162    1.114   .     S
C160   H953    1.111   1_554 S
H161   C952    1.111   .     S
O165   C166    1.408   .     S
C166   H168    1.108   .     S
C166   H167    1.111   .     S
C166   H169    1.106   .     S
Cl170  C907    1.766   1_554 S
O172   C173    1.411   .     S
C173   H174    1.113   .     S
C173   H175    1.114   .     S
C173   H176    1.109   .     S
C177   O209    1.294   .     A
C177   O208    1.293   .     A
C177   C193    1.439   .     S
C178   C179    1.421   .     A
C178   C972    1.436   .     S
C178   C996    1.442   .     S
C179   C183    1.412   .     A
C179   C186    1.406   .     A
C180   C184    1.421   .     A
C180   C970    1.436   1_554 S
C180   C973    1.430   1_554 S
C181   C182    1.399   .     A
C181   C972    1.430   .     S
C181   C992    1.403   .     S
C182   Cl246   1.776   .     S
C182   C183    1.388   .     A
C183   Cl259   1.766   .     S
C184   C201    1.397   .     A
C184   O247    1.385   .     S
C185   C201    1.400   .     A
C185   O218    1.385   .     S
C185   C200    1.392   .     A
C186   C202    1.392   .     A
C186   C188    1.483   .     S
C187   C193    1.408   .     A
C187   O260    1.385   .     S
C187   C453    1.376   .     S
C188   O211    1.302   .     A
C188   O210    1.305   .     A
C189   C190    1.415   .     A
C189   Cl223   1.773   .     S
C189   C715    1.376   1_545 S
C190   C198    1.441   .     S
C190   C191    1.407   .     A
C191   O224    1.384   .     S
C191   C720    1.376   1_545 S
C192   O229    1.382   .     S
C192   C193    1.406   .     A
C192   C455    1.376   .     S
C194   O234    1.383   .     S
C194   N207    1.367   .     A
C194   C19     1.427   1_655 S
C195   Cl239   1.760   .     S
C195   N206    1.374   .     A
C196   N206    1.369   .     A
C196   O240    1.388   .     S
C197   N207    1.377   .     A
C197   Cl245   1.761   .     S
C197   C20     1.442   1_655 S
C198   O213    1.289   .     A
C198   O212    1.298   .     A
C199   C201    1.453   .     S
C199   O214    1.297   .     A
C199   O215    1.298   .     A
C200   C973    1.403   1_554 S
C200   H997    1.080   1_554 S
C202   C203    1.394   .     A
C202   Cl252   1.756   .     S
C203   C996    1.411   .     S
C203   Cl1050  1.766   .     S
C204   O253    1.381   .     S
C204   C970    1.442   1_554 S
C204   C995    1.411   1_554 S
H205   C992    1.080   .     S
N206   Zn216   2.024   .     S
N207   Zn217   2.024   .     S
O208   Zn216   2.022   .     S
O209   Zn217   2.014   .     S
O210   Zn216   1.941   .     S
O211   Zn217   1.873   .     S
O212   Zn216   2.014   .     S
O213   Zn217   2.022   .     S
O214   Zn216   1.873   .     S
O215   Zn217   1.941   .     S
O218   C219    1.412   .     S
C219   H220    1.113   .     S
C219   H221    1.104   .     S
C219   H222    1.111   .     S
O224   C225    1.409   .     S
C225   H227    1.113   .     S
C225   H226    1.113   .     S
C225   H228    1.108   .     S
O229   C230    1.411   .     S
C230   H232    1.114   .     S
C230   H231    1.109   .     S
C230   H233    1.112   .     S
O234   C235    1.413   .     S
C235   H236    1.106   .     S
C235   H237    1.110   .     S
C235   H62     1.102   1_655 S
O240   C241    1.409   .     S
C241   H242    1.109   .     S
H243   C65     1.113   1_655 S
H244   C65     1.110   1_655 S
O247   C248    1.411   .     S
C248   H251    1.109   .     S
C248   H250    1.114   .     S
C248   H1041   1.111   1_554 S
H249   C1040   1.111   .     S
O253   C254    1.408   .     S
C254   H256    1.108   .     S
C254   H255    1.111   .     S
C254   H257    1.106   .     S
Cl258  C995    1.766   1_554 S
O260   C261    1.411   .     S
C261   H262    1.113   .     S
C261   H263    1.114   .     S
C261   H264    1.109   .     S
C265   O297    1.294   .     A
C265   O296    1.293   .     A
C265   C281    1.439   .     S
C266   C267    1.421   .     A
C266   C1060   1.436   .     S
C266   C1084   1.442   .     S
C267   C271    1.412   .     A
C267   C274    1.406   .     A
C268   C272    1.421   .     A
C268   C1058   1.436   1_554 S
C268   C1061   1.430   1_554 S
C269   C270    1.399   .     A
C269   C1060   1.430   .     S
C269   C1080   1.403   .     S
C270   Cl334   1.776   .     S
C270   C271    1.388   .     A
C271   Cl347   1.766   .     S
C272   C289    1.397   .     A
C272   O335    1.385   .     S
C273   C289    1.400   .     A
C273   O306    1.385   .     S
C273   C288    1.392   .     A
C274   C290    1.392   .     A
C274   C276    1.483   .     S
C275   C281    1.408   .     A
C275   O348    1.385   .     S
C275   C541    1.376   .     S
C276   O299    1.302   .     A
C276   O298    1.305   .     A
C277   C278    1.415   .     A
C277   Cl311   1.773   .     S
C278   C286    1.441   .     S
C278   C279    1.407   .     A
C279   O312    1.384   .     S
C280   O317    1.382   .     S
C280   C281    1.406   .     A
C280   C543    1.376   .     S
C282   O322    1.383   .     S
C282   N295    1.367   .     A
C282   C371    1.427   .     S
C283   Cl327   1.760   .     S
C283   N294    1.374   .     A
C283   C458    1.427   1_455 S
C284   N294    1.369   .     A
C284   O328    1.388   .     S
C284   C461    1.442   1_455 S
C285   N295    1.377   .     A
C285   Cl333   1.761   .     S
C285   C372    1.442   .     S
C286   O301    1.289   .     A
C286   O300    1.298   .     A
C287   C289    1.453   .     S
C287   O302    1.297   .     A
C287   O303    1.298   .     A
C288   C1061   1.403   1_554 S
C288   H1085   1.080   1_554 S
C290   C291    1.394   .     A
C290   Cl340   1.756   .     S
C291   C1084   1.411   .     S
C291   Cl1138  1.766   .     S
C292   O341    1.381   .     S
C292   C1058   1.442   1_554 S
C292   C1083   1.411   1_554 S
H293   C1080   1.080   .     S
N294   Zn304   2.024   .     S
N295   Zn305   2.024   .     S
O296   Zn304   2.022   .     S
O297   Zn305   2.014   .     S
O298   Zn304   1.941   .     S
O299   Zn305   1.873   .     S
O300   Zn304   2.014   .     S
O301   Zn305   2.022   .     S
O302   Zn304   1.873   .     S
O303   Zn305   1.941   .     S
O306   C307    1.412   .     S
C307   H308    1.113   .     S
C307   H309    1.104   .     S
C307   H310    1.111   .     S
O312   C313    1.409   .     S
C313   H315    1.113   .     S
C313   H314    1.113   .     S
C313   H316    1.108   .     S
O317   C318    1.411   .     S
C318   H320    1.114   .     S
C318   H319    1.109   .     S
C318   H321    1.112   .     S
O322   C323    1.413   .     S
C323   H324    1.106   .     S
C323   H325    1.110   .     S
C323   H414    1.102   .     S
H326   C499    1.102   1_455 S
O328   C329    1.409   .     S
C329   H330    1.109   .     S
C329   H507    1.113   1_455 S
C329   H508    1.110   1_455 S
H331   C417    1.113   .     S
H332   C417    1.110   .     S
O335   C336    1.411   .     S
C336   H339    1.109   .     S
C336   H338    1.114   .     S
C336   H1129   1.111   1_554 S
H337   C1128   1.111   .     S
O341   C342    1.408   .     S
C342   H344    1.108   .     S
C342   H343    1.111   .     S
C342   H345    1.106   .     S
Cl346  C1083   1.766   1_554 S
O348   C349    1.411   .     S
C349   H350    1.113   .     S
C349   H351    1.114   .     S
C349   H352    1.109   .     S
C353   O385    1.294   .     A
C353   O384    1.293   .     A
C353   C369    1.439   .     S
C354   C355    1.421   .     A
C354   C1148   1.436   .     S
C354   C1172   1.442   .     S
C355   C359    1.412   .     A
C355   C362    1.406   .     A
C356   C360    1.421   .     A
C356   C1146   1.436   1_554 S
C356   C1149   1.430   1_554 S
C357   C358    1.399   .     A
C357   C1148   1.430   .     S
C357   C1168   1.403   .     S
C358   Cl422   1.776   .     S
C358   C359    1.388   .     A
C359   Cl435   1.766   .     S
C360   C377    1.397   .     A
C360   O423    1.385   .     S
C361   C377    1.400   .     A
C361   O394    1.385   .     S
C361   C376    1.392   .     A
C362   C378    1.392   .     A
C362   C364    1.483   .     S
C363   C369    1.408   .     A
C363   O436    1.385   .     S
C363   C629    1.376   .     S
C364   O387    1.302   .     A
C364   O386    1.305   .     A
C365   C366    1.415   .     A
C365   Cl399   1.773   .     S
C366   C374    1.441   .     S
C366   C367    1.407   .     A
C367   O400    1.384   .     S
C368   O405    1.382   .     S
C368   C369    1.406   .     A
C368   C631    1.376   .     S
C370   O410    1.383   .     S
C370   N383    1.367   .     A
C370   C459    1.427   .     S
C371   Cl415   1.760   .     S
C371   N382    1.374   .     A
C372   N382    1.369   .     A
C372   O416    1.388   .     S
C373   N383    1.377   .     A
C373   Cl421   1.761   .     S
C373   C460    1.442   .     S
C374   O389    1.289   .     A
C374   O388    1.298   .     A
C375   C377    1.453   .     S
C375   O390    1.297   .     A
C375   O391    1.298   .     A
C376   C1149   1.403   1_554 S
C376   H1173   1.080   1_554 S
C378   C379    1.394   .     A
C378   Cl428   1.756   .     S
C379   C1172   1.411   .     S
C379   Cl1226  1.766   .     S
C380   O429    1.381   .     S
C380   C1146   1.442   1_554 S
C380   C1171   1.411   1_554 S
H381   C1168   1.080   .     S
N382   Zn392   2.024   .     S
N383   Zn393   2.024   .     S
O384   Zn392   2.022   .     S
O385   Zn393   2.014   .     S
O386   Zn392   1.941   .     S
O387   Zn393   1.873   .     S
O388   Zn392   2.014   .     S
O389   Zn393   2.022   .     S
O390   Zn392   1.873   .     S
O391   Zn393   1.941   .     S
O394   C395    1.412   .     S
C395   H396    1.113   .     S
C395   H397    1.104   .     S
C395   H398    1.111   .     S
O400   C401    1.409   .     S
C401   H403    1.113   .     S
C401   H402    1.113   .     S
C401   H404    1.108   .     S
O405   C406    1.411   .     S
C406   H408    1.114   .     S
C406   H407    1.109   .     S
C406   H409    1.112   .     S
O410   C411    1.413   .     S
C411   H412    1.106   .     S
C411   H413    1.110   .     S
C411   H502    1.102   .     S
O416   C417    1.409   .     S
C417   H418    1.109   .     S
H419   C505    1.113   .     S
H420   C505    1.110   .     S
O423   C424    1.411   .     S
C424   H427    1.109   .     S
C424   H426    1.114   .     S
C424   H1217   1.111   1_554 S
H425   C1216   1.111   .     S
O429   C430    1.408   .     S
C430   H432    1.108   .     S
C430   H431    1.111   .     S
C430   H433    1.106   .     S
Cl434  C1171   1.766   1_554 S
O436   C437    1.411   .     S
C437   H438    1.113   .     S
C437   H439    1.114   .     S
C437   H440    1.109   .     S
C441   O473    1.294   .     A
C441   O472    1.293   .     A
C441   C457    1.439   .     S
C442   C443    1.421   .     A
C442   C1236   1.436   .     S
C442   C1260   1.442   .     S
C443   C447    1.412   .     A
C443   C450    1.406   .     A
C444   C448    1.421   .     A
C444   C1234   1.436   1_554 S
C444   C1237   1.430   1_554 S
C445   C446    1.399   .     A
C445   C1236   1.430   .     S
C445   C1256   1.403   .     S
C446   Cl510   1.776   .     S
C446   C447    1.388   .     A
C447   Cl523   1.766   .     S
C448   C465    1.397   .     A
C448   O511    1.385   .     S
C449   C465    1.400   .     A
C449   O482    1.385   .     S
C449   C464    1.392   .     A
C450   C466    1.392   .     A
C450   C452    1.483   .     S
C451   C457    1.408   .     A
C451   O524    1.385   .     S
C451   C717    1.376   .     S
C452   O475    1.302   .     A
C452   O474    1.305   .     A
C453   C454    1.415   .     A
C453   Cl487   1.773   .     S
C454   C462    1.441   .     S
C454   C455    1.407   .     A
C455   O488    1.384   .     S
C456   O493    1.382   .     S
C456   C457    1.406   .     A
C456   C719    1.376   .     S
C458   O498    1.383   .     S
C458   N471    1.367   .     A
C458   C283    1.427   1_655 S
C459   Cl503   1.760   .     S
C459   N470    1.374   .     A
C460   N470    1.369   .     A
C460   O504    1.388   .     S
C461   N471    1.377   .     A
C461   Cl509   1.761   .     S
C461   C284    1.442   1_655 S
C462   O477    1.289   .     A
C462   O476    1.298   .     A
C463   C465    1.453   .     S
C463   O478    1.297   .     A
C463   O479    1.298   .     A
C464   C1237   1.403   1_554 S
C464   H1261   1.080   1_554 S
C466   C467    1.394   .     A
C466   Cl516   1.756   .     S
C467   C1260   1.411   .     S
C467   Cl1314  1.766   .     S
C468   O517    1.381   .     S
C468   C1234   1.442   1_554 S
C468   C1259   1.411   1_554 S
H469   C1256   1.080   .     S
N470   Zn480   2.024   .     S
N471   Zn481   2.024   .     S
O472   Zn480   2.022   .     S
O473   Zn481   2.014   .     S
O474   Zn480   1.941   .     S
O475   Zn481   1.873   .     S
O476   Zn480   2.014   .     S
O477   Zn481   2.022   .     S
O478   Zn480   1.873   .     S
O479   Zn481   1.941   .     S
O482   C483    1.412   .     S
C483   H484    1.113   .     S
C483   H485    1.104   .     S
C483   H486    1.111   .     S
O488   C489    1.409   .     S
C489   H491    1.113   .     S
C489   H490    1.113   .     S
C489   H492    1.108   .     S
O493   C494    1.411   .     S
C494   H496    1.114   .     S
C494   H495    1.109   .     S
C494   H497    1.112   .     S
O498   C499    1.413   .     S
C499   H500    1.106   .     S
C499   H501    1.110   .     S
C499   H326    1.102   1_655 S
O504   C505    1.409   .     S
C505   H506    1.109   .     S
H507   C329    1.113   1_655 S
H508   C329    1.110   1_655 S
O511   C512    1.411   .     S
C512   H515    1.109   .     S
C512   H514    1.114   .     S
C512   H1305   1.111   1_554 S
H513   C1304   1.111   .     S
O517   C518    1.408   .     S
C518   H520    1.108   .     S
C518   H519    1.111   .     S
C518   H521    1.106   .     S
Cl522  C1259   1.766   1_554 S
O524   C525    1.411   .     S
C525   H526    1.113   .     S
C525   H527    1.114   .     S
C525   H528    1.109   .     S
C529   O561    1.294   .     A
C529   O560    1.293   .     A
C529   C545    1.439   .     S
C530   C531    1.421   .     A
C530   C1324   1.436   .     S
C530   C1348   1.442   .     S
C531   C535    1.412   .     A
C531   C538    1.406   .     A
C532   C536    1.421   .     A
C532   C1322   1.436   1_554 S
C532   C1325   1.430   1_554 S
C533   C534    1.399   .     A
C533   C1324   1.430   .     S
C533   C1344   1.403   .     S
C534   Cl598   1.776   .     S
C534   C535    1.388   .     A
C535   Cl611   1.766   .     S
C536   C553    1.397   .     A
C536   O599    1.385   .     S
C537   C553    1.400   .     A
C537   O570    1.385   .     S
C537   C552    1.392   .     A
C538   C554    1.392   .     A
C538   C540    1.483   .     S
C539   C545    1.408   .     A
C539   O612    1.385   .     S
C539   C13     1.376   1_565 S
C540   O563    1.302   .     A
C540   O562    1.305   .     A
C541   C542    1.415   .     A
C541   Cl575   1.773   .     S
C542   C550    1.441   .     S
C542   C543    1.407   .     A
C543   O576    1.384   .     S
C544   O581    1.382   .     S
C544   C545    1.406   .     A
C544   C15     1.376   1_565 S
C546   O586    1.383   .     S
C546   N559    1.367   .     A
C546   C635    1.427   .     S
C547   Cl591   1.760   .     S
C547   N558    1.374   .     A
C547   C722    1.427   1_455 S
C548   N558    1.369   .     A
C548   O592    1.388   .     S
C548   C725    1.442   1_455 S
C549   N559    1.377   .     A
C549   Cl597   1.761   .     S
C549   C636    1.442   .     S
C550   O565    1.289   .     A
C550   O564    1.298   .     A
C551   C553    1.453   .     S
C551   O566    1.297   .     A
C551   O567    1.298   .     A
C552   C1325   1.403   1_554 S
C552   H1349   1.080   1_554 S
C554   C555    1.394   .     A
C554   Cl604   1.756   .     S
C555   C1348   1.411   .     S
C555   Cl1402  1.766   .     S
C556   O605    1.381   .     S
C556   C1322   1.442   1_554 S
C556   C1347   1.411   1_554 S
H557   C1344   1.080   .     S
N558   Zn568   2.024   .     S
N559   Zn569   2.024   .     S
O560   Zn568   2.022   .     S
O561   Zn569   2.014   .     S
O562   Zn568   1.941   .     S
O563   Zn569   1.873   .     S
O564   Zn568   2.014   .     S
O565   Zn569   2.022   .     S
O566   Zn568   1.873   .     S
O567   Zn569   1.941   .     S
O570   C571    1.412   .     S
C571   H572    1.113   .     S
C571   H573    1.104   .     S
C571   H574    1.111   .     S
O576   C577    1.409   .     S
C577   H579    1.113   .     S
C577   H578    1.113   .     S
C577   H580    1.108   .     S
O581   C582    1.411   .     S
C582   H584    1.114   .     S
C582   H583    1.109   .     S
C582   H585    1.112   .     S
O586   C587    1.413   .     S
C587   H588    1.106   .     S
C587   H589    1.110   .     S
C587   H678    1.102   .     S
H590   C763    1.102   1_455 S
O592   C593    1.409   .     S
C593   H594    1.109   .     S
C593   H771    1.113   1_455 S
C593   H772    1.110   1_455 S
H595   C681    1.113   .     S
H596   C681    1.110   .     S
O599   C600    1.411   .     S
C600   H603    1.109   .     S
C600   H602    1.114   .     S
C600   H1393   1.111   1_554 S
H601   C1392   1.111   .     S
O605   C606    1.408   .     S
C606   H608    1.108   .     S
C606   H607    1.111   .     S
C606   H609    1.106   .     S
Cl610  C1347   1.766   1_554 S
O612   C613    1.411   .     S
C613   H614    1.113   .     S
C613   H615    1.114   .     S
C613   H616    1.109   .     S
C617   O649    1.294   .     A
C617   O648    1.293   .     A
C617   C633    1.439   .     S
C618   C619    1.421   .     A
C618   C1412   1.436   .     S
C618   C1436   1.442   .     S
C619   C623    1.412   .     A
C619   C626    1.406   .     A
C620   C624    1.421   .     A
C620   C1410   1.436   1_554 S
C620   C1413   1.430   1_554 S
C621   C622    1.399   .     A
C621   C1412   1.430   .     S
C621   C1432   1.403   .     S
C622   Cl686   1.776   .     S
C622   C623    1.388   .     A
C623   Cl699   1.766   .     S
C624   C641    1.397   .     A
C624   O687    1.385   .     S
C625   C641    1.400   .     A
C625   O658    1.385   .     S
C625   C640    1.392   .     A
C626   C642    1.392   .     A
C626   C628    1.483   .     S
C627   C633    1.408   .     A
C627   O700    1.385   .     S
C627   C101    1.376   1_565 S
C628   O651    1.302   .     A
C628   O650    1.305   .     A
C629   C630    1.415   .     A
C629   Cl663   1.773   .     S
C630   C638    1.441   .     S
C630   C631    1.407   .     A
C631   O664    1.384   .     S
C632   O669    1.382   .     S
C632   C633    1.406   .     A
C632   C103    1.376   1_565 S
C634   O674    1.383   .     S
C634   N647    1.367   .     A
C634   C723    1.427   .     S
C635   Cl679   1.760   .     S
C635   N646    1.374   .     A
C636   N646    1.369   .     A
C636   O680    1.388   .     S
C637   N647    1.377   .     A
C637   Cl685   1.761   .     S
C637   C724    1.442   .     S
C638   O653    1.289   .     A
C638   O652    1.298   .     A
C639   C641    1.453   .     S
C639   O654    1.297   .     A
C639   O655    1.298   .     A
C640   C1413   1.403   1_554 S
C640   H1437   1.080   1_554 S
C642   C643    1.394   .     A
C642   Cl692   1.756   .     S
C643   C1436   1.411   .     S
C643   Cl1490  1.766   .     S
C644   O693    1.381   .     S
C644   C1410   1.442   1_554 S
C644   C1435   1.411   1_554 S
H645   C1432   1.080   .     S
N646   Zn656   2.024   .     S
N647   Zn657   2.024   .     S
O648   Zn656   2.022   .     S
O649   Zn657   2.014   .     S
O650   Zn656   1.941   .     S
O651   Zn657   1.873   .     S
O652   Zn656   2.014   .     S
O653   Zn657   2.022   .     S
O654   Zn656   1.873   .     S
O655   Zn657   1.941   .     S
O658   C659    1.412   .     S
C659   H660    1.113   .     S
C659   H661    1.104   .     S
C659   H662    1.111   .     S
O664   C665    1.409   .     S
C665   H667    1.113   .     S
C665   H666    1.113   .     S
C665   H668    1.108   .     S
O669   C670    1.411   .     S
C670   H672    1.114   .     S
C670   H671    1.109   .     S
C670   H673    1.112   .     S
O674   C675    1.413   .     S
C675   H676    1.106   .     S
C675   H677    1.110   .     S
C675   H766    1.102   .     S
O680   C681    1.409   .     S
C681   H682    1.109   .     S
H683   C769    1.113   .     S
H684   C769    1.110   .     S
O687   C688    1.411   .     S
C688   H691    1.109   .     S
C688   H690    1.114   .     S
C688   H1481   1.111   1_554 S
H689   C1480   1.111   .     S
O693   C694    1.408   .     S
C694   H696    1.108   .     S
C694   H695    1.111   .     S
C694   H697    1.106   .     S
Cl698  C1435   1.766   1_554 S
O700   C701    1.411   .     S
C701   H702    1.113   .     S
C701   H703    1.114   .     S
C701   H704    1.109   .     S
C705   O737    1.294   .     A
C705   O736    1.293   .     A
C705   C721    1.439   .     S
C706   C707    1.421   .     A
C706   C1500   1.436   .     S
C706   C1524   1.442   .     S
C707   C711    1.412   .     A
C707   C714    1.406   .     A
C708   C712    1.421   .     A
C708   C1498   1.436   1_554 S
C708   C1501   1.430   1_554 S
C709   C710    1.399   .     A
C709   C1500   1.430   .     S
C709   C1520   1.403   .     S
C710   Cl774   1.776   .     S
C710   C711    1.388   .     A
C711   Cl787   1.766   .     S
C712   C729    1.397   .     A
C712   O775    1.385   .     S
C713   C729    1.400   .     A
C713   O746    1.385   .     S
C713   C728    1.392   .     A
C714   C730    1.392   .     A
C714   C716    1.483   .     S
C715   C721    1.408   .     A
C715   O788    1.385   .     S
C715   C189    1.376   1_565 S
C716   O739    1.302   .     A
C716   O738    1.305   .     A
C717   C718    1.415   .     A
C717   Cl751   1.773   .     S
C718   C726    1.441   .     S
C718   C719    1.407   .     A
C719   O752    1.384   .     S
C720   O757    1.382   .     S
C720   C721    1.406   .     A
C720   C191    1.376   1_565 S
C722   O762    1.383   .     S
C722   N735    1.367   .     A
C722   C547    1.427   1_655 S
C723   Cl767   1.760   .     S
C723   N734    1.374   .     A
C724   N734    1.369   .     A
C724   O768    1.388   .     S
C725   N735    1.377   .     A
C725   Cl773   1.761   .     S
C725   C548    1.442   1_655 S
C726   O741    1.289   .     A
C726   O740    1.298   .     A
C727   C729    1.453   .     S
C727   O742    1.297   .     A
C727   O743    1.298   .     A
C728   C1501   1.403   1_554 S
C728   H1525   1.080   1_554 S
C730   C731    1.394   .     A
C730   Cl780   1.756   .     S
C731   C1524   1.411   .     S
C731   Cl1578  1.766   .     S
C732   O781    1.381   .     S
C732   C1498   1.442   1_554 S
C732   C1523   1.411   1_554 S
H733   C1520   1.080   .     S
N734   Zn744   2.024   .     S
N735   Zn745   2.024   .     S
O736   Zn744   2.022   .     S
O737   Zn745   2.014   .     S
O738   Zn744   1.941   .     S
O739   Zn745   1.873   .     S
O740   Zn744   2.014   .     S
O741   Zn745   2.022   .     S
O742   Zn744   1.873   .     S
O743   Zn745   1.941   .     S
O746   C747    1.412   .     S
C747   H748    1.113   .     S
C747   H749    1.104   .     S
C747   H750    1.111   .     S
O752   C753    1.409   .     S
C753   H755    1.113   .     S
C753   H754    1.113   .     S
C753   H756    1.108   .     S
O757   C758    1.411   .     S
C758   H760    1.114   .     S
C758   H759    1.109   .     S
C758   H761    1.112   .     S
O762   C763    1.413   .     S
C763   H764    1.106   .     S
C763   H765    1.110   .     S
C763   H590    1.102   1_655 S
O768   C769    1.409   .     S
C769   H770    1.109   .     S
H771   C593    1.113   1_655 S
H772   C593    1.110   1_655 S
O775   C776    1.411   .     S
C776   H779    1.109   .     S
C776   H778    1.114   .     S
C776   H1569   1.111   1_554 S
H777   C1568   1.111   .     S
O781   C782    1.408   .     S
C782   H784    1.108   .     S
C782   H783    1.111   .     S
C782   H785    1.106   .     S
Cl786  C1523   1.766   1_554 S
O788   C789    1.411   .     S
C789   H790    1.113   .     S
C789   H791    1.114   .     S
C789   H792    1.109   .     S
C793   O825    1.294   .     A
C793   O824    1.293   .     A
C793   C809    1.439   .     S
C794   C795    1.421   .     A
C794   C4      1.436   1_556 S
C794   C28     1.442   1_556 S
C795   C799    1.412   .     A
C795   C802    1.406   .     A
C796   C800    1.421   .     A
C797   C798    1.399   .     A
C797   C4      1.430   1_556 S
C797   C24     1.403   1_556 S
C798   Cl862   1.776   .     S
C798   C799    1.388   .     A
C799   Cl875   1.766   .     S
C800   C817    1.397   .     A
C800   O863    1.385   .     S
C801   C817    1.400   .     A
C801   O834    1.385   .     S
C801   C816    1.392   .     A
C802   C818    1.392   .     A
C802   C804    1.483   .     S
C803   C809    1.408   .     A
C803   O876    1.385   .     S
C803   C1069   1.376   .     S
C804   O827    1.302   .     A
C804   O826    1.305   .     A
C805   C806    1.415   .     A
C805   Cl839   1.773   .     S
C805   C1331   1.376   1_545 S
C806   C814    1.441   .     S
C806   C807    1.407   .     A
C807   O840    1.384   .     S
C807   C1336   1.376   1_545 S
C808   O845    1.382   .     S
C808   C809    1.406   .     A
C808   C1071   1.376   .     S
C810   O850    1.383   .     S
C810   N823    1.367   .     A
C810   C899    1.427   .     S
C811   Cl855   1.760   .     S
C811   N822    1.374   .     A
C811   C986    1.427   1_455 S
C812   N822    1.369   .     A
C812   O856    1.388   .     S
C812   C989    1.442   1_455 S
C813   N823    1.377   .     A
C813   Cl861   1.761   .     S
C813   C900    1.442   .     S
C814   O829    1.289   .     A
C814   O828    1.298   .     A
C815   C817    1.453   .     S
C815   O830    1.297   .     A
C815   O831    1.298   .     A
C818   C819    1.394   .     A
C818   Cl868   1.756   .     S
C819   C28     1.411   1_556 S
C819   Cl82    1.766   1_556 S
C820   O869    1.381   .     S
H821   C24     1.080   1_556 S
N822   Zn832   2.024   .     S
N823   Zn833   2.024   .     S
O824   Zn832   2.022   .     S
O825   Zn833   2.014   .     S
O826   Zn832   1.941   .     S
O827   Zn833   1.873   .     S
O828   Zn832   2.014   .     S
O829   Zn833   2.022   .     S
O830   Zn832   1.873   .     S
O831   Zn833   1.941   .     S
O834   C835    1.412   .     S
C835   H836    1.113   .     S
C835   H837    1.104   .     S
C835   H838    1.111   .     S
O840   C841    1.409   .     S
C841   H843    1.113   .     S
C841   H842    1.113   .     S
C841   H844    1.108   .     S
O845   C846    1.411   .     S
C846   H848    1.114   .     S
C846   H847    1.109   .     S
C846   H849    1.112   .     S
O850   C851    1.413   .     S
C851   H852    1.106   .     S
C851   H853    1.110   .     S
C851   H942    1.102   .     S
H854   C1027   1.102   1_455 S
O856   C857    1.409   .     S
C857   H858    1.109   .     S
C857   H1035   1.113   1_455 S
C857   H1036   1.110   1_455 S
H859   C945    1.113   .     S
H860   C945    1.110   .     S
O863   C864    1.411   .     S
C864   H867    1.109   .     S
C864   H866    1.114   .     S
H865   C72     1.111   1_556 S
O869   C870    1.408   .     S
C870   H872    1.108   .     S
C870   H871    1.111   .     S
C870   H873    1.106   .     S
O876   C877    1.411   .     S
C877   H878    1.113   .     S
C877   H879    1.114   .     S
C877   H880    1.109   .     S
C881   O913    1.294   .     A
C881   O912    1.293   .     A
C881   C897    1.439   .     S
C882   C883    1.421   .     A
C882   C92     1.436   1_556 S
C882   C116    1.442   1_556 S
C883   C887    1.412   .     A
C883   C890    1.406   .     A
C884   C888    1.421   .     A
C885   C886    1.399   .     A
C885   C92     1.430   1_556 S
C885   C112    1.403   1_556 S
C886   Cl950   1.776   .     S
C886   C887    1.388   .     A
C887   Cl963   1.766   .     S
C888   C905    1.397   .     A
C888   O951    1.385   .     S
C889   C905    1.400   .     A
C889   O922    1.385   .     S
C889   C904    1.392   .     A
C890   C906    1.392   .     A
C890   C892    1.483   .     S
C891   C897    1.408   .     A
C891   O964    1.385   .     S
C891   C1157   1.376   .     S
C892   O915    1.302   .     A
C892   O914    1.305   .     A
C893   C894    1.415   .     A
C893   Cl927   1.773   .     S
C893   C1419   1.376   1_545 S
C894   C902    1.441   .     S
C894   C895    1.407   .     A
C895   O928    1.384   .     S
C895   C1424   1.376   1_545 S
C896   O933    1.382   .     S
C896   C897    1.406   .     A
C896   C1159   1.376   .     S
C898   O938    1.383   .     S
C898   N911    1.367   .     A
C898   C987    1.427   .     S
C899   Cl943   1.760   .     S
C899   N910    1.374   .     A
C900   N910    1.369   .     A
C900   O944    1.388   .     S
C901   N911    1.377   .     A
C901   Cl949   1.761   .     S
C901   C988    1.442   .     S
C902   O917    1.289   .     A
C902   O916    1.298   .     A
C903   C905    1.453   .     S
C903   O918    1.297   .     A
C903   O919    1.298   .     A
C906   C907    1.394   .     A
C906   Cl956   1.756   .     S
C907   C116    1.411   1_556 S
C907   Cl170   1.766   1_556 S
C908   O957    1.381   .     S
H909   C112    1.080   1_556 S
N910   Zn920   2.024   .     S
N911   Zn921   2.024   .     S
O912   Zn920   2.022   .     S
O913   Zn921   2.014   .     S
O914   Zn920   1.941   .     S
O915   Zn921   1.873   .     S
O916   Zn920   2.014   .     S
O917   Zn921   2.022   .     S
O918   Zn920   1.873   .     S
O919   Zn921   1.941   .     S
O922   C923    1.412   .     S
C923   H924    1.113   .     S
C923   H925    1.104   .     S
C923   H926    1.111   .     S
O928   C929    1.409   .     S
C929   H931    1.113   .     S
C929   H930    1.113   .     S
C929   H932    1.108   .     S
O933   C934    1.411   .     S
C934   H936    1.114   .     S
C934   H935    1.109   .     S
C934   H937    1.112   .     S
O938   C939    1.413   .     S
C939   H940    1.106   .     S
C939   H941    1.110   .     S
C939   H1030   1.102   .     S
O944   C945    1.409   .     S
C945   H946    1.109   .     S
H947   C1033   1.113   .     S
H948   C1033   1.110   .     S
O951   C952    1.411   .     S
C952   H955    1.109   .     S
C952   H954    1.114   .     S
H953   C160    1.111   1_556 S
O957   C958    1.408   .     S
C958   H960    1.108   .     S
C958   H959    1.111   .     S
C958   H961    1.106   .     S
O964   C965    1.411   .     S
C965   H966    1.113   .     S
C965   H967    1.114   .     S
C965   H968    1.109   .     S
C969   O1001   1.294   .     A
C969   O1000   1.293   .     A
C969   C985    1.439   .     S
C970   C971    1.421   .     A
C970   C180    1.436   1_556 S
C970   C204    1.442   1_556 S
C971   C975    1.412   .     A
C971   C978    1.406   .     A
C972   C976    1.421   .     A
C973   C974    1.399   .     A
C973   C180    1.430   1_556 S
C973   C200    1.403   1_556 S
C974   Cl1038  1.776   .     S
C974   C975    1.388   .     A
C975   Cl1051  1.766   .     S
C976   C993    1.397   .     A
C976   O1039   1.385   .     S
C977   C993    1.400   .     A
C977   O1010   1.385   .     S
C977   C992    1.392   .     A
C978   C994    1.392   .     A
C978   C980    1.483   .     S
C979   C985    1.408   .     A
C979   O1052   1.385   .     S
C979   C1245   1.376   .     S
C980   O1003   1.302   .     A
C980   O1002   1.305   .     A
C981   C982    1.415   .     A
C981   Cl1015  1.773   .     S
C981   C1507   1.376   1_545 S
C982   C990    1.441   .     S
C982   C983    1.407   .     A
C983   O1016   1.384   .     S
C983   C1512   1.376   1_545 S
C984   O1021   1.382   .     S
C984   C985    1.406   .     A
C984   C1247   1.376   .     S
C986   O1026   1.383   .     S
C986   N999    1.367   .     A
C986   C811    1.427   1_655 S
C987   Cl1031  1.760   .     S
C987   N998    1.374   .     A
C988   N998    1.369   .     A
C988   O1032   1.388   .     S
C989   N999    1.377   .     A
C989   Cl1037  1.761   .     S
C989   C812    1.442   1_655 S
C990   O1005   1.289   .     A
C990   O1004   1.298   .     A
C991   C993    1.453   .     S
C991   O1006   1.297   .     A
C991   O1007   1.298   .     A
C994   C995    1.394   .     A
C994   Cl1044  1.756   .     S
C995   C204    1.411   1_556 S
C995   Cl258   1.766   1_556 S
C996   O1045   1.381   .     S
H997   C200    1.080   1_556 S
N998   Zn1008  2.024   .     S
N999   Zn1009  2.024   .     S
O1000  Zn1008  2.022   .     S
O1001  Zn1009  2.014   .     S
O1002  Zn1008  1.941   .     S
O1003  Zn1009  1.873   .     S
O1004  Zn1008  2.014   .     S
O1005  Zn1009  2.022   .     S
O1006  Zn1008  1.873   .     S
O1007  Zn1009  1.941   .     S
O1010  C1011   1.412   .     S
C1011  H1012   1.113   .     S
C1011  H1013   1.104   .     S
C1011  H1014   1.111   .     S
O1016  C1017   1.409   .     S
C1017  H1019   1.113   .     S
C1017  H1018   1.113   .     S
C1017  H1020   1.108   .     S
O1021  C1022   1.411   .     S
C1022  H1024   1.114   .     S
C1022  H1023   1.109   .     S
C1022  H1025   1.112   .     S
O1026  C1027   1.413   .     S
C1027  H1028   1.106   .     S
C1027  H1029   1.110   .     S
C1027  H854    1.102   1_655 S
O1032  C1033   1.409   .     S
C1033  H1034   1.109   .     S
H1035  C857    1.113   1_655 S
H1036  C857    1.110   1_655 S
O1039  C1040   1.411   .     S
C1040  H1043   1.109   .     S
C1040  H1042   1.114   .     S
H1041  C248    1.111   1_556 S
O1045  C1046   1.408   .     S
C1046  H1048   1.108   .     S
C1046  H1047   1.111   .     S
C1046  H1049   1.106   .     S
O1052  C1053   1.411   .     S
C1053  H1054   1.113   .     S
C1053  H1055   1.114   .     S
C1053  H1056   1.109   .     S
C1057  O1089   1.294   .     A
C1057  O1088   1.293   .     A
C1057  C1073   1.439   .     S
C1058  C1059   1.421   .     A
C1058  C268    1.436   1_556 S
C1058  C292    1.442   1_556 S
C1059  C1063   1.412   .     A
C1059  C1066   1.406   .     A
C1060  C1064   1.421   .     A
C1061  C1062   1.399   .     A
C1061  C268    1.430   1_556 S
C1061  C288    1.403   1_556 S
C1062  Cl1126  1.776   .     S
C1062  C1063   1.388   .     A
C1063  Cl1139  1.766   .     S
C1064  C1081   1.397   .     A
C1064  O1127   1.385   .     S
C1065  C1081   1.400   .     A
C1065  O1098   1.385   .     S
C1065  C1080   1.392   .     A
C1066  C1082   1.392   .     A
C1066  C1068   1.483   .     S
C1067  C1073   1.408   .     A
C1067  O1140   1.385   .     S
C1067  C1333   1.376   .     S
C1068  O1091   1.302   .     A
C1068  O1090   1.305   .     A
C1069  C1070   1.415   .     A
C1069  Cl1103  1.773   .     S
C1070  C1078   1.441   .     S
C1070  C1071   1.407   .     A
C1071  O1104   1.384   .     S
C1072  O1109   1.382   .     S
C1072  C1073   1.406   .     A
C1072  C1335   1.376   .     S
C1074  O1114   1.383   .     S
C1074  N1087   1.367   .     A
C1074  C1163   1.427   .     S
C1075  Cl1119  1.760   .     S
C1075  N1086   1.374   .     A
C1075  C1250   1.427   1_455 S
C1076  N1086   1.369   .     A
C1076  O1120   1.388   .     S
C1076  C1253   1.442   1_455 S
C1077  N1087   1.377   .     A
C1077  Cl1125  1.761   .     S
C1077  C1164   1.442   .     S
C1078  O1093   1.289   .     A
C1078  O1092   1.298   .     A
C1079  C1081   1.453   .     S
C1079  O1094   1.297   .     A
C1079  O1095   1.298   .     A
C1082  C1083   1.394   .     A
C1082  Cl1132  1.756   .     S
C1083  C292    1.411   1_556 S
C1083  Cl346   1.766   1_556 S
C1084  O1133   1.381   .     S
H1085  C288    1.080   1_556 S
N1086  Zn1096  2.024   .     S
N1087  Zn1097  2.024   .     S
O1088  Zn1096  2.022   .     S
O1089  Zn1097  2.014   .     S
O1090  Zn1096  1.941   .     S
O1091  Zn1097  1.873   .     S
O1092  Zn1096  2.014   .     S
O1093  Zn1097  2.022   .     S
O1094  Zn1096  1.873   .     S
O1095  Zn1097  1.941   .     S
O1098  C1099   1.412   .     S
C1099  H1100   1.113   .     S
C1099  H1101   1.104   .     S
C1099  H1102   1.111   .     S
O1104  C1105   1.409   .     S
C1105  H1107   1.113   .     S
C1105  H1106   1.113   .     S
C1105  H1108   1.108   .     S
O1109  C1110   1.411   .     S
C1110  H1112   1.114   .     S
C1110  H1111   1.109   .     S
C1110  H1113   1.112   .     S
O1114  C1115   1.413   .     S
C1115  H1116   1.106   .     S
C1115  H1117   1.110   .     S
C1115  H1206   1.102   .     S
H1118  C1291   1.102   1_455 S
O1120  C1121   1.409   .     S
C1121  H1122   1.109   .     S
C1121  H1299   1.113   1_455 S
C1121  H1300   1.110   1_455 S
H1123  C1209   1.113   .     S
H1124  C1209   1.110   .     S
O1127  C1128   1.411   .     S
C1128  H1131   1.109   .     S
C1128  H1130   1.114   .     S
H1129  C336    1.111   1_556 S
O1133  C1134   1.408   .     S
C1134  H1136   1.108   .     S
C1134  H1135   1.111   .     S
C1134  H1137   1.106   .     S
O1140  C1141   1.411   .     S
C1141  H1142   1.113   .     S
C1141  H1143   1.114   .     S
C1141  H1144   1.109   .     S
C1145  O1177   1.294   .     A
C1145  O1176   1.293   .     A
C1145  C1161   1.439   .     S
C1146  C1147   1.421   .     A
C1146  C356    1.436   1_556 S
C1146  C380    1.442   1_556 S
C1147  C1151   1.412   .     A
C1147  C1154   1.406   .     A
C1148  C1152   1.421   .     A
C1149  C1150   1.399   .     A
C1149  C356    1.430   1_556 S
C1149  C376    1.403   1_556 S
C1150  Cl1214  1.776   .     S
C1150  C1151   1.388   .     A
C1151  Cl1227  1.766   .     S
C1152  C1169   1.397   .     A
C1152  O1215   1.385   .     S
C1153  C1169   1.400   .     A
C1153  O1186   1.385   .     S
C1153  C1168   1.392   .     A
C1154  C1170   1.392   .     A
C1154  C1156   1.483   .     S
C1155  C1161   1.408   .     A
C1155  O1228   1.385   .     S
C1155  C1421   1.376   .     S
C1156  O1179   1.302   .     A
C1156  O1178   1.305   .     A
C1157  C1158   1.415   .     A
C1157  Cl1191  1.773   .     S
C1158  C1166   1.441   .     S
C1158  C1159   1.407   .     A
C1159  O1192   1.384   .     S
C1160  O1197   1.382   .     S
C1160  C1161   1.406   .     A
C1160  C1423   1.376   .     S
C1162  O1202   1.383   .     S
C1162  N1175   1.367   .     A
C1162  C1251   1.427   .     S
C1163  Cl1207  1.760   .     S
C1163  N1174   1.374   .     A
C1164  N1174   1.369   .     A
C1164  O1208   1.388   .     S
C1165  N1175   1.377   .     A
C1165  Cl1213  1.761   .     S
C1165  C1252   1.442   .     S
C1166  O1181   1.289   .     A
C1166  O1180   1.298   .     A
C1167  C1169   1.453   .     S
C1167  O1182   1.297   .     A
C1167  O1183   1.298   .     A
C1170  C1171   1.394   .     A
C1170  Cl1220  1.756   .     S
C1171  C380    1.411   1_556 S
C1171  Cl434   1.766   1_556 S
C1172  O1221   1.381   .     S
H1173  C376    1.080   1_556 S
N1174  Zn1184  2.024   .     S
N1175  Zn1185  2.024   .     S
O1176  Zn1184  2.022   .     S
O1177  Zn1185  2.014   .     S
O1178  Zn1184  1.941   .     S
O1179  Zn1185  1.873   .     S
O1180  Zn1184  2.014   .     S
O1181  Zn1185  2.022   .     S
O1182  Zn1184  1.873   .     S
O1183  Zn1185  1.941   .     S
O1186  C1187   1.412   .     S
C1187  H1188   1.113   .     S
C1187  H1189   1.104   .     S
C1187  H1190   1.111   .     S
O1192  C1193   1.409   .     S
C1193  H1195   1.113   .     S
C1193  H1194   1.113   .     S
C1193  H1196   1.108   .     S
O1197  C1198   1.411   .     S
C1198  H1200   1.114   .     S
C1198  H1199   1.109   .     S
C1198  H1201   1.112   .     S
O1202  C1203   1.413   .     S
C1203  H1204   1.106   .     S
C1203  H1205   1.110   .     S
C1203  H1294   1.102   .     S
O1208  C1209   1.409   .     S
C1209  H1210   1.109   .     S
H1211  C1297   1.113   .     S
H1212  C1297   1.110   .     S
O1215  C1216   1.411   .     S
C1216  H1219   1.109   .     S
C1216  H1218   1.114   .     S
H1217  C424    1.111   1_556 S
O1221  C1222   1.408   .     S
C1222  H1224   1.108   .     S
C1222  H1223   1.111   .     S
C1222  H1225   1.106   .     S
O1228  C1229   1.411   .     S
C1229  H1230   1.113   .     S
C1229  H1231   1.114   .     S
C1229  H1232   1.109   .     S
C1233  O1265   1.294   .     A
C1233  O1264   1.293   .     A
C1233  C1249   1.439   .     S
C1234  C1235   1.421   .     A
C1234  C444    1.436   1_556 S
C1234  C468    1.442   1_556 S
C1235  C1239   1.412   .     A
C1235  C1242   1.406   .     A
C1236  C1240   1.421   .     A
C1237  C1238   1.399   .     A
C1237  C444    1.430   1_556 S
C1237  C464    1.403   1_556 S
C1238  Cl1302  1.776   .     S
C1238  C1239   1.388   .     A
C1239  Cl1315  1.766   .     S
C1240  C1257   1.397   .     A
C1240  O1303   1.385   .     S
C1241  C1257   1.400   .     A
C1241  O1274   1.385   .     S
C1241  C1256   1.392   .     A
C1242  C1258   1.392   .     A
C1242  C1244   1.483   .     S
C1243  C1249   1.408   .     A
C1243  O1316   1.385   .     S
C1243  C1509   1.376   .     S
C1244  O1267   1.302   .     A
C1244  O1266   1.305   .     A
C1245  C1246   1.415   .     A
C1245  Cl1279  1.773   .     S
C1246  C1254   1.441   .     S
C1246  C1247   1.407   .     A
C1247  O1280   1.384   .     S
C1248  O1285   1.382   .     S
C1248  C1249   1.406   .     A
C1248  C1511   1.376   .     S
C1250  O1290   1.383   .     S
C1250  N1263   1.367   .     A
C1250  C1075   1.427   1_655 S
C1251  Cl1295  1.760   .     S
C1251  N1262   1.374   .     A
C1252  N1262   1.369   .     A
C1252  O1296   1.388   .     S
C1253  N1263   1.377   .     A
C1253  Cl1301  1.761   .     S
C1253  C1076   1.442   1_655 S
C1254  O1269   1.289   .     A
C1254  O1268   1.298   .     A
C1255  C1257   1.453   .     S
C1255  O1270   1.297   .     A
C1255  O1271   1.298   .     A
C1258  C1259   1.394   .     A
C1258  Cl1308  1.756   .     S
C1259  C468    1.411   1_556 S
C1259  Cl522   1.766   1_556 S
C1260  O1309   1.381   .     S
H1261  C464    1.080   1_556 S
N1262  Zn1272  2.024   .     S
N1263  Zn1273  2.024   .     S
O1264  Zn1272  2.022   .     S
O1265  Zn1273  2.014   .     S
O1266  Zn1272  1.941   .     S
O1267  Zn1273  1.873   .     S
O1268  Zn1272  2.014   .     S
O1269  Zn1273  2.022   .     S
O1270  Zn1272  1.873   .     S
O1271  Zn1273  1.941   .     S
O1274  C1275   1.412   .     S
C1275  H1276   1.113   .     S
C1275  H1277   1.104   .     S
C1275  H1278   1.111   .     S
O1280  C1281   1.409   .     S
C1281  H1283   1.113   .     S
C1281  H1282   1.113   .     S
C1281  H1284   1.108   .     S
O1285  C1286   1.411   .     S
C1286  H1288   1.114   .     S
C1286  H1287   1.109   .     S
C1286  H1289   1.112   .     S
O1290  C1291   1.413   .     S
C1291  H1292   1.106   .     S
C1291  H1293   1.110   .     S
C1291  H1118   1.102   1_655 S
O1296  C1297   1.409   .     S
C1297  H1298   1.109   .     S
H1299  C1121   1.113   1_655 S
H1300  C1121   1.110   1_655 S
O1303  C1304   1.411   .     S
C1304  H1307   1.109   .     S
C1304  H1306   1.114   .     S
H1305  C512    1.111   1_556 S
O1309  C1310   1.408   .     S
C1310  H1312   1.108   .     S
C1310  H1311   1.111   .     S
C1310  H1313   1.106   .     S
O1316  C1317   1.411   .     S
C1317  H1318   1.113   .     S
C1317  H1319   1.114   .     S
C1317  H1320   1.109   .     S
C1321  O1353   1.294   .     A
C1321  O1352   1.293   .     A
C1321  C1337   1.439   .     S
C1322  C1323   1.421   .     A
C1322  C532    1.436   1_556 S
C1322  C556    1.442   1_556 S
C1323  C1327   1.412   .     A
C1323  C1330   1.406   .     A
C1324  C1328   1.421   .     A
C1325  C1326   1.399   .     A
C1325  C532    1.430   1_556 S
C1325  C552    1.403   1_556 S
C1326  Cl1390  1.776   .     S
C1326  C1327   1.388   .     A
C1327  Cl1403  1.766   .     S
C1328  C1345   1.397   .     A
C1328  O1391   1.385   .     S
C1329  C1345   1.400   .     A
C1329  O1362   1.385   .     S
C1329  C1344   1.392   .     A
C1330  C1346   1.392   .     A
C1330  C1332   1.483   .     S
C1331  C1337   1.408   .     A
C1331  O1404   1.385   .     S
C1331  C805    1.376   1_565 S
C1332  O1355   1.302   .     A
C1332  O1354   1.305   .     A
C1333  C1334   1.415   .     A
C1333  Cl1367  1.773   .     S
C1334  C1342   1.441   .     S
C1334  C1335   1.407   .     A
C1335  O1368   1.384   .     S
C1336  O1373   1.382   .     S
C1336  C1337   1.406   .     A
C1336  C807    1.376   1_565 S
C1338  O1378   1.383   .     S
C1338  N1351   1.367   .     A
C1338  C1427   1.427   .     S
C1339  Cl1383  1.760   .     S
C1339  N1350   1.374   .     A
C1339  C1514   1.427   1_455 S
C1340  N1350   1.369   .     A
C1340  O1384   1.388   .     S
C1340  C1517   1.442   1_455 S
C1341  N1351   1.377   .     A
C1341  Cl1389  1.761   .     S
C1341  C1428   1.442   .     S
C1342  O1357   1.289   .     A
C1342  O1356   1.298   .     A
C1343  C1345   1.453   .     S
C1343  O1358   1.297   .     A
C1343  O1359   1.298   .     A
C1346  C1347   1.394   .     A
C1346  Cl1396  1.756   .     S
C1347  C556    1.411   1_556 S
C1347  Cl610   1.766   1_556 S
C1348  O1397   1.381   .     S
H1349  C552    1.080   1_556 S
N1350  Zn1360  2.024   .     S
N1351  Zn1361  2.024   .     S
O1352  Zn1360  2.022   .     S
O1353  Zn1361  2.014   .     S
O1354  Zn1360  1.941   .     S
O1355  Zn1361  1.873   .     S
O1356  Zn1360  2.014   .     S
O1357  Zn1361  2.022   .     S
O1358  Zn1360  1.873   .     S
O1359  Zn1361  1.941   .     S
O1362  C1363   1.412   .     S
C1363  H1364   1.113   .     S
C1363  H1365   1.104   .     S
C1363  H1366   1.111   .     S
O1368  C1369   1.409   .     S
C1369  H1371   1.113   .     S
C1369  H1370   1.113   .     S
C1369  H1372   1.108   .     S
O1373  C1374   1.411   .     S
C1374  H1376   1.114   .     S
C1374  H1375   1.109   .     S
C1374  H1377   1.112   .     S
O1378  C1379   1.413   .     S
C1379  H1380   1.106   .     S
C1379  H1381   1.110   .     S
C1379  H1470   1.102   .     S
H1382  C1555   1.102   1_455 S
O1384  C1385   1.409   .     S
C1385  H1386   1.109   .     S
C1385  H1563   1.113   1_455 S
C1385  H1564   1.110   1_455 S
H1387  C1473   1.113   .     S
H1388  C1473   1.110   .     S
O1391  C1392   1.411   .     S
C1392  H1395   1.109   .     S
C1392  H1394   1.114   .     S
H1393  C600    1.111   1_556 S
O1397  C1398   1.408   .     S
C1398  H1400   1.108   .     S
C1398  H1399   1.111   .     S
C1398  H1401   1.106   .     S
O1404  C1405   1.411   .     S
C1405  H1406   1.113   .     S
C1405  H1407   1.114   .     S
C1405  H1408   1.109   .     S
C1409  O1441   1.294   .     A
C1409  O1440   1.293   .     A
C1409  C1425   1.439   .     S
C1410  C1411   1.421   .     A
C1410  C620    1.436   1_556 S
C1410  C644    1.442   1_556 S
C1411  C1415   1.412   .     A
C1411  C1418   1.406   .     A
C1412  C1416   1.421   .     A
C1413  C1414   1.399   .     A
C1413  C620    1.430   1_556 S
C1413  C640    1.403   1_556 S
C1414  Cl1478  1.776   .     S
C1414  C1415   1.388   .     A
C1415  Cl1491  1.766   .     S
C1416  C1433   1.397   .     A
C1416  O1479   1.385   .     S
C1417  C1433   1.400   .     A
C1417  O1450   1.385   .     S
C1417  C1432   1.392   .     A
C1418  C1434   1.392   .     A
C1418  C1420   1.483   .     S
C1419  C1425   1.408   .     A
C1419  O1492   1.385   .     S
C1419  C893    1.376   1_565 S
C1420  O1443   1.302   .     A
C1420  O1442   1.305   .     A
C1421  C1422   1.415   .     A
C1421  Cl1455  1.773   .     S
C1422  C1430   1.441   .     S
C1422  C1423   1.407   .     A
C1423  O1456   1.384   .     S
C1424  O1461   1.382   .     S
C1424  C1425   1.406   .     A
C1424  C895    1.376   1_565 S
C1426  O1466   1.383   .     S
C1426  N1439   1.367   .     A
C1426  C1515   1.427   .     S
C1427  Cl1471  1.760   .     S
C1427  N1438   1.374   .     A
C1428  N1438   1.369   .     A
C1428  O1472   1.388   .     S
C1429  N1439   1.377   .     A
C1429  Cl1477  1.761   .     S
C1429  C1516   1.442   .     S
C1430  O1445   1.289   .     A
C1430  O1444   1.298   .     A
C1431  C1433   1.453   .     S
C1431  O1446   1.297   .     A
C1431  O1447   1.298   .     A
C1434  C1435   1.394   .     A
C1434  Cl1484  1.756   .     S
C1435  C644    1.411   1_556 S
C1435  Cl698   1.766   1_556 S
C1436  O1485   1.381   .     S
H1437  C640    1.080   1_556 S
N1438  Zn1448  2.024   .     S
N1439  Zn1449  2.024   .     S
O1440  Zn1448  2.022   .     S
O1441  Zn1449  2.014   .     S
O1442  Zn1448  1.941   .     S
O1443  Zn1449  1.873   .     S
O1444  Zn1448  2.014   .     S
O1445  Zn1449  2.022   .     S
O1446  Zn1448  1.873   .     S
O1447  Zn1449  1.941   .     S
O1450  C1451   1.412   .     S
C1451  H1452   1.113   .     S
C1451  H1453   1.104   .     S
C1451  H1454   1.111   .     S
O1456  C1457   1.409   .     S
C1457  H1459   1.113   .     S
C1457  H1458   1.113   .     S
C1457  H1460   1.108   .     S
O1461  C1462   1.411   .     S
C1462  H1464   1.114   .     S
C1462  H1463   1.109   .     S
C1462  H1465   1.112   .     S
O1466  C1467   1.413   .     S
C1467  H1468   1.106   .     S
C1467  H1469   1.110   .     S
C1467  H1558   1.102   .     S
O1472  C1473   1.409   .     S
C1473  H1474   1.109   .     S
H1475  C1561   1.113   .     S
H1476  C1561   1.110   .     S
O1479  C1480   1.411   .     S
C1480  H1483   1.109   .     S
C1480  H1482   1.114   .     S
H1481  C688    1.111   1_556 S
O1485  C1486   1.408   .     S
C1486  H1488   1.108   .     S
C1486  H1487   1.111   .     S
C1486  H1489   1.106   .     S
O1492  C1493   1.411   .     S
C1493  H1494   1.113   .     S
C1493  H1495   1.114   .     S
C1493  H1496   1.109   .     S
C1497  O1529   1.294   .     A
C1497  O1528   1.293   .     A
C1497  C1513   1.439   .     S
C1498  C1499   1.421   .     A
C1498  C708    1.436   1_556 S
C1498  C732    1.442   1_556 S
C1499  C1503   1.412   .     A
C1499  C1506   1.406   .     A
C1500  C1504   1.421   .     A
C1501  C1502   1.399   .     A
C1501  C708    1.430   1_556 S
C1501  C728    1.403   1_556 S
C1502  Cl1566  1.776   .     S
C1502  C1503   1.388   .     A
C1503  Cl1579  1.766   .     S
C1504  C1521   1.397   .     A
C1504  O1567   1.385   .     S
C1505  C1521   1.400   .     A
C1505  O1538   1.385   .     S
C1505  C1520   1.392   .     A
C1506  C1522   1.392   .     A
C1506  C1508   1.483   .     S
C1507  C1513   1.408   .     A
C1507  O1580   1.385   .     S
C1507  C981    1.376   1_565 S
C1508  O1531   1.302   .     A
C1508  O1530   1.305   .     A
C1509  C1510   1.415   .     A
C1509  Cl1543  1.773   .     S
C1510  C1518   1.441   .     S
C1510  C1511   1.407   .     A
C1511  O1544   1.384   .     S
C1512  O1549   1.382   .     S
C1512  C1513   1.406   .     A
C1512  C983    1.376   1_565 S
C1514  O1554   1.383   .     S
C1514  N1527   1.367   .     A
C1514  C1339   1.427   1_655 S
C1515  Cl1559  1.760   .     S
C1515  N1526   1.374   .     A
C1516  N1526   1.369   .     A
C1516  O1560   1.388   .     S
C1517  N1527   1.377   .     A
C1517  Cl1565  1.761   .     S
C1517  C1340   1.442   1_655 S
C1518  O1533   1.289   .     A
C1518  O1532   1.298   .     A
C1519  C1521   1.453   .     S
C1519  O1534   1.297   .     A
C1519  O1535   1.298   .     A
C1522  C1523   1.394   .     A
C1522  Cl1572  1.756   .     S
C1523  C732    1.411   1_556 S
C1523  Cl786   1.766   1_556 S
C1524  O1573   1.381   .     S
H1525  C728    1.080   1_556 S
N1526  Zn1536  2.024   .     S
N1527  Zn1537  2.024   .     S
O1528  Zn1536  2.022   .     S
O1529  Zn1537  2.014   .     S
O1530  Zn1536  1.941   .     S
O1531  Zn1537  1.873   .     S
O1532  Zn1536  2.014   .     S
O1533  Zn1537  2.022   .     S
O1534  Zn1536  1.873   .     S
O1535  Zn1537  1.941   .     S
O1538  C1539   1.412   .     S
C1539  H1540   1.113   .     S
C1539  H1541   1.104   .     S
C1539  H1542   1.111   .     S
O1544  C1545   1.409   .     S
C1545  H1547   1.113   .     S
C1545  H1546   1.113   .     S
C1545  H1548   1.108   .     S
O1549  C1550   1.411   .     S
C1550  H1552   1.114   .     S
C1550  H1551   1.109   .     S
C1550  H1553   1.112   .     S
O1554  C1555   1.413   .     S
C1555  H1556   1.106   .     S
C1555  H1557   1.110   .     S
C1555  H1382   1.102   1_655 S
O1560  C1561   1.409   .     S
C1561  H1562   1.109   .     S
H1563  C1385   1.113   1_655 S
H1564  C1385   1.110   1_655 S
O1567  C1568   1.411   .     S
C1568  H1571   1.109   .     S
C1568  H1570   1.114   .     S
H1569  C776    1.111   1_556 S
O1573  C1574   1.408   .     S
C1574  H1576   1.108   .     S
C1574  H1575   1.111   .     S
C1574  H1577   1.106   .     S
O1580  C1581   1.411   .     S
C1581  H1582   1.113   .     S
C1581  H1583   1.114   .     S
C1581  H1584   1.109   .     S
