data_str_m3_o1_o16_pcu_sym.142
_audit_creation_date              2020-01-03
_audit_creation_method            'Materials Studio'
_symmetry_space_group_name_H-M    'P1'
_symmetry_Int_Tables_number       1
_symmetry_cell_setting            triclinic
loop_
_symmetry_equiv_pos_as_xyz
  x,y,z
_cell_length_a                    29.5339
_cell_length_b                    32.1510
_cell_length_c                    26.2709
_cell_angle_alpha                 90.3761
_cell_angle_beta                  69.8110
_cell_angle_gamma                 90.0187
loop_
_atom_site_label
_atom_site_type_symbol
_atom_site_fract_x
_atom_site_fract_y
_atom_site_fract_z
_atom_site_U_iso_or_equiv
_atom_site_adp_type
_atom_site_occupancy
C1     C     0.16685   0.24670   0.24938   0.00000  Uiso   1.00
C2     C     0.14417   0.17118   0.49188   0.00000  Uiso   1.00
C3     C     0.15175   0.18634   0.43927   0.00000  Uiso   1.00
C4     C     0.18094   0.17720   0.01436   0.00000  Uiso   1.00
C5     C     0.22163   0.20223   0.48723   0.00000  Uiso   1.00
C6     C     0.22450   0.22210   0.43938   0.00000  Uiso   1.00
C7     C     0.18912   0.21566   0.41647   0.00000  Uiso   1.00
C8     C     0.17807   0.15950   0.06362   0.00000  Uiso   1.00
C9     C     0.25104   0.19456   0.06202   0.00000  Uiso   1.00
C10    C     0.12181   0.17126   0.41136   0.00000  Uiso   1.00
C11    C     0.21041   0.31199   0.23897   0.00000  Uiso   1.00
C12    C     0.13982   0.16871   0.35220   0.00000  Uiso   1.00
C13    C     0.21034   0.02127   0.23931   0.00000  Uiso   1.00
C14    C     0.16674   0.04247   0.24971   0.00000  Uiso   1.00
C15    C     0.12322   0.02132   0.25971   0.00000  Uiso   1.00
C16    C     0.12330   0.31205   0.25940   0.00000  Uiso   1.00
C17    C     0.16688   0.29085   0.24911   0.00000  Uiso   1.00
C18    C     0.29874   0.14174   0.28464   0.00000  Uiso   1.00
C19    C     0.01336   0.14177   0.28466   0.00000  Uiso   1.00
C20    C     0.03457   0.19162   0.21542   0.00000  Uiso   1.00
C21    C     0.31995   0.19159   0.21540   0.00000  Uiso   1.00
C22    C     0.16666   0.08662   0.24997   0.00000  Uiso   1.00
C23    C     0.19348   0.16639   0.14780   0.00000  Uiso   1.00
C24    C     0.25730   0.20942   0.01036   0.00000  Uiso   1.00
C25    C     0.21005   0.17114   0.08940   0.00000  Uiso   1.00
C26    C     0.07819   0.15147   0.43988   0.00000  Uiso   1.00
C27    C     0.06645   0.14310   0.49463   0.00000  Uiso   1.00
C28    C     0.09964   0.15145   0.02019   0.00000  Uiso   1.00
H29    H     0.27624   0.20364   0.08179   0.00000  Uiso   1.00
H30    H     0.24426   0.03747   0.23118   0.00000  Uiso   1.00
H31    H     0.08924   0.03755   0.26812   0.00000  Uiso   1.00
H32    H     0.08935   0.29586   0.26763   0.00000  Uiso   1.00
H33    H     0.27211   0.12179   0.31232   0.00000  Uiso   1.00
H34    H     0.02304   0.12187   0.31236   0.00000  Uiso   1.00
H35    H     0.06118   0.21160   0.18776   0.00000  Uiso   1.00
H36    H     0.31026   0.21151   0.18773   0.00000  Uiso   1.00
H37    H     0.25324   0.24409   0.42092   0.00000  Uiso   1.00
H38    H     0.28834   0.22868   0.49004   0.00000  Uiso   1.00
H39    H     0.14940   0.13848   0.08477   0.00000  Uiso   1.00
H40    H     0.05419   0.14076   0.41932   0.00000  Uiso   1.00
H41    H     0.08883   0.14307   0.06236   0.00000  Uiso   1.00
H42    H     0.03262   0.12803   0.01667   0.00000  Uiso   1.00
H43    H     0.24437   0.29573   0.23066   0.00000  Uiso   1.00
N44    N     0.04760   0.16668   0.25002   0.00000  Uiso   1.00
N45    N     0.28573   0.16665   0.25001   0.00000  Uiso   1.00
O46    O     0.12846   0.22775   0.25001   0.00000  Uiso   1.00
O47    O     0.20490   0.22774   0.25001   0.00000  Uiso   1.00
O48    O     0.10947   0.16666   0.32681   0.00000  Uiso   1.00
O49    O     0.18591   0.16665   0.32681   0.00000  Uiso   1.00
O50    O     0.12843   0.10559   0.25000   0.00000  Uiso   1.00
O51    O     0.20488   0.10558   0.25000   0.00000  Uiso   1.00
O52    O     0.14742   0.16668   0.17319   0.00000  Uiso   1.00
O53    O     0.22387   0.16667   0.17319   0.00000  Uiso   1.00
Zn54   Zn    0.11562   0.16667   0.25000   0.00000  Uiso   1.00
Zn55   Zn    0.21771   0.16666   0.25000   0.00000  Uiso   1.00
Cl56   Cl    0.18759   0.25162   0.36689   0.00000  Uiso   1.00
C57    C     0.50018   0.24670   0.24938   0.00000  Uiso   1.00
C58    C     0.47751   0.17118   0.49188   0.00000  Uiso   1.00
C59    C     0.48509   0.18634   0.43927   0.00000  Uiso   1.00
C60    C     0.51427   0.17720   0.01436   0.00000  Uiso   1.00
C61    C     0.55496   0.20223   0.48723   0.00000  Uiso   1.00
C62    C     0.55783   0.22210   0.43938   0.00000  Uiso   1.00
C63    C     0.52245   0.21566   0.41647   0.00000  Uiso   1.00
C64    C     0.51140   0.15950   0.06362   0.00000  Uiso   1.00
C65    C     0.58437   0.19456   0.06202   0.00000  Uiso   1.00
C66    C     0.45514   0.17126   0.41136   0.00000  Uiso   1.00
C67    C     0.54374   0.31199   0.23897   0.00000  Uiso   1.00
C68    C     0.47315   0.16871   0.35220   0.00000  Uiso   1.00
C69    C     0.54367   0.02127   0.23931   0.00000  Uiso   1.00
C70    C     0.50007   0.04247   0.24971   0.00000  Uiso   1.00
C71    C     0.45656   0.02132   0.25971   0.00000  Uiso   1.00
C72    C     0.45663   0.31205   0.25940   0.00000  Uiso   1.00
C73    C     0.50021   0.29085   0.24911   0.00000  Uiso   1.00
C74    C     0.63207   0.14174   0.28464   0.00000  Uiso   1.00
C75    C     0.34669   0.14177   0.28466   0.00000  Uiso   1.00
C76    C     0.36790   0.19162   0.21542   0.00000  Uiso   1.00
C77    C     0.65328   0.19159   0.21540   0.00000  Uiso   1.00
C78    C     0.49999   0.08662   0.24997   0.00000  Uiso   1.00
C79    C     0.52681   0.16639   0.14780   0.00000  Uiso   1.00
C80    C     0.59063   0.20942   0.01036   0.00000  Uiso   1.00
C81    C     0.54339   0.17114   0.08940   0.00000  Uiso   1.00
C82    C     0.41152   0.15147   0.43988   0.00000  Uiso   1.00
C83    C     0.39978   0.14310   0.49463   0.00000  Uiso   1.00
C84    C     0.43297   0.15145   0.02019   0.00000  Uiso   1.00
H85    H     0.60957   0.20364   0.08179   0.00000  Uiso   1.00
H86    H     0.57760   0.03747   0.23118   0.00000  Uiso   1.00
H87    H     0.42257   0.03755   0.26812   0.00000  Uiso   1.00
H88    H     0.42268   0.29586   0.26763   0.00000  Uiso   1.00
H89    H     0.60545   0.12179   0.31232   0.00000  Uiso   1.00
H90    H     0.35637   0.12187   0.31236   0.00000  Uiso   1.00
H91    H     0.39452   0.21160   0.18776   0.00000  Uiso   1.00
H92    H     0.64359   0.21151   0.18773   0.00000  Uiso   1.00
H93    H     0.58658   0.24409   0.42092   0.00000  Uiso   1.00
H94    H     0.62168   0.22868   0.49004   0.00000  Uiso   1.00
H95    H     0.48273   0.13848   0.08477   0.00000  Uiso   1.00
H96    H     0.38753   0.14076   0.41932   0.00000  Uiso   1.00
H97    H     0.42216   0.14307   0.06236   0.00000  Uiso   1.00
H98    H     0.36595   0.12803   0.01667   0.00000  Uiso   1.00
H99    H     0.57770   0.29573   0.23066   0.00000  Uiso   1.00
N100   N     0.38093   0.16668   0.25002   0.00000  Uiso   1.00
N101   N     0.61906   0.16665   0.25001   0.00000  Uiso   1.00
O102   O     0.46179   0.22775   0.25001   0.00000  Uiso   1.00
O103   O     0.53823   0.22774   0.25001   0.00000  Uiso   1.00
O104   O     0.44280   0.16666   0.32681   0.00000  Uiso   1.00
O105   O     0.51924   0.16665   0.32681   0.00000  Uiso   1.00
O106   O     0.46177   0.10559   0.25000   0.00000  Uiso   1.00
O107   O     0.53821   0.10558   0.25000   0.00000  Uiso   1.00
O108   O     0.48076   0.16668   0.17319   0.00000  Uiso   1.00
O109   O     0.55720   0.16667   0.17319   0.00000  Uiso   1.00
Zn110  Zn    0.44896   0.16667   0.25000   0.00000  Uiso   1.00
Zn111  Zn    0.55104   0.16666   0.25000   0.00000  Uiso   1.00
Cl112  Cl    0.52092   0.25162   0.36689   0.00000  Uiso   1.00
C113   C     0.83352   0.24670   0.24938   0.00000  Uiso   1.00
C114   C     0.81084   0.17118   0.49188   0.00000  Uiso   1.00
C115   C     0.81842   0.18634   0.43927   0.00000  Uiso   1.00
C116   C     0.84760   0.17720   0.01436   0.00000  Uiso   1.00
C117   C     0.88829   0.20223   0.48723   0.00000  Uiso   1.00
C118   C     0.89116   0.22210   0.43938   0.00000  Uiso   1.00
C119   C     0.85578   0.21566   0.41647   0.00000  Uiso   1.00
C120   C     0.84474   0.15950   0.06362   0.00000  Uiso   1.00
C121   C     0.91770   0.19456   0.06202   0.00000  Uiso   1.00
C122   C     0.78848   0.17126   0.41136   0.00000  Uiso   1.00
C123   C     0.87708   0.31199   0.23897   0.00000  Uiso   1.00
C124   C     0.80648   0.16871   0.35220   0.00000  Uiso   1.00
C125   C     0.87700   0.02127   0.23931   0.00000  Uiso   1.00
C126   C     0.83340   0.04247   0.24971   0.00000  Uiso   1.00
C127   C     0.78989   0.02132   0.25971   0.00000  Uiso   1.00
C128   C     0.78996   0.31205   0.25940   0.00000  Uiso   1.00
C129   C     0.83354   0.29085   0.24911   0.00000  Uiso   1.00
C130   C     0.96541   0.14174   0.28464   0.00000  Uiso   1.00
C131   C     0.68002   0.14177   0.28466   0.00000  Uiso   1.00
C132   C     0.70123   0.19162   0.21542   0.00000  Uiso   1.00
C133   C     0.98662   0.19159   0.21540   0.00000  Uiso   1.00
C134   C     0.83332   0.08662   0.24997   0.00000  Uiso   1.00
C135   C     0.86015   0.16639   0.14780   0.00000  Uiso   1.00
C136   C     0.92397   0.20942   0.01036   0.00000  Uiso   1.00
C137   C     0.87672   0.17114   0.08940   0.00000  Uiso   1.00
C138   C     0.74486   0.15147   0.43988   0.00000  Uiso   1.00
C139   C     0.73311   0.14310   0.49463   0.00000  Uiso   1.00
C140   C     0.76630   0.15145   0.02019   0.00000  Uiso   1.00
H141   H     0.94290   0.20364   0.08179   0.00000  Uiso   1.00
H142   H     0.91093   0.03747   0.23118   0.00000  Uiso   1.00
H143   H     0.75591   0.03755   0.26812   0.00000  Uiso   1.00
H144   H     0.75602   0.29586   0.26763   0.00000  Uiso   1.00
H145   H     0.93878   0.12179   0.31232   0.00000  Uiso   1.00
H146   H     0.68970   0.12187   0.31236   0.00000  Uiso   1.00
H147   H     0.72785   0.21160   0.18776   0.00000  Uiso   1.00
H148   H     0.97692   0.21151   0.18773   0.00000  Uiso   1.00
H149   H     0.91991   0.24409   0.42092   0.00000  Uiso   1.00
H150   H     0.95501   0.22868   0.49004   0.00000  Uiso   1.00
H151   H     0.81606   0.13848   0.08477   0.00000  Uiso   1.00
H152   H     0.72086   0.14076   0.41932   0.00000  Uiso   1.00
H153   H     0.75550   0.14307   0.06236   0.00000  Uiso   1.00
H154   H     0.69928   0.12803   0.01667   0.00000  Uiso   1.00
H155   H     0.91103   0.29573   0.23066   0.00000  Uiso   1.00
N156   N     0.71426   0.16668   0.25002   0.00000  Uiso   1.00
N157   N     0.95239   0.16665   0.25001   0.00000  Uiso   1.00
O158   O     0.79512   0.22775   0.25001   0.00000  Uiso   1.00
O159   O     0.87157   0.22774   0.25001   0.00000  Uiso   1.00
O160   O     0.77613   0.16666   0.32681   0.00000  Uiso   1.00
O161   O     0.85258   0.16665   0.32681   0.00000  Uiso   1.00
O162   O     0.79510   0.10559   0.25000   0.00000  Uiso   1.00
O163   O     0.87154   0.10558   0.25000   0.00000  Uiso   1.00
O164   O     0.81409   0.16668   0.17319   0.00000  Uiso   1.00
O165   O     0.89053   0.16667   0.17319   0.00000  Uiso   1.00
Zn166  Zn    0.78229   0.16667   0.25000   0.00000  Uiso   1.00
Zn167  Zn    0.88438   0.16666   0.25000   0.00000  Uiso   1.00
Cl168  Cl    0.85426   0.25162   0.36689   0.00000  Uiso   1.00
C169   C     0.16685   0.58003   0.24938   0.00000  Uiso   1.00
C170   C     0.14417   0.50452   0.49188   0.00000  Uiso   1.00
C171   C     0.15175   0.51967   0.43927   0.00000  Uiso   1.00
C172   C     0.18094   0.51053   0.01436   0.00000  Uiso   1.00
C173   C     0.22163   0.53556   0.48723   0.00000  Uiso   1.00
C174   C     0.22450   0.55543   0.43938   0.00000  Uiso   1.00
C175   C     0.18912   0.54899   0.41647   0.00000  Uiso   1.00
C176   C     0.17807   0.49283   0.06362   0.00000  Uiso   1.00
C177   C     0.25104   0.52790   0.06202   0.00000  Uiso   1.00
C178   C     0.12181   0.50459   0.41136   0.00000  Uiso   1.00
C179   C     0.21041   0.64532   0.23897   0.00000  Uiso   1.00
C180   C     0.13982   0.50204   0.35220   0.00000  Uiso   1.00
C181   C     0.21034   0.35460   0.23931   0.00000  Uiso   1.00
C182   C     0.16674   0.37580   0.24971   0.00000  Uiso   1.00
C183   C     0.12322   0.35465   0.25971   0.00000  Uiso   1.00
C184   C     0.12330   0.64538   0.25940   0.00000  Uiso   1.00
C185   C     0.16688   0.62418   0.24911   0.00000  Uiso   1.00
C186   C     0.29874   0.47508   0.28464   0.00000  Uiso   1.00
C187   C     0.01336   0.47511   0.28466   0.00000  Uiso   1.00
C188   C     0.03457   0.52495   0.21542   0.00000  Uiso   1.00
C189   C     0.31995   0.52492   0.21540   0.00000  Uiso   1.00
C190   C     0.16666   0.41996   0.24997   0.00000  Uiso   1.00
C191   C     0.19348   0.49972   0.14780   0.00000  Uiso   1.00
C192   C     0.25730   0.54276   0.01036   0.00000  Uiso   1.00
C193   C     0.21005   0.50447   0.08940   0.00000  Uiso   1.00
C194   C     0.07819   0.48480   0.43988   0.00000  Uiso   1.00
C195   C     0.06645   0.47644   0.49463   0.00000  Uiso   1.00
C196   C     0.09964   0.48478   0.02019   0.00000  Uiso   1.00
H197   H     0.27624   0.53697   0.08179   0.00000  Uiso   1.00
H198   H     0.24426   0.37081   0.23118   0.00000  Uiso   1.00
H199   H     0.08924   0.37089   0.26812   0.00000  Uiso   1.00
H200   H     0.08935   0.62919   0.26763   0.00000  Uiso   1.00
H201   H     0.27211   0.45512   0.31232   0.00000  Uiso   1.00
H202   H     0.02304   0.45521   0.31236   0.00000  Uiso   1.00
H203   H     0.06118   0.54493   0.18776   0.00000  Uiso   1.00
H204   H     0.31026   0.54484   0.18773   0.00000  Uiso   1.00
H205   H     0.25324   0.57743   0.42092   0.00000  Uiso   1.00
H206   H     0.28834   0.56201   0.49004   0.00000  Uiso   1.00
H207   H     0.14940   0.47181   0.08477   0.00000  Uiso   1.00
H208   H     0.05419   0.47410   0.41932   0.00000  Uiso   1.00
H209   H     0.08883   0.47641   0.06236   0.00000  Uiso   1.00
H210   H     0.03262   0.46136   0.01667   0.00000  Uiso   1.00
H211   H     0.24437   0.62907   0.23066   0.00000  Uiso   1.00
N212   N     0.04760   0.50001   0.25002   0.00000  Uiso   1.00
N213   N     0.28573   0.49998   0.25001   0.00000  Uiso   1.00
O214   O     0.12846   0.56108   0.25001   0.00000  Uiso   1.00
O215   O     0.20490   0.56107   0.25001   0.00000  Uiso   1.00
O216   O     0.10947   0.50000   0.32681   0.00000  Uiso   1.00
O217   O     0.18591   0.49999   0.32681   0.00000  Uiso   1.00
O218   O     0.12843   0.43893   0.25000   0.00000  Uiso   1.00
O219   O     0.20488   0.43892   0.25000   0.00000  Uiso   1.00
O220   O     0.14742   0.50001   0.17319   0.00000  Uiso   1.00
O221   O     0.22387   0.50000   0.17319   0.00000  Uiso   1.00
Zn222  Zn    0.11562   0.50001   0.25000   0.00000  Uiso   1.00
Zn223  Zn    0.21771   0.49999   0.25000   0.00000  Uiso   1.00
Cl224  Cl    0.18759   0.58496   0.36689   0.00000  Uiso   1.00
C225   C     0.50018   0.58003   0.24938   0.00000  Uiso   1.00
C226   C     0.47751   0.50452   0.49188   0.00000  Uiso   1.00
C227   C     0.48509   0.51967   0.43927   0.00000  Uiso   1.00
C228   C     0.51427   0.51053   0.01436   0.00000  Uiso   1.00
C229   C     0.55496   0.53556   0.48723   0.00000  Uiso   1.00
C230   C     0.55783   0.55543   0.43938   0.00000  Uiso   1.00
C231   C     0.52245   0.54899   0.41647   0.00000  Uiso   1.00
C232   C     0.51140   0.49283   0.06362   0.00000  Uiso   1.00
C233   C     0.58437   0.52790   0.06202   0.00000  Uiso   1.00
C234   C     0.45514   0.50459   0.41136   0.00000  Uiso   1.00
C235   C     0.54374   0.64532   0.23897   0.00000  Uiso   1.00
C236   C     0.47315   0.50204   0.35220   0.00000  Uiso   1.00
C237   C     0.54367   0.35460   0.23931   0.00000  Uiso   1.00
C238   C     0.50007   0.37580   0.24971   0.00000  Uiso   1.00
C239   C     0.45656   0.35465   0.25971   0.00000  Uiso   1.00
C240   C     0.45663   0.64538   0.25940   0.00000  Uiso   1.00
C241   C     0.50021   0.62418   0.24911   0.00000  Uiso   1.00
C242   C     0.63207   0.47508   0.28464   0.00000  Uiso   1.00
C243   C     0.34669   0.47511   0.28466   0.00000  Uiso   1.00
C244   C     0.36790   0.52495   0.21542   0.00000  Uiso   1.00
C245   C     0.65328   0.52492   0.21540   0.00000  Uiso   1.00
C246   C     0.49999   0.41996   0.24997   0.00000  Uiso   1.00
C247   C     0.52681   0.49972   0.14780   0.00000  Uiso   1.00
C248   C     0.59063   0.54276   0.01036   0.00000  Uiso   1.00
C249   C     0.54339   0.50447   0.08940   0.00000  Uiso   1.00
C250   C     0.41152   0.48480   0.43988   0.00000  Uiso   1.00
C251   C     0.39978   0.47644   0.49463   0.00000  Uiso   1.00
C252   C     0.43297   0.48478   0.02019   0.00000  Uiso   1.00
H253   H     0.60957   0.53697   0.08179   0.00000  Uiso   1.00
H254   H     0.57760   0.37081   0.23118   0.00000  Uiso   1.00
H255   H     0.42257   0.37089   0.26812   0.00000  Uiso   1.00
H256   H     0.42268   0.62919   0.26763   0.00000  Uiso   1.00
H257   H     0.60545   0.45512   0.31232   0.00000  Uiso   1.00
H258   H     0.35637   0.45521   0.31236   0.00000  Uiso   1.00
H259   H     0.39452   0.54493   0.18776   0.00000  Uiso   1.00
H260   H     0.64359   0.54484   0.18773   0.00000  Uiso   1.00
H261   H     0.58658   0.57743   0.42092   0.00000  Uiso   1.00
H262   H     0.62168   0.56201   0.49004   0.00000  Uiso   1.00
H263   H     0.48273   0.47181   0.08477   0.00000  Uiso   1.00
H264   H     0.38753   0.47410   0.41932   0.00000  Uiso   1.00
H265   H     0.42216   0.47641   0.06236   0.00000  Uiso   1.00
H266   H     0.36595   0.46136   0.01667   0.00000  Uiso   1.00
H267   H     0.57770   0.62907   0.23066   0.00000  Uiso   1.00
N268   N     0.38093   0.50001   0.25002   0.00000  Uiso   1.00
N269   N     0.61906   0.49998   0.25001   0.00000  Uiso   1.00
O270   O     0.46179   0.56108   0.25001   0.00000  Uiso   1.00
O271   O     0.53823   0.56107   0.25001   0.00000  Uiso   1.00
O272   O     0.44280   0.50000   0.32681   0.00000  Uiso   1.00
O273   O     0.51924   0.49999   0.32681   0.00000  Uiso   1.00
O274   O     0.46177   0.43893   0.25000   0.00000  Uiso   1.00
O275   O     0.53821   0.43892   0.25000   0.00000  Uiso   1.00
O276   O     0.48076   0.50001   0.17319   0.00000  Uiso   1.00
O277   O     0.55720   0.50000   0.17319   0.00000  Uiso   1.00
Zn278  Zn    0.44896   0.50001   0.25000   0.00000  Uiso   1.00
Zn279  Zn    0.55104   0.49999   0.25000   0.00000  Uiso   1.00
Cl280  Cl    0.52092   0.58496   0.36689   0.00000  Uiso   1.00
C281   C     0.83352   0.58003   0.24938   0.00000  Uiso   1.00
C282   C     0.81084   0.50452   0.49188   0.00000  Uiso   1.00
C283   C     0.81842   0.51967   0.43927   0.00000  Uiso   1.00
C284   C     0.84760   0.51053   0.01436   0.00000  Uiso   1.00
C285   C     0.88829   0.53556   0.48723   0.00000  Uiso   1.00
C286   C     0.89116   0.55543   0.43938   0.00000  Uiso   1.00
C287   C     0.85578   0.54899   0.41647   0.00000  Uiso   1.00
C288   C     0.84474   0.49283   0.06362   0.00000  Uiso   1.00
C289   C     0.91770   0.52790   0.06202   0.00000  Uiso   1.00
C290   C     0.78848   0.50459   0.41136   0.00000  Uiso   1.00
C291   C     0.87708   0.64532   0.23897   0.00000  Uiso   1.00
C292   C     0.80648   0.50204   0.35220   0.00000  Uiso   1.00
C293   C     0.87700   0.35460   0.23931   0.00000  Uiso   1.00
C294   C     0.83340   0.37580   0.24971   0.00000  Uiso   1.00
C295   C     0.78989   0.35465   0.25971   0.00000  Uiso   1.00
C296   C     0.78996   0.64538   0.25940   0.00000  Uiso   1.00
C297   C     0.83354   0.62418   0.24911   0.00000  Uiso   1.00
C298   C     0.96541   0.47508   0.28464   0.00000  Uiso   1.00
C299   C     0.68002   0.47511   0.28466   0.00000  Uiso   1.00
C300   C     0.70123   0.52495   0.21542   0.00000  Uiso   1.00
C301   C     0.98662   0.52492   0.21540   0.00000  Uiso   1.00
C302   C     0.83332   0.41996   0.24997   0.00000  Uiso   1.00
C303   C     0.86015   0.49972   0.14780   0.00000  Uiso   1.00
C304   C     0.92397   0.54276   0.01036   0.00000  Uiso   1.00
C305   C     0.87672   0.50447   0.08940   0.00000  Uiso   1.00
C306   C     0.74486   0.48480   0.43988   0.00000  Uiso   1.00
C307   C     0.73311   0.47644   0.49463   0.00000  Uiso   1.00
C308   C     0.76630   0.48478   0.02019   0.00000  Uiso   1.00
H309   H     0.94290   0.53697   0.08179   0.00000  Uiso   1.00
H310   H     0.91093   0.37081   0.23118   0.00000  Uiso   1.00
H311   H     0.75591   0.37089   0.26812   0.00000  Uiso   1.00
H312   H     0.75602   0.62919   0.26763   0.00000  Uiso   1.00
H313   H     0.93878   0.45512   0.31232   0.00000  Uiso   1.00
H314   H     0.68970   0.45521   0.31236   0.00000  Uiso   1.00
H315   H     0.72785   0.54493   0.18776   0.00000  Uiso   1.00
H316   H     0.97692   0.54484   0.18773   0.00000  Uiso   1.00
H317   H     0.91991   0.57743   0.42092   0.00000  Uiso   1.00
H318   H     0.95501   0.56201   0.49004   0.00000  Uiso   1.00
H319   H     0.81606   0.47181   0.08477   0.00000  Uiso   1.00
H320   H     0.72086   0.47410   0.41932   0.00000  Uiso   1.00
H321   H     0.75550   0.47641   0.06236   0.00000  Uiso   1.00
H322   H     0.69928   0.46136   0.01667   0.00000  Uiso   1.00
H323   H     0.91103   0.62907   0.23066   0.00000  Uiso   1.00
N324   N     0.71426   0.50001   0.25002   0.00000  Uiso   1.00
N325   N     0.95239   0.49998   0.25001   0.00000  Uiso   1.00
O326   O     0.79512   0.56108   0.25001   0.00000  Uiso   1.00
O327   O     0.87157   0.56107   0.25001   0.00000  Uiso   1.00
O328   O     0.77613   0.50000   0.32681   0.00000  Uiso   1.00
O329   O     0.85258   0.49999   0.32681   0.00000  Uiso   1.00
O330   O     0.79510   0.43893   0.25000   0.00000  Uiso   1.00
O331   O     0.87154   0.43892   0.25000   0.00000  Uiso   1.00
O332   O     0.81409   0.50001   0.17319   0.00000  Uiso   1.00
O333   O     0.89053   0.50000   0.17319   0.00000  Uiso   1.00
Zn334  Zn    0.78229   0.50001   0.25000   0.00000  Uiso   1.00
Zn335  Zn    0.88438   0.49999   0.25000   0.00000  Uiso   1.00
Cl336  Cl    0.85426   0.58496   0.36689   0.00000  Uiso   1.00
C337   C     0.16685   0.91337   0.24938   0.00000  Uiso   1.00
C338   C     0.14417   0.83785   0.49188   0.00000  Uiso   1.00
C339   C     0.15175   0.85300   0.43927   0.00000  Uiso   1.00
C340   C     0.18094   0.84387   0.01436   0.00000  Uiso   1.00
C341   C     0.22163   0.86890   0.48723   0.00000  Uiso   1.00
C342   C     0.22450   0.88876   0.43938   0.00000  Uiso   1.00
C343   C     0.18912   0.88232   0.41647   0.00000  Uiso   1.00
C344   C     0.17807   0.82616   0.06362   0.00000  Uiso   1.00
C345   C     0.25104   0.86123   0.06202   0.00000  Uiso   1.00
C346   C     0.12181   0.83793   0.41136   0.00000  Uiso   1.00
C347   C     0.21041   0.97866   0.23897   0.00000  Uiso   1.00
C348   C     0.13982   0.83537   0.35220   0.00000  Uiso   1.00
C349   C     0.21034   0.68794   0.23931   0.00000  Uiso   1.00
C350   C     0.16674   0.70914   0.24971   0.00000  Uiso   1.00
C351   C     0.12322   0.68798   0.25971   0.00000  Uiso   1.00
C352   C     0.12330   0.97872   0.25940   0.00000  Uiso   1.00
C353   C     0.16688   0.95752   0.24911   0.00000  Uiso   1.00
C354   C     0.29874   0.80841   0.28464   0.00000  Uiso   1.00
C355   C     0.01336   0.80844   0.28466   0.00000  Uiso   1.00
C356   C     0.03457   0.85829   0.21542   0.00000  Uiso   1.00
C357   C     0.31995   0.85826   0.21540   0.00000  Uiso   1.00
C358   C     0.16666   0.75329   0.24997   0.00000  Uiso   1.00
C359   C     0.19348   0.83306   0.14780   0.00000  Uiso   1.00
C360   C     0.25730   0.87609   0.01036   0.00000  Uiso   1.00
C361   C     0.21005   0.83781   0.08940   0.00000  Uiso   1.00
C362   C     0.07819   0.81814   0.43988   0.00000  Uiso   1.00
C363   C     0.06645   0.80977   0.49463   0.00000  Uiso   1.00
C364   C     0.09964   0.81812   0.02019   0.00000  Uiso   1.00
H365   H     0.27624   0.87031   0.08179   0.00000  Uiso   1.00
H366   H     0.24426   0.70414   0.23118   0.00000  Uiso   1.00
H367   H     0.08924   0.70422   0.26812   0.00000  Uiso   1.00
H368   H     0.08935   0.96253   0.26763   0.00000  Uiso   1.00
H369   H     0.27211   0.78845   0.31232   0.00000  Uiso   1.00
H370   H     0.02304   0.78854   0.31236   0.00000  Uiso   1.00
H371   H     0.06118   0.87826   0.18776   0.00000  Uiso   1.00
H372   H     0.31026   0.87818   0.18773   0.00000  Uiso   1.00
H373   H     0.25324   0.91076   0.42092   0.00000  Uiso   1.00
H374   H     0.28834   0.89534   0.49004   0.00000  Uiso   1.00
H375   H     0.14940   0.80514   0.08477   0.00000  Uiso   1.00
H376   H     0.05419   0.80743   0.41932   0.00000  Uiso   1.00
H377   H     0.08883   0.80974   0.06236   0.00000  Uiso   1.00
H378   H     0.03262   0.79469   0.01667   0.00000  Uiso   1.00
H379   H     0.24437   0.96240   0.23066   0.00000  Uiso   1.00
N380   N     0.04760   0.83334   0.25002   0.00000  Uiso   1.00
N381   N     0.28573   0.83331   0.25001   0.00000  Uiso   1.00
O382   O     0.12846   0.89442   0.25001   0.00000  Uiso   1.00
O383   O     0.20490   0.89441   0.25001   0.00000  Uiso   1.00
O384   O     0.10947   0.83333   0.32681   0.00000  Uiso   1.00
O385   O     0.18591   0.83332   0.32681   0.00000  Uiso   1.00
O386   O     0.12843   0.77226   0.25000   0.00000  Uiso   1.00
O387   O     0.20488   0.77225   0.25000   0.00000  Uiso   1.00
O388   O     0.14742   0.83335   0.17319   0.00000  Uiso   1.00
O389   O     0.22387   0.83334   0.17319   0.00000  Uiso   1.00
Zn390  Zn    0.11562   0.83334   0.25000   0.00000  Uiso   1.00
Zn391  Zn    0.21771   0.83333   0.25000   0.00000  Uiso   1.00
Cl392  Cl    0.18759   0.91829   0.36689   0.00000  Uiso   1.00
C393   C     0.50018   0.91337   0.24938   0.00000  Uiso   1.00
C394   C     0.47751   0.83785   0.49188   0.00000  Uiso   1.00
C395   C     0.48509   0.85300   0.43927   0.00000  Uiso   1.00
C396   C     0.51427   0.84387   0.01436   0.00000  Uiso   1.00
C397   C     0.55496   0.86890   0.48723   0.00000  Uiso   1.00
C398   C     0.55783   0.88876   0.43938   0.00000  Uiso   1.00
C399   C     0.52245   0.88232   0.41647   0.00000  Uiso   1.00
C400   C     0.51140   0.82616   0.06362   0.00000  Uiso   1.00
C401   C     0.58437   0.86123   0.06202   0.00000  Uiso   1.00
C402   C     0.45514   0.83793   0.41136   0.00000  Uiso   1.00
C403   C     0.54374   0.97866   0.23897   0.00000  Uiso   1.00
C404   C     0.47315   0.83537   0.35220   0.00000  Uiso   1.00
C405   C     0.54367   0.68794   0.23931   0.00000  Uiso   1.00
C406   C     0.50007   0.70914   0.24971   0.00000  Uiso   1.00
C407   C     0.45656   0.68798   0.25971   0.00000  Uiso   1.00
C408   C     0.45663   0.97872   0.25940   0.00000  Uiso   1.00
C409   C     0.50021   0.95752   0.24911   0.00000  Uiso   1.00
C410   C     0.63207   0.80841   0.28464   0.00000  Uiso   1.00
C411   C     0.34669   0.80844   0.28466   0.00000  Uiso   1.00
C412   C     0.36790   0.85829   0.21542   0.00000  Uiso   1.00
C413   C     0.65328   0.85826   0.21540   0.00000  Uiso   1.00
C414   C     0.49999   0.75329   0.24997   0.00000  Uiso   1.00
C415   C     0.52681   0.83306   0.14780   0.00000  Uiso   1.00
C416   C     0.59063   0.87609   0.01036   0.00000  Uiso   1.00
C417   C     0.54339   0.83781   0.08940   0.00000  Uiso   1.00
C418   C     0.41152   0.81814   0.43988   0.00000  Uiso   1.00
C419   C     0.39978   0.80977   0.49463   0.00000  Uiso   1.00
C420   C     0.43297   0.81812   0.02019   0.00000  Uiso   1.00
H421   H     0.60957   0.87031   0.08179   0.00000  Uiso   1.00
H422   H     0.57760   0.70414   0.23118   0.00000  Uiso   1.00
H423   H     0.42257   0.70422   0.26812   0.00000  Uiso   1.00
H424   H     0.42268   0.96253   0.26763   0.00000  Uiso   1.00
H425   H     0.60545   0.78845   0.31232   0.00000  Uiso   1.00
H426   H     0.35637   0.78854   0.31236   0.00000  Uiso   1.00
H427   H     0.39452   0.87826   0.18776   0.00000  Uiso   1.00
H428   H     0.64359   0.87818   0.18773   0.00000  Uiso   1.00
H429   H     0.58658   0.91076   0.42092   0.00000  Uiso   1.00
H430   H     0.62168   0.89534   0.49004   0.00000  Uiso   1.00
H431   H     0.48273   0.80514   0.08477   0.00000  Uiso   1.00
H432   H     0.38753   0.80743   0.41932   0.00000  Uiso   1.00
H433   H     0.42216   0.80974   0.06236   0.00000  Uiso   1.00
H434   H     0.36595   0.79469   0.01667   0.00000  Uiso   1.00
H435   H     0.57770   0.96240   0.23066   0.00000  Uiso   1.00
N436   N     0.38093   0.83334   0.25002   0.00000  Uiso   1.00
N437   N     0.61906   0.83331   0.25001   0.00000  Uiso   1.00
O438   O     0.46179   0.89442   0.25001   0.00000  Uiso   1.00
O439   O     0.53823   0.89441   0.25001   0.00000  Uiso   1.00
O440   O     0.44280   0.83333   0.32681   0.00000  Uiso   1.00
O441   O     0.51924   0.83332   0.32681   0.00000  Uiso   1.00
O442   O     0.46177   0.77226   0.25000   0.00000  Uiso   1.00
O443   O     0.53821   0.77225   0.25000   0.00000  Uiso   1.00
O444   O     0.48076   0.83335   0.17319   0.00000  Uiso   1.00
O445   O     0.55720   0.83334   0.17319   0.00000  Uiso   1.00
Zn446  Zn    0.44896   0.83334   0.25000   0.00000  Uiso   1.00
Zn447  Zn    0.55104   0.83333   0.25000   0.00000  Uiso   1.00
Cl448  Cl    0.52092   0.91829   0.36689   0.00000  Uiso   1.00
C449   C     0.83352   0.91337   0.24938   0.00000  Uiso   1.00
C450   C     0.81084   0.83785   0.49188   0.00000  Uiso   1.00
C451   C     0.81842   0.85300   0.43927   0.00000  Uiso   1.00
C452   C     0.84760   0.84387   0.01436   0.00000  Uiso   1.00
C453   C     0.88829   0.86890   0.48723   0.00000  Uiso   1.00
C454   C     0.89116   0.88876   0.43938   0.00000  Uiso   1.00
C455   C     0.85578   0.88232   0.41647   0.00000  Uiso   1.00
C456   C     0.84474   0.82616   0.06362   0.00000  Uiso   1.00
C457   C     0.91770   0.86123   0.06202   0.00000  Uiso   1.00
C458   C     0.78848   0.83793   0.41136   0.00000  Uiso   1.00
C459   C     0.87708   0.97866   0.23897   0.00000  Uiso   1.00
C460   C     0.80648   0.83537   0.35220   0.00000  Uiso   1.00
C461   C     0.87700   0.68794   0.23931   0.00000  Uiso   1.00
C462   C     0.83340   0.70914   0.24971   0.00000  Uiso   1.00
C463   C     0.78989   0.68798   0.25971   0.00000  Uiso   1.00
C464   C     0.78996   0.97872   0.25940   0.00000  Uiso   1.00
C465   C     0.83354   0.95752   0.24911   0.00000  Uiso   1.00
C466   C     0.96541   0.80841   0.28464   0.00000  Uiso   1.00
C467   C     0.68002   0.80844   0.28466   0.00000  Uiso   1.00
C468   C     0.70123   0.85829   0.21542   0.00000  Uiso   1.00
C469   C     0.98662   0.85826   0.21540   0.00000  Uiso   1.00
C470   C     0.83332   0.75329   0.24997   0.00000  Uiso   1.00
C471   C     0.86015   0.83306   0.14780   0.00000  Uiso   1.00
C472   C     0.92397   0.87609   0.01036   0.00000  Uiso   1.00
C473   C     0.87672   0.83781   0.08940   0.00000  Uiso   1.00
C474   C     0.74486   0.81814   0.43988   0.00000  Uiso   1.00
C475   C     0.73311   0.80977   0.49463   0.00000  Uiso   1.00
C476   C     0.76630   0.81812   0.02019   0.00000  Uiso   1.00
H477   H     0.94290   0.87031   0.08179   0.00000  Uiso   1.00
H478   H     0.91093   0.70414   0.23118   0.00000  Uiso   1.00
H479   H     0.75591   0.70422   0.26812   0.00000  Uiso   1.00
H480   H     0.75602   0.96253   0.26763   0.00000  Uiso   1.00
H481   H     0.93878   0.78845   0.31232   0.00000  Uiso   1.00
H482   H     0.68970   0.78854   0.31236   0.00000  Uiso   1.00
H483   H     0.72785   0.87826   0.18776   0.00000  Uiso   1.00
H484   H     0.97692   0.87818   0.18773   0.00000  Uiso   1.00
H485   H     0.91991   0.91076   0.42092   0.00000  Uiso   1.00
H486   H     0.95501   0.89534   0.49004   0.00000  Uiso   1.00
H487   H     0.81606   0.80514   0.08477   0.00000  Uiso   1.00
H488   H     0.72086   0.80743   0.41932   0.00000  Uiso   1.00
H489   H     0.75550   0.80974   0.06236   0.00000  Uiso   1.00
H490   H     0.69928   0.79469   0.01667   0.00000  Uiso   1.00
H491   H     0.91103   0.96240   0.23066   0.00000  Uiso   1.00
N492   N     0.71426   0.83334   0.25002   0.00000  Uiso   1.00
N493   N     0.95239   0.83331   0.25001   0.00000  Uiso   1.00
O494   O     0.79512   0.89442   0.25001   0.00000  Uiso   1.00
O495   O     0.87157   0.89441   0.25001   0.00000  Uiso   1.00
O496   O     0.77613   0.83333   0.32681   0.00000  Uiso   1.00
O497   O     0.85258   0.83332   0.32681   0.00000  Uiso   1.00
O498   O     0.79510   0.77226   0.25000   0.00000  Uiso   1.00
O499   O     0.87154   0.77225   0.25000   0.00000  Uiso   1.00
O500   O     0.81409   0.83335   0.17319   0.00000  Uiso   1.00
O501   O     0.89053   0.83334   0.17319   0.00000  Uiso   1.00
Zn502  Zn    0.78229   0.83334   0.25000   0.00000  Uiso   1.00
Zn503  Zn    0.88438   0.83333   0.25000   0.00000  Uiso   1.00
Cl504  Cl    0.85426   0.91829   0.36689   0.00000  Uiso   1.00
C505   C     0.16685   0.24670   0.74938   0.00000  Uiso   1.00
C506   C     0.14417   0.17118   0.99188   0.00000  Uiso   1.00
C507   C     0.15175   0.18634   0.93927   0.00000  Uiso   1.00
C508   C     0.18094   0.17720   0.51436   0.00000  Uiso   1.00
C509   C     0.22163   0.20223   0.98723   0.00000  Uiso   1.00
C510   C     0.22450   0.22210   0.93938   0.00000  Uiso   1.00
C511   C     0.18912   0.21566   0.91647   0.00000  Uiso   1.00
C512   C     0.17807   0.15950   0.56362   0.00000  Uiso   1.00
C513   C     0.25104   0.19456   0.56202   0.00000  Uiso   1.00
C514   C     0.12181   0.17126   0.91136   0.00000  Uiso   1.00
C515   C     0.21041   0.31199   0.73897   0.00000  Uiso   1.00
C516   C     0.13982   0.16871   0.85220   0.00000  Uiso   1.00
C517   C     0.21034   0.02127   0.73931   0.00000  Uiso   1.00
C518   C     0.16674   0.04247   0.74971   0.00000  Uiso   1.00
C519   C     0.12322   0.02132   0.75971   0.00000  Uiso   1.00
C520   C     0.12330   0.31205   0.75940   0.00000  Uiso   1.00
C521   C     0.16688   0.29085   0.74911   0.00000  Uiso   1.00
C522   C     0.29874   0.14174   0.78464   0.00000  Uiso   1.00
C523   C     0.01336   0.14177   0.78466   0.00000  Uiso   1.00
C524   C     0.03457   0.19162   0.71542   0.00000  Uiso   1.00
C525   C     0.31995   0.19159   0.71540   0.00000  Uiso   1.00
C526   C     0.16666   0.08662   0.74997   0.00000  Uiso   1.00
C527   C     0.19348   0.16639   0.64780   0.00000  Uiso   1.00
C528   C     0.25730   0.20942   0.51036   0.00000  Uiso   1.00
C529   C     0.21005   0.17114   0.58940   0.00000  Uiso   1.00
C530   C     0.07819   0.15147   0.93988   0.00000  Uiso   1.00
C531   C     0.06645   0.14310   0.99463   0.00000  Uiso   1.00
C532   C     0.09964   0.15145   0.52019   0.00000  Uiso   1.00
H533   H     0.27624   0.20364   0.58179   0.00000  Uiso   1.00
H534   H     0.24426   0.03747   0.73118   0.00000  Uiso   1.00
H535   H     0.08924   0.03755   0.76812   0.00000  Uiso   1.00
H536   H     0.08935   0.29586   0.76763   0.00000  Uiso   1.00
H537   H     0.27211   0.12179   0.81232   0.00000  Uiso   1.00
H538   H     0.02304   0.12187   0.81236   0.00000  Uiso   1.00
H539   H     0.06118   0.21160   0.68776   0.00000  Uiso   1.00
H540   H     0.31026   0.21151   0.68773   0.00000  Uiso   1.00
H541   H     0.25324   0.24409   0.92092   0.00000  Uiso   1.00
H542   H     0.28834   0.22868   0.99004   0.00000  Uiso   1.00
H543   H     0.14940   0.13848   0.58477   0.00000  Uiso   1.00
H544   H     0.05419   0.14076   0.91932   0.00000  Uiso   1.00
H545   H     0.08883   0.14307   0.56236   0.00000  Uiso   1.00
H546   H     0.03262   0.12803   0.51667   0.00000  Uiso   1.00
H547   H     0.24437   0.29573   0.73066   0.00000  Uiso   1.00
N548   N     0.04760   0.16668   0.75002   0.00000  Uiso   1.00
N549   N     0.28573   0.16665   0.75001   0.00000  Uiso   1.00
O550   O     0.12846   0.22775   0.75001   0.00000  Uiso   1.00
O551   O     0.20490   0.22774   0.75001   0.00000  Uiso   1.00
O552   O     0.10947   0.16666   0.82681   0.00000  Uiso   1.00
O553   O     0.18591   0.16665   0.82681   0.00000  Uiso   1.00
O554   O     0.12843   0.10559   0.75000   0.00000  Uiso   1.00
O555   O     0.20488   0.10558   0.75000   0.00000  Uiso   1.00
O556   O     0.14742   0.16668   0.67319   0.00000  Uiso   1.00
O557   O     0.22387   0.16667   0.67319   0.00000  Uiso   1.00
Zn558  Zn    0.11562   0.16667   0.75000   0.00000  Uiso   1.00
Zn559  Zn    0.21771   0.16666   0.75000   0.00000  Uiso   1.00
Cl560  Cl    0.18759   0.25162   0.86689   0.00000  Uiso   1.00
C561   C     0.50018   0.24670   0.74938   0.00000  Uiso   1.00
C562   C     0.47751   0.17118   0.99188   0.00000  Uiso   1.00
C563   C     0.48509   0.18634   0.93927   0.00000  Uiso   1.00
C564   C     0.51427   0.17720   0.51436   0.00000  Uiso   1.00
C565   C     0.55496   0.20223   0.98723   0.00000  Uiso   1.00
C566   C     0.55783   0.22210   0.93938   0.00000  Uiso   1.00
C567   C     0.52245   0.21566   0.91647   0.00000  Uiso   1.00
C568   C     0.51140   0.15950   0.56362   0.00000  Uiso   1.00
C569   C     0.58437   0.19456   0.56202   0.00000  Uiso   1.00
C570   C     0.45514   0.17126   0.91136   0.00000  Uiso   1.00
C571   C     0.54374   0.31199   0.73897   0.00000  Uiso   1.00
C572   C     0.47315   0.16871   0.85220   0.00000  Uiso   1.00
C573   C     0.54367   0.02127   0.73931   0.00000  Uiso   1.00
C574   C     0.50007   0.04247   0.74971   0.00000  Uiso   1.00
C575   C     0.45656   0.02132   0.75971   0.00000  Uiso   1.00
C576   C     0.45663   0.31205   0.75940   0.00000  Uiso   1.00
C577   C     0.50021   0.29085   0.74911   0.00000  Uiso   1.00
C578   C     0.63207   0.14174   0.78464   0.00000  Uiso   1.00
C579   C     0.34669   0.14177   0.78466   0.00000  Uiso   1.00
C580   C     0.36790   0.19162   0.71542   0.00000  Uiso   1.00
C581   C     0.65328   0.19159   0.71540   0.00000  Uiso   1.00
C582   C     0.49999   0.08662   0.74997   0.00000  Uiso   1.00
C583   C     0.52681   0.16639   0.64780   0.00000  Uiso   1.00
C584   C     0.59063   0.20942   0.51036   0.00000  Uiso   1.00
C585   C     0.54339   0.17114   0.58940   0.00000  Uiso   1.00
C586   C     0.41152   0.15147   0.93988   0.00000  Uiso   1.00
C587   C     0.39978   0.14310   0.99463   0.00000  Uiso   1.00
C588   C     0.43297   0.15145   0.52019   0.00000  Uiso   1.00
H589   H     0.60957   0.20364   0.58179   0.00000  Uiso   1.00
H590   H     0.57760   0.03747   0.73118   0.00000  Uiso   1.00
H591   H     0.42257   0.03755   0.76812   0.00000  Uiso   1.00
H592   H     0.42268   0.29586   0.76763   0.00000  Uiso   1.00
H593   H     0.60545   0.12179   0.81232   0.00000  Uiso   1.00
H594   H     0.35637   0.12187   0.81236   0.00000  Uiso   1.00
H595   H     0.39452   0.21160   0.68776   0.00000  Uiso   1.00
H596   H     0.64359   0.21151   0.68773   0.00000  Uiso   1.00
H597   H     0.58658   0.24409   0.92092   0.00000  Uiso   1.00
H598   H     0.62168   0.22868   0.99004   0.00000  Uiso   1.00
H599   H     0.48273   0.13848   0.58477   0.00000  Uiso   1.00
H600   H     0.38753   0.14076   0.91932   0.00000  Uiso   1.00
H601   H     0.42216   0.14307   0.56236   0.00000  Uiso   1.00
H602   H     0.36595   0.12803   0.51667   0.00000  Uiso   1.00
H603   H     0.57770   0.29573   0.73066   0.00000  Uiso   1.00
N604   N     0.38093   0.16668   0.75002   0.00000  Uiso   1.00
N605   N     0.61906   0.16665   0.75001   0.00000  Uiso   1.00
O606   O     0.46179   0.22775   0.75001   0.00000  Uiso   1.00
O607   O     0.53823   0.22774   0.75001   0.00000  Uiso   1.00
O608   O     0.44280   0.16666   0.82681   0.00000  Uiso   1.00
O609   O     0.51924   0.16665   0.82681   0.00000  Uiso   1.00
O610   O     0.46177   0.10559   0.75000   0.00000  Uiso   1.00
O611   O     0.53821   0.10558   0.75000   0.00000  Uiso   1.00
O612   O     0.48076   0.16668   0.67319   0.00000  Uiso   1.00
O613   O     0.55720   0.16667   0.67319   0.00000  Uiso   1.00
Zn614  Zn    0.44896   0.16667   0.75000   0.00000  Uiso   1.00
Zn615  Zn    0.55104   0.16666   0.75000   0.00000  Uiso   1.00
Cl616  Cl    0.52092   0.25162   0.86689   0.00000  Uiso   1.00
C617   C     0.83352   0.24670   0.74938   0.00000  Uiso   1.00
C618   C     0.81084   0.17118   0.99188   0.00000  Uiso   1.00
C619   C     0.81842   0.18634   0.93927   0.00000  Uiso   1.00
C620   C     0.84760   0.17720   0.51436   0.00000  Uiso   1.00
C621   C     0.88829   0.20223   0.98723   0.00000  Uiso   1.00
C622   C     0.89116   0.22210   0.93938   0.00000  Uiso   1.00
C623   C     0.85578   0.21566   0.91647   0.00000  Uiso   1.00
C624   C     0.84474   0.15950   0.56362   0.00000  Uiso   1.00
C625   C     0.91770   0.19456   0.56202   0.00000  Uiso   1.00
C626   C     0.78848   0.17126   0.91136   0.00000  Uiso   1.00
C627   C     0.87708   0.31199   0.73897   0.00000  Uiso   1.00
C628   C     0.80648   0.16871   0.85220   0.00000  Uiso   1.00
C629   C     0.87700   0.02127   0.73931   0.00000  Uiso   1.00
C630   C     0.83340   0.04247   0.74971   0.00000  Uiso   1.00
C631   C     0.78989   0.02132   0.75971   0.00000  Uiso   1.00
C632   C     0.78996   0.31205   0.75940   0.00000  Uiso   1.00
C633   C     0.83354   0.29085   0.74911   0.00000  Uiso   1.00
C634   C     0.96541   0.14174   0.78464   0.00000  Uiso   1.00
C635   C     0.68002   0.14177   0.78466   0.00000  Uiso   1.00
C636   C     0.70123   0.19162   0.71542   0.00000  Uiso   1.00
C637   C     0.98662   0.19159   0.71540   0.00000  Uiso   1.00
C638   C     0.83332   0.08662   0.74997   0.00000  Uiso   1.00
C639   C     0.86015   0.16639   0.64780   0.00000  Uiso   1.00
C640   C     0.92397   0.20942   0.51036   0.00000  Uiso   1.00
C641   C     0.87672   0.17114   0.58940   0.00000  Uiso   1.00
C642   C     0.74486   0.15147   0.93988   0.00000  Uiso   1.00
C643   C     0.73311   0.14310   0.99463   0.00000  Uiso   1.00
C644   C     0.76630   0.15145   0.52019   0.00000  Uiso   1.00
H645   H     0.94290   0.20364   0.58179   0.00000  Uiso   1.00
H646   H     0.91093   0.03747   0.73118   0.00000  Uiso   1.00
H647   H     0.75591   0.03755   0.76812   0.00000  Uiso   1.00
H648   H     0.75602   0.29586   0.76763   0.00000  Uiso   1.00
H649   H     0.93878   0.12179   0.81232   0.00000  Uiso   1.00
H650   H     0.68970   0.12187   0.81236   0.00000  Uiso   1.00
H651   H     0.72785   0.21160   0.68776   0.00000  Uiso   1.00
H652   H     0.97692   0.21151   0.68773   0.00000  Uiso   1.00
H653   H     0.91991   0.24409   0.92092   0.00000  Uiso   1.00
H654   H     0.95501   0.22868   0.99004   0.00000  Uiso   1.00
H655   H     0.81606   0.13848   0.58477   0.00000  Uiso   1.00
H656   H     0.72086   0.14076   0.91932   0.00000  Uiso   1.00
H657   H     0.75550   0.14307   0.56236   0.00000  Uiso   1.00
H658   H     0.69928   0.12803   0.51667   0.00000  Uiso   1.00
H659   H     0.91103   0.29573   0.73066   0.00000  Uiso   1.00
N660   N     0.71426   0.16668   0.75002   0.00000  Uiso   1.00
N661   N     0.95239   0.16665   0.75001   0.00000  Uiso   1.00
O662   O     0.79512   0.22775   0.75001   0.00000  Uiso   1.00
O663   O     0.87157   0.22774   0.75001   0.00000  Uiso   1.00
O664   O     0.77613   0.16666   0.82681   0.00000  Uiso   1.00
O665   O     0.85258   0.16665   0.82681   0.00000  Uiso   1.00
O666   O     0.79510   0.10559   0.75000   0.00000  Uiso   1.00
O667   O     0.87154   0.10558   0.75000   0.00000  Uiso   1.00
O668   O     0.81409   0.16668   0.67319   0.00000  Uiso   1.00
O669   O     0.89053   0.16667   0.67319   0.00000  Uiso   1.00
Zn670  Zn    0.78229   0.16667   0.75000   0.00000  Uiso   1.00
Zn671  Zn    0.88438   0.16666   0.75000   0.00000  Uiso   1.00
Cl672  Cl    0.85426   0.25162   0.86689   0.00000  Uiso   1.00
C673   C     0.16685   0.58003   0.74938   0.00000  Uiso   1.00
C674   C     0.14417   0.50452   0.99188   0.00000  Uiso   1.00
C675   C     0.15175   0.51967   0.93927   0.00000  Uiso   1.00
C676   C     0.18094   0.51053   0.51436   0.00000  Uiso   1.00
C677   C     0.22163   0.53556   0.98723   0.00000  Uiso   1.00
C678   C     0.22450   0.55543   0.93938   0.00000  Uiso   1.00
C679   C     0.18912   0.54899   0.91647   0.00000  Uiso   1.00
C680   C     0.17807   0.49283   0.56362   0.00000  Uiso   1.00
C681   C     0.25104   0.52790   0.56202   0.00000  Uiso   1.00
C682   C     0.12181   0.50459   0.91136   0.00000  Uiso   1.00
C683   C     0.21041   0.64532   0.73897   0.00000  Uiso   1.00
C684   C     0.13982   0.50204   0.85220   0.00000  Uiso   1.00
C685   C     0.21034   0.35460   0.73931   0.00000  Uiso   1.00
C686   C     0.16674   0.37580   0.74971   0.00000  Uiso   1.00
C687   C     0.12322   0.35465   0.75971   0.00000  Uiso   1.00
C688   C     0.12330   0.64538   0.75940   0.00000  Uiso   1.00
C689   C     0.16688   0.62418   0.74911   0.00000  Uiso   1.00
C690   C     0.29874   0.47508   0.78464   0.00000  Uiso   1.00
C691   C     0.01336   0.47511   0.78466   0.00000  Uiso   1.00
C692   C     0.03457   0.52495   0.71542   0.00000  Uiso   1.00
C693   C     0.31995   0.52492   0.71540   0.00000  Uiso   1.00
C694   C     0.16666   0.41996   0.74997   0.00000  Uiso   1.00
C695   C     0.19348   0.49972   0.64780   0.00000  Uiso   1.00
C696   C     0.25730   0.54276   0.51036   0.00000  Uiso   1.00
C697   C     0.21005   0.50447   0.58940   0.00000  Uiso   1.00
C698   C     0.07819   0.48480   0.93988   0.00000  Uiso   1.00
C699   C     0.06645   0.47644   0.99463   0.00000  Uiso   1.00
C700   C     0.09964   0.48478   0.52019   0.00000  Uiso   1.00
H701   H     0.27624   0.53697   0.58179   0.00000  Uiso   1.00
H702   H     0.24426   0.37081   0.73118   0.00000  Uiso   1.00
H703   H     0.08924   0.37089   0.76812   0.00000  Uiso   1.00
H704   H     0.08935   0.62919   0.76763   0.00000  Uiso   1.00
H705   H     0.27211   0.45512   0.81232   0.00000  Uiso   1.00
H706   H     0.02304   0.45521   0.81236   0.00000  Uiso   1.00
H707   H     0.06118   0.54493   0.68776   0.00000  Uiso   1.00
H708   H     0.31026   0.54484   0.68773   0.00000  Uiso   1.00
H709   H     0.25324   0.57743   0.92092   0.00000  Uiso   1.00
H710   H     0.28834   0.56201   0.99004   0.00000  Uiso   1.00
H711   H     0.14940   0.47181   0.58477   0.00000  Uiso   1.00
H712   H     0.05419   0.47410   0.91932   0.00000  Uiso   1.00
H713   H     0.08883   0.47641   0.56236   0.00000  Uiso   1.00
H714   H     0.03262   0.46136   0.51667   0.00000  Uiso   1.00
H715   H     0.24437   0.62907   0.73066   0.00000  Uiso   1.00
N716   N     0.04760   0.50001   0.75002   0.00000  Uiso   1.00
N717   N     0.28573   0.49998   0.75001   0.00000  Uiso   1.00
O718   O     0.12846   0.56108   0.75001   0.00000  Uiso   1.00
O719   O     0.20490   0.56107   0.75001   0.00000  Uiso   1.00
O720   O     0.10947   0.50000   0.82681   0.00000  Uiso   1.00
O721   O     0.18591   0.49999   0.82681   0.00000  Uiso   1.00
O722   O     0.12843   0.43893   0.75000   0.00000  Uiso   1.00
O723   O     0.20488   0.43892   0.75000   0.00000  Uiso   1.00
O724   O     0.14742   0.50001   0.67319   0.00000  Uiso   1.00
O725   O     0.22387   0.50000   0.67319   0.00000  Uiso   1.00
Zn726  Zn    0.11562   0.50001   0.75000   0.00000  Uiso   1.00
Zn727  Zn    0.21771   0.49999   0.75000   0.00000  Uiso   1.00
Cl728  Cl    0.18759   0.58496   0.86689   0.00000  Uiso   1.00
C729   C     0.50018   0.58003   0.74938   0.00000  Uiso   1.00
C730   C     0.47751   0.50452   0.99188   0.00000  Uiso   1.00
C731   C     0.48509   0.51967   0.93927   0.00000  Uiso   1.00
C732   C     0.51427   0.51053   0.51436   0.00000  Uiso   1.00
C733   C     0.55496   0.53556   0.98723   0.00000  Uiso   1.00
C734   C     0.55783   0.55543   0.93938   0.00000  Uiso   1.00
C735   C     0.52245   0.54899   0.91647   0.00000  Uiso   1.00
C736   C     0.51140   0.49283   0.56362   0.00000  Uiso   1.00
C737   C     0.58437   0.52790   0.56202   0.00000  Uiso   1.00
C738   C     0.45514   0.50459   0.91136   0.00000  Uiso   1.00
C739   C     0.54374   0.64532   0.73897   0.00000  Uiso   1.00
C740   C     0.47315   0.50204   0.85220   0.00000  Uiso   1.00
C741   C     0.54367   0.35460   0.73931   0.00000  Uiso   1.00
C742   C     0.50007   0.37580   0.74971   0.00000  Uiso   1.00
C743   C     0.45656   0.35465   0.75971   0.00000  Uiso   1.00
C744   C     0.45663   0.64538   0.75940   0.00000  Uiso   1.00
C745   C     0.50021   0.62418   0.74911   0.00000  Uiso   1.00
C746   C     0.63207   0.47508   0.78464   0.00000  Uiso   1.00
C747   C     0.34669   0.47511   0.78466   0.00000  Uiso   1.00
C748   C     0.36790   0.52495   0.71542   0.00000  Uiso   1.00
C749   C     0.65328   0.52492   0.71540   0.00000  Uiso   1.00
C750   C     0.49999   0.41996   0.74997   0.00000  Uiso   1.00
C751   C     0.52681   0.49972   0.64780   0.00000  Uiso   1.00
C752   C     0.59063   0.54276   0.51036   0.00000  Uiso   1.00
C753   C     0.54339   0.50447   0.58940   0.00000  Uiso   1.00
C754   C     0.41152   0.48480   0.93988   0.00000  Uiso   1.00
C755   C     0.39978   0.47644   0.99463   0.00000  Uiso   1.00
C756   C     0.43297   0.48478   0.52019   0.00000  Uiso   1.00
H757   H     0.60957   0.53697   0.58179   0.00000  Uiso   1.00
H758   H     0.57760   0.37081   0.73118   0.00000  Uiso   1.00
H759   H     0.42257   0.37089   0.76812   0.00000  Uiso   1.00
H760   H     0.42268   0.62919   0.76763   0.00000  Uiso   1.00
H761   H     0.60545   0.45512   0.81232   0.00000  Uiso   1.00
H762   H     0.35637   0.45521   0.81236   0.00000  Uiso   1.00
H763   H     0.39452   0.54493   0.68776   0.00000  Uiso   1.00
H764   H     0.64359   0.54484   0.68773   0.00000  Uiso   1.00
H765   H     0.58658   0.57743   0.92092   0.00000  Uiso   1.00
H766   H     0.62168   0.56201   0.99004   0.00000  Uiso   1.00
H767   H     0.48273   0.47181   0.58477   0.00000  Uiso   1.00
H768   H     0.38753   0.47410   0.91932   0.00000  Uiso   1.00
H769   H     0.42216   0.47641   0.56236   0.00000  Uiso   1.00
H770   H     0.36595   0.46136   0.51667   0.00000  Uiso   1.00
H771   H     0.57770   0.62907   0.73066   0.00000  Uiso   1.00
N772   N     0.38093   0.50001   0.75002   0.00000  Uiso   1.00
N773   N     0.61906   0.49998   0.75001   0.00000  Uiso   1.00
O774   O     0.46179   0.56108   0.75001   0.00000  Uiso   1.00
O775   O     0.53823   0.56107   0.75001   0.00000  Uiso   1.00
O776   O     0.44280   0.50000   0.82681   0.00000  Uiso   1.00
O777   O     0.51924   0.49999   0.82681   0.00000  Uiso   1.00
O778   O     0.46177   0.43893   0.75000   0.00000  Uiso   1.00
O779   O     0.53821   0.43892   0.75000   0.00000  Uiso   1.00
O780   O     0.48076   0.50001   0.67319   0.00000  Uiso   1.00
O781   O     0.55720   0.50000   0.67319   0.00000  Uiso   1.00
Zn782  Zn    0.44896   0.50001   0.75000   0.00000  Uiso   1.00
Zn783  Zn    0.55104   0.49999   0.75000   0.00000  Uiso   1.00
Cl784  Cl    0.52092   0.58496   0.86689   0.00000  Uiso   1.00
C785   C     0.83352   0.58003   0.74938   0.00000  Uiso   1.00
C786   C     0.81084   0.50452   0.99188   0.00000  Uiso   1.00
C787   C     0.81842   0.51967   0.93927   0.00000  Uiso   1.00
C788   C     0.84760   0.51053   0.51436   0.00000  Uiso   1.00
C789   C     0.88829   0.53556   0.98723   0.00000  Uiso   1.00
C790   C     0.89116   0.55543   0.93938   0.00000  Uiso   1.00
C791   C     0.85578   0.54899   0.91647   0.00000  Uiso   1.00
C792   C     0.84474   0.49283   0.56362   0.00000  Uiso   1.00
C793   C     0.91770   0.52790   0.56202   0.00000  Uiso   1.00
C794   C     0.78848   0.50459   0.91136   0.00000  Uiso   1.00
C795   C     0.87708   0.64532   0.73897   0.00000  Uiso   1.00
C796   C     0.80648   0.50204   0.85220   0.00000  Uiso   1.00
C797   C     0.87700   0.35460   0.73931   0.00000  Uiso   1.00
C798   C     0.83340   0.37580   0.74971   0.00000  Uiso   1.00
C799   C     0.78989   0.35465   0.75971   0.00000  Uiso   1.00
C800   C     0.78996   0.64538   0.75940   0.00000  Uiso   1.00
C801   C     0.83354   0.62418   0.74911   0.00000  Uiso   1.00
C802   C     0.96541   0.47508   0.78464   0.00000  Uiso   1.00
C803   C     0.68002   0.47511   0.78466   0.00000  Uiso   1.00
C804   C     0.70123   0.52495   0.71542   0.00000  Uiso   1.00
C805   C     0.98662   0.52492   0.71540   0.00000  Uiso   1.00
C806   C     0.83332   0.41996   0.74997   0.00000  Uiso   1.00
C807   C     0.86015   0.49972   0.64780   0.00000  Uiso   1.00
C808   C     0.92397   0.54276   0.51036   0.00000  Uiso   1.00
C809   C     0.87672   0.50447   0.58940   0.00000  Uiso   1.00
C810   C     0.74486   0.48480   0.93988   0.00000  Uiso   1.00
C811   C     0.73311   0.47644   0.99463   0.00000  Uiso   1.00
C812   C     0.76630   0.48478   0.52019   0.00000  Uiso   1.00
H813   H     0.94290   0.53697   0.58179   0.00000  Uiso   1.00
H814   H     0.91093   0.37081   0.73118   0.00000  Uiso   1.00
H815   H     0.75591   0.37089   0.76812   0.00000  Uiso   1.00
H816   H     0.75602   0.62919   0.76763   0.00000  Uiso   1.00
H817   H     0.93878   0.45512   0.81232   0.00000  Uiso   1.00
H818   H     0.68970   0.45521   0.81236   0.00000  Uiso   1.00
H819   H     0.72785   0.54493   0.68776   0.00000  Uiso   1.00
H820   H     0.97692   0.54484   0.68773   0.00000  Uiso   1.00
H821   H     0.91991   0.57743   0.92092   0.00000  Uiso   1.00
H822   H     0.95501   0.56201   0.99004   0.00000  Uiso   1.00
H823   H     0.81606   0.47181   0.58477   0.00000  Uiso   1.00
H824   H     0.72086   0.47410   0.91932   0.00000  Uiso   1.00
H825   H     0.75550   0.47641   0.56236   0.00000  Uiso   1.00
H826   H     0.69928   0.46136   0.51667   0.00000  Uiso   1.00
H827   H     0.91103   0.62907   0.73066   0.00000  Uiso   1.00
N828   N     0.71426   0.50001   0.75002   0.00000  Uiso   1.00
N829   N     0.95239   0.49998   0.75001   0.00000  Uiso   1.00
O830   O     0.79512   0.56108   0.75001   0.00000  Uiso   1.00
O831   O     0.87157   0.56107   0.75001   0.00000  Uiso   1.00
O832   O     0.77613   0.50000   0.82681   0.00000  Uiso   1.00
O833   O     0.85258   0.49999   0.82681   0.00000  Uiso   1.00
O834   O     0.79510   0.43893   0.75000   0.00000  Uiso   1.00
O835   O     0.87154   0.43892   0.75000   0.00000  Uiso   1.00
O836   O     0.81409   0.50001   0.67319   0.00000  Uiso   1.00
O837   O     0.89053   0.50000   0.67319   0.00000  Uiso   1.00
Zn838  Zn    0.78229   0.50001   0.75000   0.00000  Uiso   1.00
Zn839  Zn    0.88438   0.49999   0.75000   0.00000  Uiso   1.00
Cl840  Cl    0.85426   0.58496   0.86689   0.00000  Uiso   1.00
C841   C     0.16685   0.91337   0.74938   0.00000  Uiso   1.00
C842   C     0.14417   0.83785   0.99188   0.00000  Uiso   1.00
C843   C     0.15175   0.85300   0.93927   0.00000  Uiso   1.00
C844   C     0.18094   0.84387   0.51436   0.00000  Uiso   1.00
C845   C     0.22163   0.86890   0.98723   0.00000  Uiso   1.00
C846   C     0.22450   0.88876   0.93938   0.00000  Uiso   1.00
C847   C     0.18912   0.88232   0.91647   0.00000  Uiso   1.00
C848   C     0.17807   0.82616   0.56362   0.00000  Uiso   1.00
C849   C     0.25104   0.86123   0.56202   0.00000  Uiso   1.00
C850   C     0.12181   0.83793   0.91136   0.00000  Uiso   1.00
C851   C     0.21041   0.97866   0.73897   0.00000  Uiso   1.00
C852   C     0.13982   0.83537   0.85220   0.00000  Uiso   1.00
C853   C     0.21034   0.68794   0.73931   0.00000  Uiso   1.00
C854   C     0.16674   0.70914   0.74971   0.00000  Uiso   1.00
C855   C     0.12322   0.68798   0.75971   0.00000  Uiso   1.00
C856   C     0.12330   0.97872   0.75940   0.00000  Uiso   1.00
C857   C     0.16688   0.95752   0.74911   0.00000  Uiso   1.00
C858   C     0.29874   0.80841   0.78464   0.00000  Uiso   1.00
C859   C     0.01336   0.80844   0.78466   0.00000  Uiso   1.00
C860   C     0.03457   0.85829   0.71542   0.00000  Uiso   1.00
C861   C     0.31995   0.85826   0.71540   0.00000  Uiso   1.00
C862   C     0.16666   0.75329   0.74997   0.00000  Uiso   1.00
C863   C     0.19348   0.83306   0.64780   0.00000  Uiso   1.00
C864   C     0.25730   0.87609   0.51036   0.00000  Uiso   1.00
C865   C     0.21005   0.83781   0.58940   0.00000  Uiso   1.00
C866   C     0.07819   0.81814   0.93988   0.00000  Uiso   1.00
C867   C     0.06645   0.80977   0.99463   0.00000  Uiso   1.00
C868   C     0.09964   0.81812   0.52019   0.00000  Uiso   1.00
H869   H     0.27624   0.87031   0.58179   0.00000  Uiso   1.00
H870   H     0.24426   0.70414   0.73118   0.00000  Uiso   1.00
H871   H     0.08924   0.70422   0.76812   0.00000  Uiso   1.00
H872   H     0.08935   0.96253   0.76763   0.00000  Uiso   1.00
H873   H     0.27211   0.78845   0.81232   0.00000  Uiso   1.00
H874   H     0.02304   0.78854   0.81236   0.00000  Uiso   1.00
H875   H     0.06118   0.87826   0.68776   0.00000  Uiso   1.00
H876   H     0.31026   0.87818   0.68773   0.00000  Uiso   1.00
H877   H     0.25324   0.91076   0.92092   0.00000  Uiso   1.00
H878   H     0.28834   0.89534   0.99004   0.00000  Uiso   1.00
H879   H     0.14940   0.80514   0.58477   0.00000  Uiso   1.00
H880   H     0.05419   0.80743   0.91932   0.00000  Uiso   1.00
H881   H     0.08883   0.80974   0.56236   0.00000  Uiso   1.00
H882   H     0.03262   0.79469   0.51667   0.00000  Uiso   1.00
H883   H     0.24437   0.96240   0.73066   0.00000  Uiso   1.00
N884   N     0.04760   0.83334   0.75002   0.00000  Uiso   1.00
N885   N     0.28573   0.83331   0.75001   0.00000  Uiso   1.00
O886   O     0.12846   0.89442   0.75001   0.00000  Uiso   1.00
O887   O     0.20490   0.89441   0.75001   0.00000  Uiso   1.00
O888   O     0.10947   0.83333   0.82681   0.00000  Uiso   1.00
O889   O     0.18591   0.83332   0.82681   0.00000  Uiso   1.00
O890   O     0.12843   0.77226   0.75000   0.00000  Uiso   1.00
O891   O     0.20488   0.77225   0.75000   0.00000  Uiso   1.00
O892   O     0.14742   0.83335   0.67319   0.00000  Uiso   1.00
O893   O     0.22387   0.83334   0.67319   0.00000  Uiso   1.00
Zn894  Zn    0.11562   0.83334   0.75000   0.00000  Uiso   1.00
Zn895  Zn    0.21771   0.83333   0.75000   0.00000  Uiso   1.00
Cl896  Cl    0.18759   0.91829   0.86689   0.00000  Uiso   1.00
C897   C     0.50018   0.91337   0.74938   0.00000  Uiso   1.00
C898   C     0.47751   0.83785   0.99188   0.00000  Uiso   1.00
C899   C     0.48509   0.85300   0.93927   0.00000  Uiso   1.00
C900   C     0.51427   0.84387   0.51436   0.00000  Uiso   1.00
C901   C     0.55496   0.86890   0.98723   0.00000  Uiso   1.00
C902   C     0.55783   0.88876   0.93938   0.00000  Uiso   1.00
C903   C     0.52245   0.88232   0.91647   0.00000  Uiso   1.00
C904   C     0.51140   0.82616   0.56362   0.00000  Uiso   1.00
C905   C     0.58437   0.86123   0.56202   0.00000  Uiso   1.00
C906   C     0.45514   0.83793   0.91136   0.00000  Uiso   1.00
C907   C     0.54374   0.97866   0.73897   0.00000  Uiso   1.00
C908   C     0.47315   0.83537   0.85220   0.00000  Uiso   1.00
C909   C     0.54367   0.68794   0.73931   0.00000  Uiso   1.00
C910   C     0.50007   0.70914   0.74971   0.00000  Uiso   1.00
C911   C     0.45656   0.68798   0.75971   0.00000  Uiso   1.00
C912   C     0.45663   0.97872   0.75940   0.00000  Uiso   1.00
C913   C     0.50021   0.95752   0.74911   0.00000  Uiso   1.00
C914   C     0.63207   0.80841   0.78464   0.00000  Uiso   1.00
C915   C     0.34669   0.80844   0.78466   0.00000  Uiso   1.00
C916   C     0.36790   0.85829   0.71542   0.00000  Uiso   1.00
C917   C     0.65328   0.85826   0.71540   0.00000  Uiso   1.00
C918   C     0.49999   0.75329   0.74997   0.00000  Uiso   1.00
C919   C     0.52681   0.83306   0.64780   0.00000  Uiso   1.00
C920   C     0.59063   0.87609   0.51036   0.00000  Uiso   1.00
C921   C     0.54339   0.83781   0.58940   0.00000  Uiso   1.00
C922   C     0.41152   0.81814   0.93988   0.00000  Uiso   1.00
C923   C     0.39978   0.80977   0.99463   0.00000  Uiso   1.00
C924   C     0.43297   0.81812   0.52019   0.00000  Uiso   1.00
H925   H     0.60957   0.87031   0.58179   0.00000  Uiso   1.00
H926   H     0.57760   0.70414   0.73118   0.00000  Uiso   1.00
H927   H     0.42257   0.70422   0.76812   0.00000  Uiso   1.00
H928   H     0.42268   0.96253   0.76763   0.00000  Uiso   1.00
H929   H     0.60545   0.78845   0.81232   0.00000  Uiso   1.00
H930   H     0.35637   0.78854   0.81236   0.00000  Uiso   1.00
H931   H     0.39452   0.87826   0.68776   0.00000  Uiso   1.00
H932   H     0.64359   0.87818   0.68773   0.00000  Uiso   1.00
H933   H     0.58658   0.91076   0.92092   0.00000  Uiso   1.00
H934   H     0.62168   0.89534   0.99004   0.00000  Uiso   1.00
H935   H     0.48273   0.80514   0.58477   0.00000  Uiso   1.00
H936   H     0.38753   0.80743   0.91932   0.00000  Uiso   1.00
H937   H     0.42216   0.80974   0.56236   0.00000  Uiso   1.00
H938   H     0.36595   0.79469   0.51667   0.00000  Uiso   1.00
H939   H     0.57770   0.96240   0.73066   0.00000  Uiso   1.00
N940   N     0.38093   0.83334   0.75002   0.00000  Uiso   1.00
N941   N     0.61906   0.83331   0.75001   0.00000  Uiso   1.00
O942   O     0.46179   0.89442   0.75001   0.00000  Uiso   1.00
O943   O     0.53823   0.89441   0.75001   0.00000  Uiso   1.00
O944   O     0.44280   0.83333   0.82681   0.00000  Uiso   1.00
O945   O     0.51924   0.83332   0.82681   0.00000  Uiso   1.00
O946   O     0.46177   0.77226   0.75000   0.00000  Uiso   1.00
O947   O     0.53821   0.77225   0.75000   0.00000  Uiso   1.00
O948   O     0.48076   0.83335   0.67319   0.00000  Uiso   1.00
O949   O     0.55720   0.83334   0.67319   0.00000  Uiso   1.00
Zn950  Zn    0.44896   0.83334   0.75000   0.00000  Uiso   1.00
Zn951  Zn    0.55104   0.83333   0.75000   0.00000  Uiso   1.00
Cl952  Cl    0.52092   0.91829   0.86689   0.00000  Uiso   1.00
C953   C     0.83352   0.91337   0.74938   0.00000  Uiso   1.00
C954   C     0.81084   0.83785   0.99188   0.00000  Uiso   1.00
C955   C     0.81842   0.85300   0.93927   0.00000  Uiso   1.00
C956   C     0.84760   0.84387   0.51436   0.00000  Uiso   1.00
C957   C     0.88829   0.86890   0.98723   0.00000  Uiso   1.00
C958   C     0.89116   0.88876   0.93938   0.00000  Uiso   1.00
C959   C     0.85578   0.88232   0.91647   0.00000  Uiso   1.00
C960   C     0.84474   0.82616   0.56362   0.00000  Uiso   1.00
C961   C     0.91770   0.86123   0.56202   0.00000  Uiso   1.00
C962   C     0.78848   0.83793   0.91136   0.00000  Uiso   1.00
C963   C     0.87708   0.97866   0.73897   0.00000  Uiso   1.00
C964   C     0.80648   0.83537   0.85220   0.00000  Uiso   1.00
C965   C     0.87700   0.68794   0.73931   0.00000  Uiso   1.00
C966   C     0.83340   0.70914   0.74971   0.00000  Uiso   1.00
C967   C     0.78989   0.68798   0.75971   0.00000  Uiso   1.00
C968   C     0.78996   0.97872   0.75940   0.00000  Uiso   1.00
C969   C     0.83354   0.95752   0.74911   0.00000  Uiso   1.00
C970   C     0.96541   0.80841   0.78464   0.00000  Uiso   1.00
C971   C     0.68002   0.80844   0.78466   0.00000  Uiso   1.00
C972   C     0.70123   0.85829   0.71542   0.00000  Uiso   1.00
C973   C     0.98662   0.85826   0.71540   0.00000  Uiso   1.00
C974   C     0.83332   0.75329   0.74997   0.00000  Uiso   1.00
C975   C     0.86015   0.83306   0.64780   0.00000  Uiso   1.00
C976   C     0.92397   0.87609   0.51036   0.00000  Uiso   1.00
C977   C     0.87672   0.83781   0.58940   0.00000  Uiso   1.00
C978   C     0.74486   0.81814   0.93988   0.00000  Uiso   1.00
C979   C     0.73311   0.80977   0.99463   0.00000  Uiso   1.00
C980   C     0.76630   0.81812   0.52019   0.00000  Uiso   1.00
H981   H     0.94290   0.87031   0.58179   0.00000  Uiso   1.00
H982   H     0.91093   0.70414   0.73118   0.00000  Uiso   1.00
H983   H     0.75591   0.70422   0.76812   0.00000  Uiso   1.00
H984   H     0.75602   0.96253   0.76763   0.00000  Uiso   1.00
H985   H     0.93878   0.78845   0.81232   0.00000  Uiso   1.00
H986   H     0.68970   0.78854   0.81236   0.00000  Uiso   1.00
H987   H     0.72785   0.87826   0.68776   0.00000  Uiso   1.00
H988   H     0.97692   0.87818   0.68773   0.00000  Uiso   1.00
H989   H     0.91991   0.91076   0.92092   0.00000  Uiso   1.00
H990   H     0.95501   0.89534   0.99004   0.00000  Uiso   1.00
H991   H     0.81606   0.80514   0.58477   0.00000  Uiso   1.00
H992   H     0.72086   0.80743   0.91932   0.00000  Uiso   1.00
H993   H     0.75550   0.80974   0.56236   0.00000  Uiso   1.00
H994   H     0.69928   0.79469   0.51667   0.00000  Uiso   1.00
H995   H     0.91103   0.96240   0.73066   0.00000  Uiso   1.00
N996   N     0.71426   0.83334   0.75002   0.00000  Uiso   1.00
N997   N     0.95239   0.83331   0.75001   0.00000  Uiso   1.00
O998   O     0.79512   0.89442   0.75001   0.00000  Uiso   1.00
O999   O     0.87157   0.89441   0.75001   0.00000  Uiso   1.00
O1000  O     0.77613   0.83333   0.82681   0.00000  Uiso   1.00
O1001  O     0.85258   0.83332   0.82681   0.00000  Uiso   1.00
O1002  O     0.79510   0.77226   0.75000   0.00000  Uiso   1.00
O1003  O     0.87154   0.77225   0.75000   0.00000  Uiso   1.00
O1004  O     0.81409   0.83335   0.67319   0.00000  Uiso   1.00
O1005  O     0.89053   0.83334   0.67319   0.00000  Uiso   1.00
Zn1006 Zn    0.78229   0.83334   0.75000   0.00000  Uiso   1.00
Zn1007 Zn    0.88438   0.83333   0.75000   0.00000  Uiso   1.00
Cl1008 Cl    0.85426   0.91829   0.86689   0.00000  Uiso   1.00
loop_
_geom_bond_atom_site_label_1
_geom_bond_atom_site_label_2
_geom_bond_distance
_geom_bond_site_symmetry_2
_ccdc_geom_bond_type
C1     O47     1.284   .     A
C1     O46     1.282   .     A
C1     C17     1.419   .     S
C2     C3      1.412   .     A
C2     C508    1.416   .     S
C2     C532    1.420   .     S
C3     C7      1.420   .     A
C3     C10     1.413   .     A
C4     C8      1.393   .     A
C4     C506    1.416   1_554 S
C4     C509    1.420   1_554 S
C5     C6      1.390   .     A
C5     C508    1.420   .     S
C5     C528    1.405   .     S
C6     C7      1.389   .     A
C6     H37     1.084   .     S
C7     Cl56    1.759   .     S
C8     H39     1.078   .     S
C8     C25     1.389   .     A
C9     C24     1.393   .     A
C9     H29     1.083   .     S
C9     C25     1.398   .     A
C10    C12     1.460   .     S
C10    C26     1.402   .     A
C11    H43     1.084   .     S
C11    C17     1.397   .     A
C11    C181    1.370   .     S
C12    O48     1.290   .     A
C12    O49     1.294   .     A
C13    H30     1.084   .     S
C13    C14     1.397   .     A
C13    C347    1.370   1_545 S
C14    C22     1.420   .     S
C14    C15     1.397   .     A
C15    H31     1.084   .     S
C15    C352    1.370   1_545 S
C16    H32     1.084   .     S
C16    C17     1.397   .     A
C16    C183    1.370   .     S
C18    H33     1.082   .     S
C18    N45     1.367   .     A
C18    C75     1.416   .     S
C19    N44     1.366   .     A
C19    H34     1.082   .     S
C19    C130    1.416   1_455 S
C20    N44     1.367   .     A
C20    H35     1.082   .     S
C20    C133    1.416   1_455 S
C21    N45     1.366   .     A
C21    H36     1.082   .     S
C21    C76     1.416   .     S
C22    O50     1.283   .     A
C22    O51     1.283   .     A
C23    O52     1.292   .     A
C23    O53     1.290   .     A
C23    C25     1.450   .     S
C24    C509    1.405   1_554 S
C24    H542    1.084   1_554 S
C26    H40     1.083   .     S
C26    C27     1.387   .     A
C27    C532    1.391   .     S
C27    H546    1.083   .     S
C28    H41     1.078   .     S
C28    C531    1.391   1_554 S
C28    C506    1.420   1_554 S
H38    C528    1.084   .     S
H42    C531    1.083   1_554 S
N44    Zn54    2.009   .     S
N45    Zn55    2.009   .     S
O46    Zn54    2.000   .     S
O47    Zn55    2.000   .     S
O48    Zn54    1.963   .     S
O49    Zn55    1.909   .     S
O50    Zn54    2.000   .     S
O51    Zn55    2.000   .     S
O52    Zn54    1.909   .     S
O53    Zn55    1.963   .     S
C57    O103    1.284   .     A
C57    O102    1.282   .     A
C57    C73     1.419   .     S
C58    C59     1.412   .     A
C58    C564    1.416   .     S
C58    C588    1.420   .     S
C59    C63     1.420   .     A
C59    C66     1.413   .     A
C60    C64     1.393   .     A
C60    C562    1.416   1_554 S
C60    C565    1.420   1_554 S
C61    C62     1.390   .     A
C61    C564    1.420   .     S
C61    C584    1.405   .     S
C62    C63     1.389   .     A
C62    H93     1.084   .     S
C63    Cl112   1.759   .     S
C64    H95     1.078   .     S
C64    C81     1.389   .     A
C65    C80     1.393   .     A
C65    H85     1.083   .     S
C65    C81     1.398   .     A
C66    C68     1.460   .     S
C66    C82     1.402   .     A
C67    H99     1.084   .     S
C67    C73     1.397   .     A
C67    C237    1.370   .     S
C68    O104    1.290   .     A
C68    O105    1.294   .     A
C69    H86     1.084   .     S
C69    C70     1.397   .     A
C69    C403    1.370   1_545 S
C70    C78     1.420   .     S
C70    C71     1.397   .     A
C71    H87     1.084   .     S
C71    C408    1.370   1_545 S
C72    H88     1.084   .     S
C72    C73     1.397   .     A
C72    C239    1.370   .     S
C74    H89     1.082   .     S
C74    N101    1.367   .     A
C74    C131    1.416   .     S
C75    N100    1.366   .     A
C75    H90     1.082   .     S
C76    N100    1.367   .     A
C76    H91     1.082   .     S
C77    N101    1.366   .     A
C77    H92     1.082   .     S
C77    C132    1.416   .     S
C78    O106    1.283   .     A
C78    O107    1.283   .     A
C79    O108    1.292   .     A
C79    O109    1.290   .     A
C79    C81     1.450   .     S
C80    C565    1.405   1_554 S
C80    H598    1.084   1_554 S
C82    H96     1.083   .     S
C82    C83     1.387   .     A
C83    C588    1.391   .     S
C83    H602    1.083   .     S
C84    H97     1.078   .     S
C84    C587    1.391   1_554 S
C84    C562    1.420   1_554 S
H94    C584    1.084   .     S
H98    C587    1.083   1_554 S
N100   Zn110   2.009   .     S
N101   Zn111   2.009   .     S
O102   Zn110   2.000   .     S
O103   Zn111   2.000   .     S
O104   Zn110   1.963   .     S
O105   Zn111   1.909   .     S
O106   Zn110   2.000   .     S
O107   Zn111   2.000   .     S
O108   Zn110   1.909   .     S
O109   Zn111   1.963   .     S
C113   O159    1.284   .     A
C113   O158    1.282   .     A
C113   C129    1.419   .     S
C114   C115    1.412   .     A
C114   C620    1.416   .     S
C114   C644    1.420   .     S
C115   C119    1.420   .     A
C115   C122    1.413   .     A
C116   C120    1.393   .     A
C116   C618    1.416   1_554 S
C116   C621    1.420   1_554 S
C117   C118    1.390   .     A
C117   C620    1.420   .     S
C117   C640    1.405   .     S
C118   C119    1.389   .     A
C118   H149    1.084   .     S
C119   Cl168   1.759   .     S
C120   H151    1.078   .     S
C120   C137    1.389   .     A
C121   C136    1.393   .     A
C121   H141    1.083   .     S
C121   C137    1.398   .     A
C122   C124    1.460   .     S
C122   C138    1.402   .     A
C123   H155    1.084   .     S
C123   C129    1.397   .     A
C123   C293    1.370   .     S
C124   O160    1.290   .     A
C124   O161    1.294   .     A
C125   H142    1.084   .     S
C125   C126    1.397   .     A
C125   C459    1.370   1_545 S
C126   C134    1.420   .     S
C126   C127    1.397   .     A
C127   H143    1.084   .     S
C127   C464    1.370   1_545 S
C128   H144    1.084   .     S
C128   C129    1.397   .     A
C128   C295    1.370   .     S
C130   H145    1.082   .     S
C130   N157    1.367   .     A
C130   C19     1.416   1_655 S
C131   N156    1.366   .     A
C131   H146    1.082   .     S
C132   N156    1.367   .     A
C132   H147    1.082   .     S
C133   N157    1.366   .     A
C133   H148    1.082   .     S
C133   C20     1.416   1_655 S
C134   O162    1.283   .     A
C134   O163    1.283   .     A
C135   O164    1.292   .     A
C135   O165    1.290   .     A
C135   C137    1.450   .     S
C136   C621    1.405   1_554 S
C136   H654    1.084   1_554 S
C138   H152    1.083   .     S
C138   C139    1.387   .     A
C139   C644    1.391   .     S
C139   H658    1.083   .     S
C140   H153    1.078   .     S
C140   C643    1.391   1_554 S
C140   C618    1.420   1_554 S
H150   C640    1.084   .     S
H154   C643    1.083   1_554 S
N156   Zn166   2.009   .     S
N157   Zn167   2.009   .     S
O158   Zn166   2.000   .     S
O159   Zn167   2.000   .     S
O160   Zn166   1.963   .     S
O161   Zn167   1.909   .     S
O162   Zn166   2.000   .     S
O163   Zn167   2.000   .     S
O164   Zn166   1.909   .     S
O165   Zn167   1.963   .     S
C169   O215    1.284   .     A
C169   O214    1.282   .     A
C169   C185    1.419   .     S
C170   C171    1.412   .     A
C170   C676    1.416   .     S
C170   C700    1.420   .     S
C171   C175    1.420   .     A
C171   C178    1.413   .     A
C172   C176    1.393   .     A
C172   C674    1.416   1_554 S
C172   C677    1.420   1_554 S
C173   C174    1.390   .     A
C173   C676    1.420   .     S
C173   C696    1.405   .     S
C174   C175    1.389   .     A
C174   H205    1.084   .     S
C175   Cl224   1.759   .     S
C176   H207    1.078   .     S
C176   C193    1.389   .     A
C177   C192    1.393   .     A
C177   H197    1.083   .     S
C177   C193    1.398   .     A
C178   C180    1.460   .     S
C178   C194    1.402   .     A
C179   H211    1.084   .     S
C179   C185    1.397   .     A
C179   C349    1.370   .     S
C180   O216    1.290   .     A
C180   O217    1.294   .     A
C181   H198    1.084   .     S
C181   C182    1.397   .     A
C182   C190    1.420   .     S
C182   C183    1.397   .     A
C183   H199    1.084   .     S
C184   H200    1.084   .     S
C184   C185    1.397   .     A
C184   C351    1.370   .     S
C186   H201    1.082   .     S
C186   N213    1.367   .     A
C186   C243    1.416   .     S
C187   N212    1.366   .     A
C187   H202    1.082   .     S
C187   C298    1.416   1_455 S
C188   N212    1.367   .     A
C188   H203    1.082   .     S
C188   C301    1.416   1_455 S
C189   N213    1.366   .     A
C189   H204    1.082   .     S
C189   C244    1.416   .     S
C190   O218    1.283   .     A
C190   O219    1.283   .     A
C191   O220    1.292   .     A
C191   O221    1.290   .     A
C191   C193    1.450   .     S
C192   C677    1.405   1_554 S
C192   H710    1.084   1_554 S
C194   H208    1.083   .     S
C194   C195    1.387   .     A
C195   C700    1.391   .     S
C195   H714    1.083   .     S
C196   H209    1.078   .     S
C196   C699    1.391   1_554 S
C196   C674    1.420   1_554 S
H206   C696    1.084   .     S
H210   C699    1.083   1_554 S
N212   Zn222   2.009   .     S
N213   Zn223   2.009   .     S
O214   Zn222   2.000   .     S
O215   Zn223   2.000   .     S
O216   Zn222   1.963   .     S
O217   Zn223   1.909   .     S
O218   Zn222   2.000   .     S
O219   Zn223   2.000   .     S
O220   Zn222   1.909   .     S
O221   Zn223   1.963   .     S
C225   O271    1.284   .     A
C225   O270    1.282   .     A
C225   C241    1.419   .     S
C226   C227    1.412   .     A
C226   C732    1.416   .     S
C226   C756    1.420   .     S
C227   C231    1.420   .     A
C227   C234    1.413   .     A
C228   C232    1.393   .     A
C228   C730    1.416   1_554 S
C228   C733    1.420   1_554 S
C229   C230    1.390   .     A
C229   C732    1.420   .     S
C229   C752    1.405   .     S
C230   C231    1.389   .     A
C230   H261    1.084   .     S
C231   Cl280   1.759   .     S
C232   H263    1.078   .     S
C232   C249    1.389   .     A
C233   C248    1.393   .     A
C233   H253    1.083   .     S
C233   C249    1.398   .     A
C234   C236    1.460   .     S
C234   C250    1.402   .     A
C235   H267    1.084   .     S
C235   C241    1.397   .     A
C235   C405    1.370   .     S
C236   O272    1.290   .     A
C236   O273    1.294   .     A
C237   H254    1.084   .     S
C237   C238    1.397   .     A
C238   C246    1.420   .     S
C238   C239    1.397   .     A
C239   H255    1.084   .     S
C240   H256    1.084   .     S
C240   C241    1.397   .     A
C240   C407    1.370   .     S
C242   H257    1.082   .     S
C242   N269    1.367   .     A
C242   C299    1.416   .     S
C243   N268    1.366   .     A
C243   H258    1.082   .     S
C244   N268    1.367   .     A
C244   H259    1.082   .     S
C245   N269    1.366   .     A
C245   H260    1.082   .     S
C245   C300    1.416   .     S
C246   O274    1.283   .     A
C246   O275    1.283   .     A
C247   O276    1.292   .     A
C247   O277    1.290   .     A
C247   C249    1.450   .     S
C248   C733    1.405   1_554 S
C248   H766    1.084   1_554 S
C250   H264    1.083   .     S
C250   C251    1.387   .     A
C251   C756    1.391   .     S
C251   H770    1.083   .     S
C252   H265    1.078   .     S
C252   C755    1.391   1_554 S
C252   C730    1.420   1_554 S
H262   C752    1.084   .     S
H266   C755    1.083   1_554 S
N268   Zn278   2.009   .     S
N269   Zn279   2.009   .     S
O270   Zn278   2.000   .     S
O271   Zn279   2.000   .     S
O272   Zn278   1.963   .     S
O273   Zn279   1.909   .     S
O274   Zn278   2.000   .     S
O275   Zn279   2.000   .     S
O276   Zn278   1.909   .     S
O277   Zn279   1.963   .     S
C281   O327    1.284   .     A
C281   O326    1.282   .     A
C281   C297    1.419   .     S
C282   C283    1.412   .     A
C282   C788    1.416   .     S
C282   C812    1.420   .     S
C283   C287    1.420   .     A
C283   C290    1.413   .     A
C284   C288    1.393   .     A
C284   C786    1.416   1_554 S
C284   C789    1.420   1_554 S
C285   C286    1.390   .     A
C285   C788    1.420   .     S
C285   C808    1.405   .     S
C286   C287    1.389   .     A
C286   H317    1.084   .     S
C287   Cl336   1.759   .     S
C288   H319    1.078   .     S
C288   C305    1.389   .     A
C289   C304    1.393   .     A
C289   H309    1.083   .     S
C289   C305    1.398   .     A
C290   C292    1.460   .     S
C290   C306    1.402   .     A
C291   H323    1.084   .     S
C291   C297    1.397   .     A
C291   C461    1.370   .     S
C292   O328    1.290   .     A
C292   O329    1.294   .     A
C293   H310    1.084   .     S
C293   C294    1.397   .     A
C294   C302    1.420   .     S
C294   C295    1.397   .     A
C295   H311    1.084   .     S
C296   H312    1.084   .     S
C296   C297    1.397   .     A
C296   C463    1.370   .     S
C298   H313    1.082   .     S
C298   N325    1.367   .     A
C298   C187    1.416   1_655 S
C299   N324    1.366   .     A
C299   H314    1.082   .     S
C300   N324    1.367   .     A
C300   H315    1.082   .     S
C301   N325    1.366   .     A
C301   H316    1.082   .     S
C301   C188    1.416   1_655 S
C302   O330    1.283   .     A
C302   O331    1.283   .     A
C303   O332    1.292   .     A
C303   O333    1.290   .     A
C303   C305    1.450   .     S
C304   C789    1.405   1_554 S
C304   H822    1.084   1_554 S
C306   H320    1.083   .     S
C306   C307    1.387   .     A
C307   C812    1.391   .     S
C307   H826    1.083   .     S
C308   H321    1.078   .     S
C308   C811    1.391   1_554 S
C308   C786    1.420   1_554 S
H318   C808    1.084   .     S
H322   C811    1.083   1_554 S
N324   Zn334   2.009   .     S
N325   Zn335   2.009   .     S
O326   Zn334   2.000   .     S
O327   Zn335   2.000   .     S
O328   Zn334   1.963   .     S
O329   Zn335   1.909   .     S
O330   Zn334   2.000   .     S
O331   Zn335   2.000   .     S
O332   Zn334   1.909   .     S
O333   Zn335   1.963   .     S
C337   O383    1.284   .     A
C337   O382    1.282   .     A
C337   C353    1.419   .     S
C338   C339    1.412   .     A
C338   C844    1.416   .     S
C338   C868    1.420   .     S
C339   C343    1.420   .     A
C339   C346    1.413   .     A
C340   C344    1.393   .     A
C340   C842    1.416   1_554 S
C340   C845    1.420   1_554 S
C341   C342    1.390   .     A
C341   C844    1.420   .     S
C341   C864    1.405   .     S
C342   C343    1.389   .     A
C342   H373    1.084   .     S
C343   Cl392   1.759   .     S
C344   H375    1.078   .     S
C344   C361    1.389   .     A
C345   C360    1.393   .     A
C345   H365    1.083   .     S
C345   C361    1.398   .     A
C346   C348    1.460   .     S
C346   C362    1.402   .     A
C347   H379    1.084   .     S
C347   C353    1.397   .     A
C347   C13     1.370   1_565 S
C348   O384    1.290   .     A
C348   O385    1.294   .     A
C349   H366    1.084   .     S
C349   C350    1.397   .     A
C350   C358    1.420   .     S
C350   C351    1.397   .     A
C351   H367    1.084   .     S
C352   H368    1.084   .     S
C352   C353    1.397   .     A
C352   C15     1.370   1_565 S
C354   H369    1.082   .     S
C354   N381    1.367   .     A
C354   C411    1.416   .     S
C355   N380    1.366   .     A
C355   H370    1.082   .     S
C355   C466    1.416   1_455 S
C356   N380    1.367   .     A
C356   H371    1.082   .     S
C356   C469    1.416   1_455 S
C357   N381    1.366   .     A
C357   H372    1.082   .     S
C357   C412    1.416   .     S
C358   O386    1.283   .     A
C358   O387    1.283   .     A
C359   O388    1.292   .     A
C359   O389    1.290   .     A
C359   C361    1.450   .     S
C360   C845    1.405   1_554 S
C360   H878    1.084   1_554 S
C362   H376    1.083   .     S
C362   C363    1.387   .     A
C363   C868    1.391   .     S
C363   H882    1.083   .     S
C364   H377    1.078   .     S
C364   C867    1.391   1_554 S
C364   C842    1.420   1_554 S
H374   C864    1.084   .     S
H378   C867    1.083   1_554 S
N380   Zn390   2.009   .     S
N381   Zn391   2.009   .     S
O382   Zn390   2.000   .     S
O383   Zn391   2.000   .     S
O384   Zn390   1.963   .     S
O385   Zn391   1.909   .     S
O386   Zn390   2.000   .     S
O387   Zn391   2.000   .     S
O388   Zn390   1.909   .     S
O389   Zn391   1.963   .     S
C393   O439    1.284   .     A
C393   O438    1.282   .     A
C393   C409    1.419   .     S
C394   C395    1.412   .     A
C394   C900    1.416   .     S
C394   C924    1.420   .     S
C395   C399    1.420   .     A
C395   C402    1.413   .     A
C396   C400    1.393   .     A
C396   C898    1.416   1_554 S
C396   C901    1.420   1_554 S
C397   C398    1.390   .     A
C397   C900    1.420   .     S
C397   C920    1.405   .     S
C398   C399    1.389   .     A
C398   H429    1.084   .     S
C399   Cl448   1.759   .     S
C400   H431    1.078   .     S
C400   C417    1.389   .     A
C401   C416    1.393   .     A
C401   H421    1.083   .     S
C401   C417    1.398   .     A
C402   C404    1.460   .     S
C402   C418    1.402   .     A
C403   H435    1.084   .     S
C403   C409    1.397   .     A
C403   C69     1.370   1_565 S
C404   O440    1.290   .     A
C404   O441    1.294   .     A
C405   H422    1.084   .     S
C405   C406    1.397   .     A
C406   C414    1.420   .     S
C406   C407    1.397   .     A
C407   H423    1.084   .     S
C408   H424    1.084   .     S
C408   C409    1.397   .     A
C408   C71     1.370   1_565 S
C410   H425    1.082   .     S
C410   N437    1.367   .     A
C410   C467    1.416   .     S
C411   N436    1.366   .     A
C411   H426    1.082   .     S
C412   N436    1.367   .     A
C412   H427    1.082   .     S
C413   N437    1.366   .     A
C413   H428    1.082   .     S
C413   C468    1.416   .     S
C414   O442    1.283   .     A
C414   O443    1.283   .     A
C415   O444    1.292   .     A
C415   O445    1.290   .     A
C415   C417    1.450   .     S
C416   C901    1.405   1_554 S
C416   H934    1.084   1_554 S
C418   H432    1.083   .     S
C418   C419    1.387   .     A
C419   C924    1.391   .     S
C419   H938    1.083   .     S
C420   H433    1.078   .     S
C420   C923    1.391   1_554 S
C420   C898    1.420   1_554 S
H430   C920    1.084   .     S
H434   C923    1.083   1_554 S
N436   Zn446   2.009   .     S
N437   Zn447   2.009   .     S
O438   Zn446   2.000   .     S
O439   Zn447   2.000   .     S
O440   Zn446   1.963   .     S
O441   Zn447   1.909   .     S
O442   Zn446   2.000   .     S
O443   Zn447   2.000   .     S
O444   Zn446   1.909   .     S
O445   Zn447   1.963   .     S
C449   O495    1.284   .     A
C449   O494    1.282   .     A
C449   C465    1.419   .     S
C450   C451    1.412   .     A
C450   C956    1.416   .     S
C450   C980    1.420   .     S
C451   C455    1.420   .     A
C451   C458    1.413   .     A
C452   C456    1.393   .     A
C452   C954    1.416   1_554 S
C452   C957    1.420   1_554 S
C453   C454    1.390   .     A
C453   C956    1.420   .     S
C453   C976    1.405   .     S
C454   C455    1.389   .     A
C454   H485    1.084   .     S
C455   Cl504   1.759   .     S
C456   H487    1.078   .     S
C456   C473    1.389   .     A
C457   C472    1.393   .     A
C457   H477    1.083   .     S
C457   C473    1.398   .     A
C458   C460    1.460   .     S
C458   C474    1.402   .     A
C459   H491    1.084   .     S
C459   C465    1.397   .     A
C459   C125    1.370   1_565 S
C460   O496    1.290   .     A
C460   O497    1.294   .     A
C461   H478    1.084   .     S
C461   C462    1.397   .     A
C462   C470    1.420   .     S
C462   C463    1.397   .     A
C463   H479    1.084   .     S
C464   H480    1.084   .     S
C464   C465    1.397   .     A
C464   C127    1.370   1_565 S
C466   H481    1.082   .     S
C466   N493    1.367   .     A
C466   C355    1.416   1_655 S
C467   N492    1.366   .     A
C467   H482    1.082   .     S
C468   N492    1.367   .     A
C468   H483    1.082   .     S
C469   N493    1.366   .     A
C469   H484    1.082   .     S
C469   C356    1.416   1_655 S
C470   O498    1.283   .     A
C470   O499    1.283   .     A
C471   O500    1.292   .     A
C471   O501    1.290   .     A
C471   C473    1.450   .     S
C472   C957    1.405   1_554 S
C472   H990    1.084   1_554 S
C474   H488    1.083   .     S
C474   C475    1.387   .     A
C475   C980    1.391   .     S
C475   H994    1.083   .     S
C476   H489    1.078   .     S
C476   C979    1.391   1_554 S
C476   C954    1.420   1_554 S
H486   C976    1.084   .     S
H490   C979    1.083   1_554 S
N492   Zn502   2.009   .     S
N493   Zn503   2.009   .     S
O494   Zn502   2.000   .     S
O495   Zn503   2.000   .     S
O496   Zn502   1.963   .     S
O497   Zn503   1.909   .     S
O498   Zn502   2.000   .     S
O499   Zn503   2.000   .     S
O500   Zn502   1.909   .     S
O501   Zn503   1.963   .     S
C505   O551    1.284   .     A
C505   O550    1.282   .     A
C505   C521    1.419   .     S
C506   C507    1.412   .     A
C506   C4      1.416   1_556 S
C506   C28     1.420   1_556 S
C507   C511    1.420   .     A
C507   C514    1.413   .     A
C508   C512    1.393   .     A
C509   C510    1.390   .     A
C509   C4      1.420   1_556 S
C509   C24     1.405   1_556 S
C510   C511    1.389   .     A
C510   H541    1.084   .     S
C511   Cl560   1.759   .     S
C512   H543    1.078   .     S
C512   C529    1.389   .     A
C513   C528    1.393   .     A
C513   H533    1.083   .     S
C513   C529    1.398   .     A
C514   C516    1.460   .     S
C514   C530    1.402   .     A
C515   H547    1.084   .     S
C515   C521    1.397   .     A
C515   C685    1.370   .     S
C516   O552    1.290   .     A
C516   O553    1.294   .     A
C517   H534    1.084   .     S
C517   C518    1.397   .     A
C517   C851    1.370   1_545 S
C518   C526    1.420   .     S
C518   C519    1.397   .     A
C519   H535    1.084   .     S
C519   C856    1.370   1_545 S
C520   H536    1.084   .     S
C520   C521    1.397   .     A
C520   C687    1.370   .     S
C522   H537    1.082   .     S
C522   N549    1.367   .     A
C522   C579    1.416   .     S
C523   N548    1.366   .     A
C523   H538    1.082   .     S
C523   C634    1.416   1_455 S
C524   N548    1.367   .     A
C524   H539    1.082   .     S
C524   C637    1.416   1_455 S
C525   N549    1.366   .     A
C525   H540    1.082   .     S
C525   C580    1.416   .     S
C526   O554    1.283   .     A
C526   O555    1.283   .     A
C527   O556    1.292   .     A
C527   O557    1.290   .     A
C527   C529    1.450   .     S
C530   H544    1.083   .     S
C530   C531    1.387   .     A
C531   C28     1.391   1_556 S
C531   H42     1.083   1_556 S
C532   H545    1.078   .     S
H542   C24     1.084   1_556 S
N548   Zn558   2.009   .     S
N549   Zn559   2.009   .     S
O550   Zn558   2.000   .     S
O551   Zn559   2.000   .     S
O552   Zn558   1.963   .     S
O553   Zn559   1.909   .     S
O554   Zn558   2.000   .     S
O555   Zn559   2.000   .     S
O556   Zn558   1.909   .     S
O557   Zn559   1.963   .     S
C561   O607    1.284   .     A
C561   O606    1.282   .     A
C561   C577    1.419   .     S
C562   C563    1.412   .     A
C562   C60     1.416   1_556 S
C562   C84     1.420   1_556 S
C563   C567    1.420   .     A
C563   C570    1.413   .     A
C564   C568    1.393   .     A
C565   C566    1.390   .     A
C565   C60     1.420   1_556 S
C565   C80     1.405   1_556 S
C566   C567    1.389   .     A
C566   H597    1.084   .     S
C567   Cl616   1.759   .     S
C568   H599    1.078   .     S
C568   C585    1.389   .     A
C569   C584    1.393   .     A
C569   H589    1.083   .     S
C569   C585    1.398   .     A
C570   C572    1.460   .     S
C570   C586    1.402   .     A
C571   H603    1.084   .     S
C571   C577    1.397   .     A
C571   C741    1.370   .     S
C572   O608    1.290   .     A
C572   O609    1.294   .     A
C573   H590    1.084   .     S
C573   C574    1.397   .     A
C573   C907    1.370   1_545 S
C574   C582    1.420   .     S
C574   C575    1.397   .     A
C575   H591    1.084   .     S
C575   C912    1.370   1_545 S
C576   H592    1.084   .     S
C576   C577    1.397   .     A
C576   C743    1.370   .     S
C578   H593    1.082   .     S
C578   N605    1.367   .     A
C578   C635    1.416   .     S
C579   N604    1.366   .     A
C579   H594    1.082   .     S
C580   N604    1.367   .     A
C580   H595    1.082   .     S
C581   N605    1.366   .     A
C581   H596    1.082   .     S
C581   C636    1.416   .     S
C582   O610    1.283   .     A
C582   O611    1.283   .     A
C583   O612    1.292   .     A
C583   O613    1.290   .     A
C583   C585    1.450   .     S
C586   H600    1.083   .     S
C586   C587    1.387   .     A
C587   C84     1.391   1_556 S
C587   H98     1.083   1_556 S
C588   H601    1.078   .     S
H598   C80     1.084   1_556 S
N604   Zn614   2.009   .     S
N605   Zn615   2.009   .     S
O606   Zn614   2.000   .     S
O607   Zn615   2.000   .     S
O608   Zn614   1.963   .     S
O609   Zn615   1.909   .     S
O610   Zn614   2.000   .     S
O611   Zn615   2.000   .     S
O612   Zn614   1.909   .     S
O613   Zn615   1.963   .     S
C617   O663    1.284   .     A
C617   O662    1.282   .     A
C617   C633    1.419   .     S
C618   C619    1.412   .     A
C618   C116    1.416   1_556 S
C618   C140    1.420   1_556 S
C619   C623    1.420   .     A
C619   C626    1.413   .     A
C620   C624    1.393   .     A
C621   C622    1.390   .     A
C621   C116    1.420   1_556 S
C621   C136    1.405   1_556 S
C622   C623    1.389   .     A
C622   H653    1.084   .     S
C623   Cl672   1.759   .     S
C624   H655    1.078   .     S
C624   C641    1.389   .     A
C625   C640    1.393   .     A
C625   H645    1.083   .     S
C625   C641    1.398   .     A
C626   C628    1.460   .     S
C626   C642    1.402   .     A
C627   H659    1.084   .     S
C627   C633    1.397   .     A
C627   C797    1.370   .     S
C628   O664    1.290   .     A
C628   O665    1.294   .     A
C629   H646    1.084   .     S
C629   C630    1.397   .     A
C629   C963    1.370   1_545 S
C630   C638    1.420   .     S
C630   C631    1.397   .     A
C631   H647    1.084   .     S
C631   C968    1.370   1_545 S
C632   H648    1.084   .     S
C632   C633    1.397   .     A
C632   C799    1.370   .     S
C634   H649    1.082   .     S
C634   N661    1.367   .     A
C634   C523    1.416   1_655 S
C635   N660    1.366   .     A
C635   H650    1.082   .     S
C636   N660    1.367   .     A
C636   H651    1.082   .     S
C637   N661    1.366   .     A
C637   H652    1.082   .     S
C637   C524    1.416   1_655 S
C638   O666    1.283   .     A
C638   O667    1.283   .     A
C639   O668    1.292   .     A
C639   O669    1.290   .     A
C639   C641    1.450   .     S
C642   H656    1.083   .     S
C642   C643    1.387   .     A
C643   C140    1.391   1_556 S
C643   H154    1.083   1_556 S
C644   H657    1.078   .     S
H654   C136    1.084   1_556 S
N660   Zn670   2.009   .     S
N661   Zn671   2.009   .     S
O662   Zn670   2.000   .     S
O663   Zn671   2.000   .     S
O664   Zn670   1.963   .     S
O665   Zn671   1.909   .     S
O666   Zn670   2.000   .     S
O667   Zn671   2.000   .     S
O668   Zn670   1.909   .     S
O669   Zn671   1.963   .     S
C673   O719    1.284   .     A
C673   O718    1.282   .     A
C673   C689    1.419   .     S
C674   C675    1.412   .     A
C674   C172    1.416   1_556 S
C674   C196    1.420   1_556 S
C675   C679    1.420   .     A
C675   C682    1.413   .     A
C676   C680    1.393   .     A
C677   C678    1.390   .     A
C677   C172    1.420   1_556 S
C677   C192    1.405   1_556 S
C678   C679    1.389   .     A
C678   H709    1.084   .     S
C679   Cl728   1.759   .     S
C680   H711    1.078   .     S
C680   C697    1.389   .     A
C681   C696    1.393   .     A
C681   H701    1.083   .     S
C681   C697    1.398   .     A
C682   C684    1.460   .     S
C682   C698    1.402   .     A
C683   H715    1.084   .     S
C683   C689    1.397   .     A
C683   C853    1.370   .     S
C684   O720    1.290   .     A
C684   O721    1.294   .     A
C685   H702    1.084   .     S
C685   C686    1.397   .     A
C686   C694    1.420   .     S
C686   C687    1.397   .     A
C687   H703    1.084   .     S
C688   H704    1.084   .     S
C688   C689    1.397   .     A
C688   C855    1.370   .     S
C690   H705    1.082   .     S
C690   N717    1.367   .     A
C690   C747    1.416   .     S
C691   N716    1.366   .     A
C691   H706    1.082   .     S
C691   C802    1.416   1_455 S
C692   N716    1.367   .     A
C692   H707    1.082   .     S
C692   C805    1.416   1_455 S
C693   N717    1.366   .     A
C693   H708    1.082   .     S
C693   C748    1.416   .     S
C694   O722    1.283   .     A
C694   O723    1.283   .     A
C695   O724    1.292   .     A
C695   O725    1.290   .     A
C695   C697    1.450   .     S
C698   H712    1.083   .     S
C698   C699    1.387   .     A
C699   C196    1.391   1_556 S
C699   H210    1.083   1_556 S
C700   H713    1.078   .     S
H710   C192    1.084   1_556 S
N716   Zn726   2.009   .     S
N717   Zn727   2.009   .     S
O718   Zn726   2.000   .     S
O719   Zn727   2.000   .     S
O720   Zn726   1.963   .     S
O721   Zn727   1.909   .     S
O722   Zn726   2.000   .     S
O723   Zn727   2.000   .     S
O724   Zn726   1.909   .     S
O725   Zn727   1.963   .     S
C729   O775    1.284   .     A
C729   O774    1.282   .     A
C729   C745    1.419   .     S
C730   C731    1.412   .     A
C730   C228    1.416   1_556 S
C730   C252    1.420   1_556 S
C731   C735    1.420   .     A
C731   C738    1.413   .     A
C732   C736    1.393   .     A
C733   C734    1.390   .     A
C733   C228    1.420   1_556 S
C733   C248    1.405   1_556 S
C734   C735    1.389   .     A
C734   H765    1.084   .     S
C735   Cl784   1.759   .     S
C736   H767    1.078   .     S
C736   C753    1.389   .     A
C737   C752    1.393   .     A
C737   H757    1.083   .     S
C737   C753    1.398   .     A
C738   C740    1.460   .     S
C738   C754    1.402   .     A
C739   H771    1.084   .     S
C739   C745    1.397   .     A
C739   C909    1.370   .     S
C740   O776    1.290   .     A
C740   O777    1.294   .     A
C741   H758    1.084   .     S
C741   C742    1.397   .     A
C742   C750    1.420   .     S
C742   C743    1.397   .     A
C743   H759    1.084   .     S
C744   H760    1.084   .     S
C744   C745    1.397   .     A
C744   C911    1.370   .     S
C746   H761    1.082   .     S
C746   N773    1.367   .     A
C746   C803    1.416   .     S
C747   N772    1.366   .     A
C747   H762    1.082   .     S
C748   N772    1.367   .     A
C748   H763    1.082   .     S
C749   N773    1.366   .     A
C749   H764    1.082   .     S
C749   C804    1.416   .     S
C750   O778    1.283   .     A
C750   O779    1.283   .     A
C751   O780    1.292   .     A
C751   O781    1.290   .     A
C751   C753    1.450   .     S
C754   H768    1.083   .     S
C754   C755    1.387   .     A
C755   C252    1.391   1_556 S
C755   H266    1.083   1_556 S
C756   H769    1.078   .     S
H766   C248    1.084   1_556 S
N772   Zn782   2.009   .     S
N773   Zn783   2.009   .     S
O774   Zn782   2.000   .     S
O775   Zn783   2.000   .     S
O776   Zn782   1.963   .     S
O777   Zn783   1.909   .     S
O778   Zn782   2.000   .     S
O779   Zn783   2.000   .     S
O780   Zn782   1.909   .     S
O781   Zn783   1.963   .     S
C785   O831    1.284   .     A
C785   O830    1.282   .     A
C785   C801    1.419   .     S
C786   C787    1.412   .     A
C786   C284    1.416   1_556 S
C786   C308    1.420   1_556 S
C787   C791    1.420   .     A
C787   C794    1.413   .     A
C788   C792    1.393   .     A
C789   C790    1.390   .     A
C789   C284    1.420   1_556 S
C789   C304    1.405   1_556 S
C790   C791    1.389   .     A
C790   H821    1.084   .     S
C791   Cl840   1.759   .     S
C792   H823    1.078   .     S
C792   C809    1.389   .     A
C793   C808    1.393   .     A
C793   H813    1.083   .     S
C793   C809    1.398   .     A
C794   C796    1.460   .     S
C794   C810    1.402   .     A
C795   H827    1.084   .     S
C795   C801    1.397   .     A
C795   C965    1.370   .     S
C796   O832    1.290   .     A
C796   O833    1.294   .     A
C797   H814    1.084   .     S
C797   C798    1.397   .     A
C798   C806    1.420   .     S
C798   C799    1.397   .     A
C799   H815    1.084   .     S
C800   H816    1.084   .     S
C800   C801    1.397   .     A
C800   C967    1.370   .     S
C802   H817    1.082   .     S
C802   N829    1.367   .     A
C802   C691    1.416   1_655 S
C803   N828    1.366   .     A
C803   H818    1.082   .     S
C804   N828    1.367   .     A
C804   H819    1.082   .     S
C805   N829    1.366   .     A
C805   H820    1.082   .     S
C805   C692    1.416   1_655 S
C806   O834    1.283   .     A
C806   O835    1.283   .     A
C807   O836    1.292   .     A
C807   O837    1.290   .     A
C807   C809    1.450   .     S
C810   H824    1.083   .     S
C810   C811    1.387   .     A
C811   C308    1.391   1_556 S
C811   H322    1.083   1_556 S
C812   H825    1.078   .     S
H822   C304    1.084   1_556 S
N828   Zn838   2.009   .     S
N829   Zn839   2.009   .     S
O830   Zn838   2.000   .     S
O831   Zn839   2.000   .     S
O832   Zn838   1.963   .     S
O833   Zn839   1.909   .     S
O834   Zn838   2.000   .     S
O835   Zn839   2.000   .     S
O836   Zn838   1.909   .     S
O837   Zn839   1.963   .     S
C841   O887    1.284   .     A
C841   O886    1.282   .     A
C841   C857    1.419   .     S
C842   C843    1.412   .     A
C842   C340    1.416   1_556 S
C842   C364    1.420   1_556 S
C843   C847    1.420   .     A
C843   C850    1.413   .     A
C844   C848    1.393   .     A
C845   C846    1.390   .     A
C845   C340    1.420   1_556 S
C845   C360    1.405   1_556 S
C846   C847    1.389   .     A
C846   H877    1.084   .     S
C847   Cl896   1.759   .     S
C848   H879    1.078   .     S
C848   C865    1.389   .     A
C849   C864    1.393   .     A
C849   H869    1.083   .     S
C849   C865    1.398   .     A
C850   C852    1.460   .     S
C850   C866    1.402   .     A
C851   H883    1.084   .     S
C851   C857    1.397   .     A
C851   C517    1.370   1_565 S
C852   O888    1.290   .     A
C852   O889    1.294   .     A
C853   H870    1.084   .     S
C853   C854    1.397   .     A
C854   C862    1.420   .     S
C854   C855    1.397   .     A
C855   H871    1.084   .     S
C856   H872    1.084   .     S
C856   C857    1.397   .     A
C856   C519    1.370   1_565 S
C858   H873    1.082   .     S
C858   N885    1.367   .     A
C858   C915    1.416   .     S
C859   N884    1.366   .     A
C859   H874    1.082   .     S
C859   C970    1.416   1_455 S
C860   N884    1.367   .     A
C860   H875    1.082   .     S
C860   C973    1.416   1_455 S
C861   N885    1.366   .     A
C861   H876    1.082   .     S
C861   C916    1.416   .     S
C862   O890    1.283   .     A
C862   O891    1.283   .     A
C863   O892    1.292   .     A
C863   O893    1.290   .     A
C863   C865    1.450   .     S
C866   H880    1.083   .     S
C866   C867    1.387   .     A
C867   C364    1.391   1_556 S
C867   H378    1.083   1_556 S
C868   H881    1.078   .     S
H878   C360    1.084   1_556 S
N884   Zn894   2.009   .     S
N885   Zn895   2.009   .     S
O886   Zn894   2.000   .     S
O887   Zn895   2.000   .     S
O888   Zn894   1.963   .     S
O889   Zn895   1.909   .     S
O890   Zn894   2.000   .     S
O891   Zn895   2.000   .     S
O892   Zn894   1.909   .     S
O893   Zn895   1.963   .     S
C897   O943    1.284   .     A
C897   O942    1.282   .     A
C897   C913    1.419   .     S
C898   C899    1.412   .     A
C898   C396    1.416   1_556 S
C898   C420    1.420   1_556 S
C899   C903    1.420   .     A
C899   C906    1.413   .     A
C900   C904    1.393   .     A
C901   C902    1.390   .     A
C901   C396    1.420   1_556 S
C901   C416    1.405   1_556 S
C902   C903    1.389   .     A
C902   H933    1.084   .     S
C903   Cl952   1.759   .     S
C904   H935    1.078   .     S
C904   C921    1.389   .     A
C905   C920    1.393   .     A
C905   H925    1.083   .     S
C905   C921    1.398   .     A
C906   C908    1.460   .     S
C906   C922    1.402   .     A
C907   H939    1.084   .     S
C907   C913    1.397   .     A
C907   C573    1.370   1_565 S
C908   O944    1.290   .     A
C908   O945    1.294   .     A
C909   H926    1.084   .     S
C909   C910    1.397   .     A
C910   C918    1.420   .     S
C910   C911    1.397   .     A
C911   H927    1.084   .     S
C912   H928    1.084   .     S
C912   C913    1.397   .     A
C912   C575    1.370   1_565 S
C914   H929    1.082   .     S
C914   N941    1.367   .     A
C914   C971    1.416   .     S
C915   N940    1.366   .     A
C915   H930    1.082   .     S
C916   N940    1.367   .     A
C916   H931    1.082   .     S
C917   N941    1.366   .     A
C917   H932    1.082   .     S
C917   C972    1.416   .     S
C918   O946    1.283   .     A
C918   O947    1.283   .     A
C919   O948    1.292   .     A
C919   O949    1.290   .     A
C919   C921    1.450   .     S
C922   H936    1.083   .     S
C922   C923    1.387   .     A
C923   C420    1.391   1_556 S
C923   H434    1.083   1_556 S
C924   H937    1.078   .     S
H934   C416    1.084   1_556 S
N940   Zn950   2.009   .     S
N941   Zn951   2.009   .     S
O942   Zn950   2.000   .     S
O943   Zn951   2.000   .     S
O944   Zn950   1.963   .     S
O945   Zn951   1.909   .     S
O946   Zn950   2.000   .     S
O947   Zn951   2.000   .     S
O948   Zn950   1.909   .     S
O949   Zn951   1.963   .     S
C953   O999    1.284   .     A
C953   O998    1.282   .     A
C953   C969    1.419   .     S
C954   C955    1.412   .     A
C954   C452    1.416   1_556 S
C954   C476    1.420   1_556 S
C955   C959    1.420   .     A
C955   C962    1.413   .     A
C956   C960    1.393   .     A
C957   C958    1.390   .     A
C957   C452    1.420   1_556 S
C957   C472    1.405   1_556 S
C958   C959    1.389   .     A
C958   H989    1.084   .     S
C959   Cl1008  1.759   .     S
C960   H991    1.078   .     S
C960   C977    1.389   .     A
C961   C976    1.393   .     A
C961   H981    1.083   .     S
C961   C977    1.398   .     A
C962   C964    1.460   .     S
C962   C978    1.402   .     A
C963   H995    1.084   .     S
C963   C969    1.397   .     A
C963   C629    1.370   1_565 S
C964   O1000   1.290   .     A
C964   O1001   1.294   .     A
C965   H982    1.084   .     S
C965   C966    1.397   .     A
C966   C974    1.420   .     S
C966   C967    1.397   .     A
C967   H983    1.084   .     S
C968   H984    1.084   .     S
C968   C969    1.397   .     A
C968   C631    1.370   1_565 S
C970   H985    1.082   .     S
C970   N997    1.367   .     A
C970   C859    1.416   1_655 S
C971   N996    1.366   .     A
C971   H986    1.082   .     S
C972   N996    1.367   .     A
C972   H987    1.082   .     S
C973   N997    1.366   .     A
C973   H988    1.082   .     S
C973   C860    1.416   1_655 S
C974   O1002   1.283   .     A
C974   O1003   1.283   .     A
C975   O1004   1.292   .     A
C975   O1005   1.290   .     A
C975   C977    1.450   .     S
C978   H992    1.083   .     S
C978   C979    1.387   .     A
C979   C476    1.391   1_556 S
C979   H490    1.083   1_556 S
C980   H993    1.078   .     S
H990   C472    1.084   1_556 S
N996   Zn1006  2.009   .     S
N997   Zn1007  2.009   .     S
O998   Zn1006  2.000   .     S
O999   Zn1007  2.000   .     S
O1000  Zn1006  1.963   .     S
O1001  Zn1007  1.909   .     S
O1002  Zn1006  2.000   .     S
O1003  Zn1007  2.000   .     S
O1004  Zn1006  1.909   .     S
O1005  Zn1007  1.963   .     S
