data_str_m3_o1_o16_pcu_sym.117
_audit_creation_date              2020-01-03
_audit_creation_method            'Materials Studio'
_symmetry_space_group_name_H-M    'P1'
_symmetry_Int_Tables_number       1
_symmetry_cell_setting            triclinic
loop_
_symmetry_equiv_pos_as_xyz
  x,y,z
_cell_length_a                    29.6165
_cell_length_b                    32.1125
_cell_length_c                    26.3983
_cell_angle_alpha                 90.5428
_cell_angle_beta                  71.5241
_cell_angle_gamma                 89.8323
loop_
_atom_site_label
_atom_site_type_symbol
_atom_site_fract_x
_atom_site_fract_y
_atom_site_fract_z
_atom_site_U_iso_or_equiv
_atom_site_adp_type
_atom_site_occupancy
C1     C     0.16661   0.24661   0.24991   0.00000  Uiso   1.00
C2     C     0.15054   0.13893   0.48829   0.00000  Uiso   1.00
C3     C     0.16346   0.13922   0.43201   0.00000  Uiso   1.00
C4     C     0.18709   0.14310   0.01214   0.00000  Uiso   1.00
C5     C     0.23370   0.15311   0.47998   0.00000  Uiso   1.00
C6     C     0.24703   0.14511   0.42556   0.00000  Uiso   1.00
C7     C     0.21249   0.13419   0.40286   0.00000  Uiso   1.00
C8     C     0.17886   0.13916   0.06680   0.00000  Uiso   1.00
C9     C     0.25261   0.17650   0.05795   0.00000  Uiso   1.00
C10    C     0.12755   0.14628   0.40728   0.00000  Uiso   1.00
C11    C     0.19473   0.31139   0.27570   0.00000  Uiso   1.00
C12    C     0.14120   0.16049   0.35099   0.00000  Uiso   1.00
C13    C     0.19485   0.02073   0.27718   0.00000  Uiso   1.00
C14    C     0.16631   0.04246   0.25247   0.00000  Uiso   1.00
C15    C     0.13725   0.02147   0.22803   0.00000  Uiso   1.00
C16    C     0.13702   0.31207   0.22740   0.00000  Uiso   1.00
C17    C     0.16617   0.29068   0.25080   0.00000  Uiso   1.00
C18    C     0.31811   0.13887   0.21924   0.00000  Uiso   1.00
C19    C     0.03240   0.13847   0.21992   0.00000  Uiso   1.00
C20    C     0.01500   0.19403   0.28171   0.00000  Uiso   1.00
C21    C     0.30029   0.19367   0.28221   0.00000  Uiso   1.00
C22    C     0.16646   0.08667   0.25116   0.00000  Uiso   1.00
C23    C     0.19277   0.16555   0.14827   0.00000  Uiso   1.00
C24    C     0.26610   0.17000   0.00300   0.00000  Uiso   1.00
C25    C     0.20871   0.16051   0.09046   0.00000  Uiso   1.00
C26    C     0.07907   0.14153   0.43844   0.00000  Uiso   1.00
C27    C     0.06699   0.13762   0.49351   0.00000  Uiso   1.00
C28    C     0.10176   0.13897   0.01842   0.00000  Uiso   1.00
H29    H     0.11535   0.03808   0.20876   0.00000  Uiso   1.00
H30    H     0.11489   0.29581   0.20797   0.00000  Uiso   1.00
H31    H     0.30704   0.11653   0.19465   0.00000  Uiso   1.00
H32    H     0.05672   0.11508   0.19702   0.00000  Uiso   1.00
H33    H     0.28389   0.14704   0.40067   0.00000  Uiso   1.00
H34    H     0.30060   0.18048   0.47821   0.00000  Uiso   1.00
H35    H     0.08933   0.14147   0.06129   0.00000  Uiso   1.00
H36    H     0.02990   0.13574   0.01763   0.00000  Uiso   1.00
H37    H     0.22523   0.12343   0.36202   0.00000  Uiso   1.00
H38    H     0.21631   0.29448   0.29486   0.00000  Uiso   1.00
N39    N     0.04760   0.16668   0.25001   0.00000  Uiso   1.00
N40    N     0.28573   0.16665   0.25000   0.00000  Uiso   1.00
O41    O     0.12846   0.22775   0.25000   0.00000  Uiso   1.00
O42    O     0.20490   0.22774   0.25000   0.00000  Uiso   1.00
O43    O     0.10947   0.16666   0.32681   0.00000  Uiso   1.00
O44    O     0.18591   0.16665   0.32681   0.00000  Uiso   1.00
O45    O     0.12843   0.10559   0.24999   0.00000  Uiso   1.00
O46    O     0.20488   0.10558   0.24999   0.00000  Uiso   1.00
O47    O     0.14742   0.16668   0.17319   0.00000  Uiso   1.00
O48    O     0.22387   0.16667   0.17319   0.00000  Uiso   1.00
Zn49   Zn    0.11562   0.16667   0.25000   0.00000  Uiso   1.00
Zn50   Zn    0.21771   0.16666   0.25000   0.00000  Uiso   1.00
Cl51   Cl    0.29205   0.20422   0.08358   0.00000  Uiso   1.00
Cl52   Cl    0.22971   0.04460   0.31233   0.00000  Uiso   1.00
Cl53   Cl    0.03235   0.22939   0.32328   0.00000  Uiso   1.00
Cl54   Cl    0.25908   0.22738   0.32636   0.00000  Uiso   1.00
N55    N     0.14739   0.10695   0.09483   0.00000  Uiso   1.00
H56    H     0.16568   0.08770   0.11356   0.00000  Uiso   1.00
H57    H     0.11824   0.12002   0.12375   0.00000  Uiso   1.00
N58    N     0.04116   0.14039   0.41574   0.00000  Uiso   1.00
H59    H     0.03741   0.16974   0.40090   0.00000  Uiso   1.00
H60    H     0.04896   0.11802   0.38510   0.00000  Uiso   1.00
C61    C     0.49994   0.24661   0.24991   0.00000  Uiso   1.00
C62    C     0.48387   0.13893   0.48829   0.00000  Uiso   1.00
C63    C     0.49679   0.13922   0.43201   0.00000  Uiso   1.00
C64    C     0.52042   0.14310   0.01214   0.00000  Uiso   1.00
C65    C     0.56703   0.15311   0.47998   0.00000  Uiso   1.00
C66    C     0.58036   0.14511   0.42556   0.00000  Uiso   1.00
C67    C     0.54582   0.13419   0.40286   0.00000  Uiso   1.00
C68    C     0.51219   0.13916   0.06680   0.00000  Uiso   1.00
C69    C     0.58594   0.17650   0.05795   0.00000  Uiso   1.00
C70    C     0.46088   0.14628   0.40728   0.00000  Uiso   1.00
C71    C     0.52806   0.31139   0.27570   0.00000  Uiso   1.00
C72    C     0.47453   0.16049   0.35099   0.00000  Uiso   1.00
C73    C     0.52818   0.02073   0.27718   0.00000  Uiso   1.00
C74    C     0.49964   0.04246   0.25247   0.00000  Uiso   1.00
C75    C     0.47058   0.02147   0.22803   0.00000  Uiso   1.00
C76    C     0.47035   0.31207   0.22740   0.00000  Uiso   1.00
C77    C     0.49950   0.29068   0.25080   0.00000  Uiso   1.00
C78    C     0.65144   0.13887   0.21924   0.00000  Uiso   1.00
C79    C     0.36573   0.13847   0.21992   0.00000  Uiso   1.00
C80    C     0.34833   0.19403   0.28171   0.00000  Uiso   1.00
C81    C     0.63362   0.19367   0.28221   0.00000  Uiso   1.00
C82    C     0.49979   0.08667   0.25116   0.00000  Uiso   1.00
C83    C     0.52611   0.16555   0.14827   0.00000  Uiso   1.00
C84    C     0.59943   0.17000   0.00300   0.00000  Uiso   1.00
C85    C     0.54204   0.16051   0.09046   0.00000  Uiso   1.00
C86    C     0.41241   0.14153   0.43844   0.00000  Uiso   1.00
C87    C     0.40032   0.13762   0.49351   0.00000  Uiso   1.00
C88    C     0.43509   0.13897   0.01842   0.00000  Uiso   1.00
H89    H     0.44869   0.03808   0.20876   0.00000  Uiso   1.00
H90    H     0.44822   0.29581   0.20797   0.00000  Uiso   1.00
H91    H     0.64038   0.11653   0.19465   0.00000  Uiso   1.00
H92    H     0.39006   0.11508   0.19702   0.00000  Uiso   1.00
H93    H     0.61723   0.14704   0.40067   0.00000  Uiso   1.00
H94    H     0.63393   0.18048   0.47821   0.00000  Uiso   1.00
H95    H     0.42266   0.14147   0.06129   0.00000  Uiso   1.00
H96    H     0.36323   0.13574   0.01763   0.00000  Uiso   1.00
H97    H     0.55856   0.12343   0.36202   0.00000  Uiso   1.00
H98    H     0.54964   0.29448   0.29486   0.00000  Uiso   1.00
N99    N     0.38093   0.16668   0.25001   0.00000  Uiso   1.00
N100   N     0.61906   0.16665   0.25000   0.00000  Uiso   1.00
O101   O     0.46179   0.22775   0.25000   0.00000  Uiso   1.00
O102   O     0.53823   0.22774   0.25000   0.00000  Uiso   1.00
O103   O     0.44280   0.16666   0.32681   0.00000  Uiso   1.00
O104   O     0.51924   0.16665   0.32681   0.00000  Uiso   1.00
O105   O     0.46177   0.10559   0.24999   0.00000  Uiso   1.00
O106   O     0.53821   0.10558   0.24999   0.00000  Uiso   1.00
O107   O     0.48076   0.16668   0.17319   0.00000  Uiso   1.00
O108   O     0.55720   0.16667   0.17319   0.00000  Uiso   1.00
Zn109  Zn    0.44896   0.16667   0.25000   0.00000  Uiso   1.00
Zn110  Zn    0.55104   0.16666   0.25000   0.00000  Uiso   1.00
Cl111  Cl    0.62539   0.20422   0.08358   0.00000  Uiso   1.00
Cl112  Cl    0.56304   0.04460   0.31233   0.00000  Uiso   1.00
Cl113  Cl    0.36569   0.22939   0.32328   0.00000  Uiso   1.00
Cl114  Cl    0.59241   0.22738   0.32636   0.00000  Uiso   1.00
N115   N     0.48072   0.10695   0.09483   0.00000  Uiso   1.00
H116   H     0.49902   0.08770   0.11356   0.00000  Uiso   1.00
H117   H     0.45158   0.12002   0.12375   0.00000  Uiso   1.00
N118   N     0.37449   0.14039   0.41574   0.00000  Uiso   1.00
H119   H     0.37075   0.16974   0.40090   0.00000  Uiso   1.00
H120   H     0.38230   0.11802   0.38510   0.00000  Uiso   1.00
C121   C     0.83328   0.24661   0.24991   0.00000  Uiso   1.00
C122   C     0.81721   0.13893   0.48829   0.00000  Uiso   1.00
C123   C     0.83012   0.13922   0.43201   0.00000  Uiso   1.00
C124   C     0.85375   0.14310   0.01214   0.00000  Uiso   1.00
C125   C     0.90037   0.15311   0.47998   0.00000  Uiso   1.00
C126   C     0.91370   0.14511   0.42556   0.00000  Uiso   1.00
C127   C     0.87915   0.13419   0.40286   0.00000  Uiso   1.00
C128   C     0.84553   0.13916   0.06680   0.00000  Uiso   1.00
C129   C     0.91927   0.17650   0.05795   0.00000  Uiso   1.00
C130   C     0.79421   0.14628   0.40728   0.00000  Uiso   1.00
C131   C     0.86139   0.31139   0.27570   0.00000  Uiso   1.00
C132   C     0.80786   0.16049   0.35099   0.00000  Uiso   1.00
C133   C     0.86152   0.02073   0.27718   0.00000  Uiso   1.00
C134   C     0.83297   0.04246   0.25247   0.00000  Uiso   1.00
C135   C     0.80392   0.02147   0.22803   0.00000  Uiso   1.00
C136   C     0.80368   0.31207   0.22740   0.00000  Uiso   1.00
C137   C     0.83284   0.29068   0.25080   0.00000  Uiso   1.00
C138   C     0.98478   0.13887   0.21924   0.00000  Uiso   1.00
C139   C     0.69907   0.13847   0.21992   0.00000  Uiso   1.00
C140   C     0.68167   0.19403   0.28171   0.00000  Uiso   1.00
C141   C     0.96695   0.19367   0.28221   0.00000  Uiso   1.00
C142   C     0.83312   0.08667   0.25116   0.00000  Uiso   1.00
C143   C     0.85944   0.16555   0.14827   0.00000  Uiso   1.00
C144   C     0.93277   0.17000   0.00300   0.00000  Uiso   1.00
C145   C     0.87538   0.16051   0.09046   0.00000  Uiso   1.00
C146   C     0.74574   0.14153   0.43844   0.00000  Uiso   1.00
C147   C     0.73365   0.13762   0.49351   0.00000  Uiso   1.00
C148   C     0.76842   0.13897   0.01842   0.00000  Uiso   1.00
H149   H     0.78202   0.03808   0.20876   0.00000  Uiso   1.00
H150   H     0.78155   0.29581   0.20797   0.00000  Uiso   1.00
H151   H     0.97371   0.11653   0.19465   0.00000  Uiso   1.00
H152   H     0.72339   0.11508   0.19702   0.00000  Uiso   1.00
H153   H     0.95056   0.14704   0.40067   0.00000  Uiso   1.00
H154   H     0.96727   0.18048   0.47821   0.00000  Uiso   1.00
H155   H     0.75600   0.14147   0.06129   0.00000  Uiso   1.00
H156   H     0.69657   0.13574   0.01763   0.00000  Uiso   1.00
H157   H     0.89189   0.12343   0.36202   0.00000  Uiso   1.00
H158   H     0.88298   0.29448   0.29486   0.00000  Uiso   1.00
N159   N     0.71426   0.16668   0.25001   0.00000  Uiso   1.00
N160   N     0.95239   0.16665   0.25000   0.00000  Uiso   1.00
O161   O     0.79512   0.22775   0.25000   0.00000  Uiso   1.00
O162   O     0.87157   0.22774   0.25000   0.00000  Uiso   1.00
O163   O     0.77613   0.16666   0.32681   0.00000  Uiso   1.00
O164   O     0.85258   0.16665   0.32681   0.00000  Uiso   1.00
O165   O     0.79510   0.10559   0.24999   0.00000  Uiso   1.00
O166   O     0.87154   0.10558   0.24999   0.00000  Uiso   1.00
O167   O     0.81409   0.16668   0.17319   0.00000  Uiso   1.00
O168   O     0.89053   0.16667   0.17319   0.00000  Uiso   1.00
Zn169  Zn    0.78229   0.16667   0.25000   0.00000  Uiso   1.00
Zn170  Zn    0.88438   0.16666   0.25000   0.00000  Uiso   1.00
Cl171  Cl    0.95872   0.20422   0.08358   0.00000  Uiso   1.00
Cl172  Cl    0.89638   0.04460   0.31233   0.00000  Uiso   1.00
Cl173  Cl    0.69902   0.22939   0.32328   0.00000  Uiso   1.00
Cl174  Cl    0.92575   0.22738   0.32636   0.00000  Uiso   1.00
N175   N     0.81405   0.10695   0.09483   0.00000  Uiso   1.00
H176   H     0.83235   0.08770   0.11356   0.00000  Uiso   1.00
H177   H     0.78491   0.12002   0.12375   0.00000  Uiso   1.00
N178   N     0.70783   0.14039   0.41574   0.00000  Uiso   1.00
H179   H     0.70408   0.16974   0.40090   0.00000  Uiso   1.00
H180   H     0.71563   0.11802   0.38510   0.00000  Uiso   1.00
C181   C     0.16661   0.57994   0.24991   0.00000  Uiso   1.00
C182   C     0.15054   0.47226   0.48829   0.00000  Uiso   1.00
C183   C     0.16346   0.47255   0.43201   0.00000  Uiso   1.00
C184   C     0.18709   0.47643   0.01214   0.00000  Uiso   1.00
C185   C     0.23370   0.48645   0.47998   0.00000  Uiso   1.00
C186   C     0.24703   0.47844   0.42556   0.00000  Uiso   1.00
C187   C     0.21249   0.46752   0.40286   0.00000  Uiso   1.00
C188   C     0.17886   0.47249   0.06680   0.00000  Uiso   1.00
C189   C     0.25261   0.50983   0.05795   0.00000  Uiso   1.00
C190   C     0.12755   0.47961   0.40728   0.00000  Uiso   1.00
C191   C     0.19473   0.64473   0.27570   0.00000  Uiso   1.00
C192   C     0.14120   0.49382   0.35099   0.00000  Uiso   1.00
C193   C     0.19485   0.35406   0.27718   0.00000  Uiso   1.00
C194   C     0.16631   0.37579   0.25247   0.00000  Uiso   1.00
C195   C     0.13725   0.35481   0.22803   0.00000  Uiso   1.00
C196   C     0.13702   0.64541   0.22740   0.00000  Uiso   1.00
C197   C     0.16617   0.62401   0.25080   0.00000  Uiso   1.00
C198   C     0.31811   0.47220   0.21924   0.00000  Uiso   1.00
C199   C     0.03240   0.47180   0.21992   0.00000  Uiso   1.00
C200   C     0.01500   0.52736   0.28171   0.00000  Uiso   1.00
C201   C     0.30029   0.52700   0.28221   0.00000  Uiso   1.00
C202   C     0.16646   0.42001   0.25116   0.00000  Uiso   1.00
C203   C     0.19277   0.49889   0.14827   0.00000  Uiso   1.00
C204   C     0.26610   0.50334   0.00300   0.00000  Uiso   1.00
C205   C     0.20871   0.49384   0.09046   0.00000  Uiso   1.00
C206   C     0.07907   0.47487   0.43844   0.00000  Uiso   1.00
C207   C     0.06699   0.47095   0.49351   0.00000  Uiso   1.00
C208   C     0.10176   0.47230   0.01842   0.00000  Uiso   1.00
H209   H     0.11535   0.37141   0.20876   0.00000  Uiso   1.00
H210   H     0.11489   0.62915   0.20797   0.00000  Uiso   1.00
H211   H     0.30704   0.44987   0.19465   0.00000  Uiso   1.00
H212   H     0.05672   0.44841   0.19702   0.00000  Uiso   1.00
H213   H     0.28389   0.48037   0.40067   0.00000  Uiso   1.00
H214   H     0.30060   0.51381   0.47821   0.00000  Uiso   1.00
H215   H     0.08933   0.47480   0.06129   0.00000  Uiso   1.00
H216   H     0.02990   0.46907   0.01763   0.00000  Uiso   1.00
H217   H     0.22523   0.45676   0.36202   0.00000  Uiso   1.00
H218   H     0.21631   0.62782   0.29486   0.00000  Uiso   1.00
N219   N     0.04760   0.50001   0.25001   0.00000  Uiso   1.00
N220   N     0.28573   0.49998   0.25000   0.00000  Uiso   1.00
O221   O     0.12846   0.56108   0.25000   0.00000  Uiso   1.00
O222   O     0.20490   0.56107   0.25000   0.00000  Uiso   1.00
O223   O     0.10947   0.50000   0.32681   0.00000  Uiso   1.00
O224   O     0.18591   0.49999   0.32681   0.00000  Uiso   1.00
O225   O     0.12843   0.43893   0.24999   0.00000  Uiso   1.00
O226   O     0.20488   0.43892   0.24999   0.00000  Uiso   1.00
O227   O     0.14742   0.50001   0.17319   0.00000  Uiso   1.00
O228   O     0.22387   0.50000   0.17319   0.00000  Uiso   1.00
Zn229  Zn    0.11562   0.50001   0.25000   0.00000  Uiso   1.00
Zn230  Zn    0.21771   0.49999   0.25000   0.00000  Uiso   1.00
Cl231  Cl    0.29205   0.53755   0.08358   0.00000  Uiso   1.00
Cl232  Cl    0.22971   0.37793   0.31233   0.00000  Uiso   1.00
Cl233  Cl    0.03235   0.56272   0.32328   0.00000  Uiso   1.00
Cl234  Cl    0.25908   0.56072   0.32636   0.00000  Uiso   1.00
N235   N     0.14739   0.44029   0.09483   0.00000  Uiso   1.00
H236   H     0.16568   0.42103   0.11356   0.00000  Uiso   1.00
H237   H     0.11824   0.45335   0.12375   0.00000  Uiso   1.00
N238   N     0.04116   0.47372   0.41574   0.00000  Uiso   1.00
H239   H     0.03741   0.50307   0.40090   0.00000  Uiso   1.00
H240   H     0.04896   0.45136   0.38510   0.00000  Uiso   1.00
C241   C     0.49994   0.57994   0.24991   0.00000  Uiso   1.00
C242   C     0.48387   0.47226   0.48829   0.00000  Uiso   1.00
C243   C     0.49679   0.47255   0.43201   0.00000  Uiso   1.00
C244   C     0.52042   0.47643   0.01214   0.00000  Uiso   1.00
C245   C     0.56703   0.48645   0.47998   0.00000  Uiso   1.00
C246   C     0.58036   0.47844   0.42556   0.00000  Uiso   1.00
C247   C     0.54582   0.46752   0.40286   0.00000  Uiso   1.00
C248   C     0.51219   0.47249   0.06680   0.00000  Uiso   1.00
C249   C     0.58594   0.50983   0.05795   0.00000  Uiso   1.00
C250   C     0.46088   0.47961   0.40728   0.00000  Uiso   1.00
C251   C     0.52806   0.64473   0.27570   0.00000  Uiso   1.00
C252   C     0.47453   0.49382   0.35099   0.00000  Uiso   1.00
C253   C     0.52818   0.35406   0.27718   0.00000  Uiso   1.00
C254   C     0.49964   0.37579   0.25247   0.00000  Uiso   1.00
C255   C     0.47058   0.35481   0.22803   0.00000  Uiso   1.00
C256   C     0.47035   0.64541   0.22740   0.00000  Uiso   1.00
C257   C     0.49950   0.62401   0.25080   0.00000  Uiso   1.00
C258   C     0.65144   0.47220   0.21924   0.00000  Uiso   1.00
C259   C     0.36573   0.47180   0.21992   0.00000  Uiso   1.00
C260   C     0.34833   0.52736   0.28171   0.00000  Uiso   1.00
C261   C     0.63362   0.52700   0.28221   0.00000  Uiso   1.00
C262   C     0.49979   0.42001   0.25116   0.00000  Uiso   1.00
C263   C     0.52611   0.49889   0.14827   0.00000  Uiso   1.00
C264   C     0.59943   0.50334   0.00300   0.00000  Uiso   1.00
C265   C     0.54204   0.49384   0.09046   0.00000  Uiso   1.00
C266   C     0.41241   0.47487   0.43844   0.00000  Uiso   1.00
C267   C     0.40032   0.47095   0.49351   0.00000  Uiso   1.00
C268   C     0.43509   0.47230   0.01842   0.00000  Uiso   1.00
H269   H     0.44869   0.37141   0.20876   0.00000  Uiso   1.00
H270   H     0.44822   0.62915   0.20797   0.00000  Uiso   1.00
H271   H     0.64038   0.44987   0.19465   0.00000  Uiso   1.00
H272   H     0.39006   0.44841   0.19702   0.00000  Uiso   1.00
H273   H     0.61723   0.48037   0.40067   0.00000  Uiso   1.00
H274   H     0.63393   0.51381   0.47821   0.00000  Uiso   1.00
H275   H     0.42266   0.47480   0.06129   0.00000  Uiso   1.00
H276   H     0.36323   0.46907   0.01763   0.00000  Uiso   1.00
H277   H     0.55856   0.45676   0.36202   0.00000  Uiso   1.00
H278   H     0.54964   0.62782   0.29486   0.00000  Uiso   1.00
N279   N     0.38093   0.50001   0.25001   0.00000  Uiso   1.00
N280   N     0.61906   0.49998   0.25000   0.00000  Uiso   1.00
O281   O     0.46179   0.56108   0.25000   0.00000  Uiso   1.00
O282   O     0.53823   0.56107   0.25000   0.00000  Uiso   1.00
O283   O     0.44280   0.50000   0.32681   0.00000  Uiso   1.00
O284   O     0.51924   0.49999   0.32681   0.00000  Uiso   1.00
O285   O     0.46177   0.43893   0.24999   0.00000  Uiso   1.00
O286   O     0.53821   0.43892   0.24999   0.00000  Uiso   1.00
O287   O     0.48076   0.50001   0.17319   0.00000  Uiso   1.00
O288   O     0.55720   0.50000   0.17319   0.00000  Uiso   1.00
Zn289  Zn    0.44896   0.50001   0.25000   0.00000  Uiso   1.00
Zn290  Zn    0.55104   0.49999   0.25000   0.00000  Uiso   1.00
Cl291  Cl    0.62539   0.53755   0.08358   0.00000  Uiso   1.00
Cl292  Cl    0.56304   0.37793   0.31233   0.00000  Uiso   1.00
Cl293  Cl    0.36569   0.56272   0.32328   0.00000  Uiso   1.00
Cl294  Cl    0.59241   0.56072   0.32636   0.00000  Uiso   1.00
N295   N     0.48072   0.44029   0.09483   0.00000  Uiso   1.00
H296   H     0.49902   0.42103   0.11356   0.00000  Uiso   1.00
H297   H     0.45158   0.45335   0.12375   0.00000  Uiso   1.00
N298   N     0.37449   0.47372   0.41574   0.00000  Uiso   1.00
H299   H     0.37075   0.50307   0.40090   0.00000  Uiso   1.00
H300   H     0.38230   0.45136   0.38510   0.00000  Uiso   1.00
C301   C     0.83328   0.57994   0.24991   0.00000  Uiso   1.00
C302   C     0.81721   0.47226   0.48829   0.00000  Uiso   1.00
C303   C     0.83012   0.47255   0.43201   0.00000  Uiso   1.00
C304   C     0.85375   0.47643   0.01214   0.00000  Uiso   1.00
C305   C     0.90037   0.48645   0.47998   0.00000  Uiso   1.00
C306   C     0.91370   0.47844   0.42556   0.00000  Uiso   1.00
C307   C     0.87915   0.46752   0.40286   0.00000  Uiso   1.00
C308   C     0.84553   0.47249   0.06680   0.00000  Uiso   1.00
C309   C     0.91927   0.50983   0.05795   0.00000  Uiso   1.00
C310   C     0.79421   0.47961   0.40728   0.00000  Uiso   1.00
C311   C     0.86139   0.64473   0.27570   0.00000  Uiso   1.00
C312   C     0.80786   0.49382   0.35099   0.00000  Uiso   1.00
C313   C     0.86152   0.35406   0.27718   0.00000  Uiso   1.00
C314   C     0.83297   0.37579   0.25247   0.00000  Uiso   1.00
C315   C     0.80392   0.35481   0.22803   0.00000  Uiso   1.00
C316   C     0.80368   0.64541   0.22740   0.00000  Uiso   1.00
C317   C     0.83284   0.62401   0.25080   0.00000  Uiso   1.00
C318   C     0.98478   0.47220   0.21924   0.00000  Uiso   1.00
C319   C     0.69907   0.47180   0.21992   0.00000  Uiso   1.00
C320   C     0.68167   0.52736   0.28171   0.00000  Uiso   1.00
C321   C     0.96695   0.52700   0.28221   0.00000  Uiso   1.00
C322   C     0.83312   0.42001   0.25116   0.00000  Uiso   1.00
C323   C     0.85944   0.49889   0.14827   0.00000  Uiso   1.00
C324   C     0.93277   0.50334   0.00300   0.00000  Uiso   1.00
C325   C     0.87538   0.49384   0.09046   0.00000  Uiso   1.00
C326   C     0.74574   0.47487   0.43844   0.00000  Uiso   1.00
C327   C     0.73365   0.47095   0.49351   0.00000  Uiso   1.00
C328   C     0.76842   0.47230   0.01842   0.00000  Uiso   1.00
H329   H     0.78202   0.37141   0.20876   0.00000  Uiso   1.00
H330   H     0.78155   0.62915   0.20797   0.00000  Uiso   1.00
H331   H     0.97371   0.44987   0.19465   0.00000  Uiso   1.00
H332   H     0.72339   0.44841   0.19702   0.00000  Uiso   1.00
H333   H     0.95056   0.48037   0.40067   0.00000  Uiso   1.00
H334   H     0.96727   0.51381   0.47821   0.00000  Uiso   1.00
H335   H     0.75600   0.47480   0.06129   0.00000  Uiso   1.00
H336   H     0.69657   0.46907   0.01763   0.00000  Uiso   1.00
H337   H     0.89189   0.45676   0.36202   0.00000  Uiso   1.00
H338   H     0.88298   0.62782   0.29486   0.00000  Uiso   1.00
N339   N     0.71426   0.50001   0.25001   0.00000  Uiso   1.00
N340   N     0.95239   0.49998   0.25000   0.00000  Uiso   1.00
O341   O     0.79512   0.56108   0.25000   0.00000  Uiso   1.00
O342   O     0.87157   0.56107   0.25000   0.00000  Uiso   1.00
O343   O     0.77613   0.50000   0.32681   0.00000  Uiso   1.00
O344   O     0.85258   0.49999   0.32681   0.00000  Uiso   1.00
O345   O     0.79510   0.43893   0.24999   0.00000  Uiso   1.00
O346   O     0.87154   0.43892   0.24999   0.00000  Uiso   1.00
O347   O     0.81409   0.50001   0.17319   0.00000  Uiso   1.00
O348   O     0.89053   0.50000   0.17319   0.00000  Uiso   1.00
Zn349  Zn    0.78229   0.50001   0.25000   0.00000  Uiso   1.00
Zn350  Zn    0.88438   0.49999   0.25000   0.00000  Uiso   1.00
Cl351  Cl    0.95872   0.53755   0.08358   0.00000  Uiso   1.00
Cl352  Cl    0.89638   0.37793   0.31233   0.00000  Uiso   1.00
Cl353  Cl    0.69902   0.56272   0.32328   0.00000  Uiso   1.00
Cl354  Cl    0.92575   0.56072   0.32636   0.00000  Uiso   1.00
N355   N     0.81405   0.44029   0.09483   0.00000  Uiso   1.00
H356   H     0.83235   0.42103   0.11356   0.00000  Uiso   1.00
H357   H     0.78491   0.45335   0.12375   0.00000  Uiso   1.00
N358   N     0.70783   0.47372   0.41574   0.00000  Uiso   1.00
H359   H     0.70408   0.50307   0.40090   0.00000  Uiso   1.00
H360   H     0.71563   0.45136   0.38510   0.00000  Uiso   1.00
C361   C     0.16661   0.91328   0.24991   0.00000  Uiso   1.00
C362   C     0.15054   0.80560   0.48829   0.00000  Uiso   1.00
C363   C     0.16346   0.80589   0.43201   0.00000  Uiso   1.00
C364   C     0.18709   0.80977   0.01214   0.00000  Uiso   1.00
C365   C     0.23370   0.81978   0.47998   0.00000  Uiso   1.00
C366   C     0.24703   0.81178   0.42556   0.00000  Uiso   1.00
C367   C     0.21249   0.80085   0.40286   0.00000  Uiso   1.00
C368   C     0.17886   0.80582   0.06680   0.00000  Uiso   1.00
C369   C     0.25261   0.84317   0.05795   0.00000  Uiso   1.00
C370   C     0.12755   0.81295   0.40728   0.00000  Uiso   1.00
C371   C     0.19473   0.97806   0.27570   0.00000  Uiso   1.00
C372   C     0.14120   0.82716   0.35099   0.00000  Uiso   1.00
C373   C     0.19485   0.68739   0.27718   0.00000  Uiso   1.00
C374   C     0.16631   0.70913   0.25247   0.00000  Uiso   1.00
C375   C     0.13725   0.68814   0.22803   0.00000  Uiso   1.00
C376   C     0.13702   0.97874   0.22740   0.00000  Uiso   1.00
C377   C     0.16617   0.95735   0.25080   0.00000  Uiso   1.00
C378   C     0.31811   0.80553   0.21924   0.00000  Uiso   1.00
C379   C     0.03240   0.80514   0.21992   0.00000  Uiso   1.00
C380   C     0.01500   0.86070   0.28171   0.00000  Uiso   1.00
C381   C     0.30029   0.86034   0.28221   0.00000  Uiso   1.00
C382   C     0.16646   0.75334   0.25116   0.00000  Uiso   1.00
C383   C     0.19277   0.83222   0.14827   0.00000  Uiso   1.00
C384   C     0.26610   0.83667   0.00300   0.00000  Uiso   1.00
C385   C     0.20871   0.82717   0.09046   0.00000  Uiso   1.00
C386   C     0.07907   0.80820   0.43844   0.00000  Uiso   1.00
C387   C     0.06699   0.80429   0.49351   0.00000  Uiso   1.00
C388   C     0.10176   0.80563   0.01842   0.00000  Uiso   1.00
H389   H     0.11535   0.70474   0.20876   0.00000  Uiso   1.00
H390   H     0.11489   0.96248   0.20797   0.00000  Uiso   1.00
H391   H     0.30704   0.78320   0.19465   0.00000  Uiso   1.00
H392   H     0.05672   0.78175   0.19702   0.00000  Uiso   1.00
H393   H     0.28389   0.81370   0.40067   0.00000  Uiso   1.00
H394   H     0.30060   0.84714   0.47821   0.00000  Uiso   1.00
H395   H     0.08933   0.80814   0.06129   0.00000  Uiso   1.00
H396   H     0.02990   0.80241   0.01763   0.00000  Uiso   1.00
H397   H     0.22523   0.79009   0.36202   0.00000  Uiso   1.00
H398   H     0.21631   0.96115   0.29486   0.00000  Uiso   1.00
N399   N     0.04760   0.83334   0.25001   0.00000  Uiso   1.00
N400   N     0.28573   0.83331   0.25000   0.00000  Uiso   1.00
O401   O     0.12846   0.89442   0.25000   0.00000  Uiso   1.00
O402   O     0.20490   0.89441   0.25000   0.00000  Uiso   1.00
O403   O     0.10947   0.83333   0.32681   0.00000  Uiso   1.00
O404   O     0.18591   0.83332   0.32681   0.00000  Uiso   1.00
O405   O     0.12843   0.77226   0.24999   0.00000  Uiso   1.00
O406   O     0.20488   0.77225   0.24999   0.00000  Uiso   1.00
O407   O     0.14742   0.83335   0.17319   0.00000  Uiso   1.00
O408   O     0.22387   0.83334   0.17319   0.00000  Uiso   1.00
Zn409  Zn    0.11562   0.83334   0.25000   0.00000  Uiso   1.00
Zn410  Zn    0.21771   0.83333   0.25000   0.00000  Uiso   1.00
Cl411  Cl    0.29205   0.87088   0.08358   0.00000  Uiso   1.00
Cl412  Cl    0.22971   0.71127   0.31233   0.00000  Uiso   1.00
Cl413  Cl    0.03235   0.89605   0.32328   0.00000  Uiso   1.00
Cl414  Cl    0.25908   0.89405   0.32636   0.00000  Uiso   1.00
N415   N     0.14739   0.77362   0.09483   0.00000  Uiso   1.00
H416   H     0.16568   0.75437   0.11356   0.00000  Uiso   1.00
H417   H     0.11824   0.78668   0.12375   0.00000  Uiso   1.00
N418   N     0.04116   0.80705   0.41574   0.00000  Uiso   1.00
H419   H     0.03741   0.83640   0.40090   0.00000  Uiso   1.00
H420   H     0.04896   0.78469   0.38510   0.00000  Uiso   1.00
C421   C     0.49994   0.91328   0.24991   0.00000  Uiso   1.00
C422   C     0.48387   0.80560   0.48829   0.00000  Uiso   1.00
C423   C     0.49679   0.80589   0.43201   0.00000  Uiso   1.00
C424   C     0.52042   0.80977   0.01214   0.00000  Uiso   1.00
C425   C     0.56703   0.81978   0.47998   0.00000  Uiso   1.00
C426   C     0.58036   0.81178   0.42556   0.00000  Uiso   1.00
C427   C     0.54582   0.80085   0.40286   0.00000  Uiso   1.00
C428   C     0.51219   0.80582   0.06680   0.00000  Uiso   1.00
C429   C     0.58594   0.84317   0.05795   0.00000  Uiso   1.00
C430   C     0.46088   0.81295   0.40728   0.00000  Uiso   1.00
C431   C     0.52806   0.97806   0.27570   0.00000  Uiso   1.00
C432   C     0.47453   0.82716   0.35099   0.00000  Uiso   1.00
C433   C     0.52818   0.68739   0.27718   0.00000  Uiso   1.00
C434   C     0.49964   0.70913   0.25247   0.00000  Uiso   1.00
C435   C     0.47058   0.68814   0.22803   0.00000  Uiso   1.00
C436   C     0.47035   0.97874   0.22740   0.00000  Uiso   1.00
C437   C     0.49950   0.95735   0.25080   0.00000  Uiso   1.00
C438   C     0.65144   0.80553   0.21924   0.00000  Uiso   1.00
C439   C     0.36573   0.80514   0.21992   0.00000  Uiso   1.00
C440   C     0.34833   0.86070   0.28171   0.00000  Uiso   1.00
C441   C     0.63362   0.86034   0.28221   0.00000  Uiso   1.00
C442   C     0.49979   0.75334   0.25116   0.00000  Uiso   1.00
C443   C     0.52611   0.83222   0.14827   0.00000  Uiso   1.00
C444   C     0.59943   0.83667   0.00300   0.00000  Uiso   1.00
C445   C     0.54204   0.82717   0.09046   0.00000  Uiso   1.00
C446   C     0.41241   0.80820   0.43844   0.00000  Uiso   1.00
C447   C     0.40032   0.80429   0.49351   0.00000  Uiso   1.00
C448   C     0.43509   0.80563   0.01842   0.00000  Uiso   1.00
H449   H     0.44869   0.70474   0.20876   0.00000  Uiso   1.00
H450   H     0.44822   0.96248   0.20797   0.00000  Uiso   1.00
H451   H     0.64038   0.78320   0.19465   0.00000  Uiso   1.00
H452   H     0.39006   0.78175   0.19702   0.00000  Uiso   1.00
H453   H     0.61723   0.81370   0.40067   0.00000  Uiso   1.00
H454   H     0.63393   0.84714   0.47821   0.00000  Uiso   1.00
H455   H     0.42266   0.80814   0.06129   0.00000  Uiso   1.00
H456   H     0.36323   0.80241   0.01763   0.00000  Uiso   1.00
H457   H     0.55856   0.79009   0.36202   0.00000  Uiso   1.00
H458   H     0.54964   0.96115   0.29486   0.00000  Uiso   1.00
N459   N     0.38093   0.83334   0.25001   0.00000  Uiso   1.00
N460   N     0.61906   0.83331   0.25000   0.00000  Uiso   1.00
O461   O     0.46179   0.89442   0.25000   0.00000  Uiso   1.00
O462   O     0.53823   0.89441   0.25000   0.00000  Uiso   1.00
O463   O     0.44280   0.83333   0.32681   0.00000  Uiso   1.00
O464   O     0.51924   0.83332   0.32681   0.00000  Uiso   1.00
O465   O     0.46177   0.77226   0.24999   0.00000  Uiso   1.00
O466   O     0.53821   0.77225   0.24999   0.00000  Uiso   1.00
O467   O     0.48076   0.83335   0.17319   0.00000  Uiso   1.00
O468   O     0.55720   0.83334   0.17319   0.00000  Uiso   1.00
Zn469  Zn    0.44896   0.83334   0.25000   0.00000  Uiso   1.00
Zn470  Zn    0.55104   0.83333   0.25000   0.00000  Uiso   1.00
Cl471  Cl    0.62539   0.87088   0.08358   0.00000  Uiso   1.00
Cl472  Cl    0.56304   0.71127   0.31233   0.00000  Uiso   1.00
Cl473  Cl    0.36569   0.89605   0.32328   0.00000  Uiso   1.00
Cl474  Cl    0.59241   0.89405   0.32636   0.00000  Uiso   1.00
N475   N     0.48072   0.77362   0.09483   0.00000  Uiso   1.00
H476   H     0.49902   0.75437   0.11356   0.00000  Uiso   1.00
H477   H     0.45158   0.78668   0.12375   0.00000  Uiso   1.00
N478   N     0.37449   0.80705   0.41574   0.00000  Uiso   1.00
H479   H     0.37075   0.83640   0.40090   0.00000  Uiso   1.00
H480   H     0.38230   0.78469   0.38510   0.00000  Uiso   1.00
C481   C     0.83328   0.91328   0.24991   0.00000  Uiso   1.00
C482   C     0.81721   0.80560   0.48829   0.00000  Uiso   1.00
C483   C     0.83012   0.80589   0.43201   0.00000  Uiso   1.00
C484   C     0.85375   0.80977   0.01214   0.00000  Uiso   1.00
C485   C     0.90037   0.81978   0.47998   0.00000  Uiso   1.00
C486   C     0.91370   0.81178   0.42556   0.00000  Uiso   1.00
C487   C     0.87915   0.80085   0.40286   0.00000  Uiso   1.00
C488   C     0.84553   0.80582   0.06680   0.00000  Uiso   1.00
C489   C     0.91927   0.84317   0.05795   0.00000  Uiso   1.00
C490   C     0.79421   0.81295   0.40728   0.00000  Uiso   1.00
C491   C     0.86139   0.97806   0.27570   0.00000  Uiso   1.00
C492   C     0.80786   0.82716   0.35099   0.00000  Uiso   1.00
C493   C     0.86152   0.68739   0.27718   0.00000  Uiso   1.00
C494   C     0.83297   0.70913   0.25247   0.00000  Uiso   1.00
C495   C     0.80392   0.68814   0.22803   0.00000  Uiso   1.00
C496   C     0.80368   0.97874   0.22740   0.00000  Uiso   1.00
C497   C     0.83284   0.95735   0.25080   0.00000  Uiso   1.00
C498   C     0.98478   0.80553   0.21924   0.00000  Uiso   1.00
C499   C     0.69907   0.80514   0.21992   0.00000  Uiso   1.00
C500   C     0.68167   0.86070   0.28171   0.00000  Uiso   1.00
C501   C     0.96695   0.86034   0.28221   0.00000  Uiso   1.00
C502   C     0.83312   0.75334   0.25116   0.00000  Uiso   1.00
C503   C     0.85944   0.83222   0.14827   0.00000  Uiso   1.00
C504   C     0.93277   0.83667   0.00300   0.00000  Uiso   1.00
C505   C     0.87538   0.82717   0.09046   0.00000  Uiso   1.00
C506   C     0.74574   0.80820   0.43844   0.00000  Uiso   1.00
C507   C     0.73365   0.80429   0.49351   0.00000  Uiso   1.00
C508   C     0.76842   0.80563   0.01842   0.00000  Uiso   1.00
H509   H     0.78202   0.70474   0.20876   0.00000  Uiso   1.00
H510   H     0.78155   0.96248   0.20797   0.00000  Uiso   1.00
H511   H     0.97371   0.78320   0.19465   0.00000  Uiso   1.00
H512   H     0.72339   0.78175   0.19702   0.00000  Uiso   1.00
H513   H     0.95056   0.81370   0.40067   0.00000  Uiso   1.00
H514   H     0.96727   0.84714   0.47821   0.00000  Uiso   1.00
H515   H     0.75600   0.80814   0.06129   0.00000  Uiso   1.00
H516   H     0.69657   0.80241   0.01763   0.00000  Uiso   1.00
H517   H     0.89189   0.79009   0.36202   0.00000  Uiso   1.00
H518   H     0.88298   0.96115   0.29486   0.00000  Uiso   1.00
N519   N     0.71426   0.83334   0.25001   0.00000  Uiso   1.00
N520   N     0.95239   0.83331   0.25000   0.00000  Uiso   1.00
O521   O     0.79512   0.89442   0.25000   0.00000  Uiso   1.00
O522   O     0.87157   0.89441   0.25000   0.00000  Uiso   1.00
O523   O     0.77613   0.83333   0.32681   0.00000  Uiso   1.00
O524   O     0.85258   0.83332   0.32681   0.00000  Uiso   1.00
O525   O     0.79510   0.77226   0.24999   0.00000  Uiso   1.00
O526   O     0.87154   0.77225   0.24999   0.00000  Uiso   1.00
O527   O     0.81409   0.83335   0.17319   0.00000  Uiso   1.00
O528   O     0.89053   0.83334   0.17319   0.00000  Uiso   1.00
Zn529  Zn    0.78229   0.83334   0.25000   0.00000  Uiso   1.00
Zn530  Zn    0.88438   0.83333   0.25000   0.00000  Uiso   1.00
Cl531  Cl    0.95872   0.87088   0.08358   0.00000  Uiso   1.00
Cl532  Cl    0.89638   0.71127   0.31233   0.00000  Uiso   1.00
Cl533  Cl    0.69902   0.89605   0.32328   0.00000  Uiso   1.00
Cl534  Cl    0.92575   0.89405   0.32636   0.00000  Uiso   1.00
N535   N     0.81405   0.77362   0.09483   0.00000  Uiso   1.00
H536   H     0.83235   0.75437   0.11356   0.00000  Uiso   1.00
H537   H     0.78491   0.78668   0.12375   0.00000  Uiso   1.00
N538   N     0.70783   0.80705   0.41574   0.00000  Uiso   1.00
H539   H     0.70408   0.83640   0.40090   0.00000  Uiso   1.00
H540   H     0.71563   0.78469   0.38510   0.00000  Uiso   1.00
C541   C     0.16661   0.24661   0.74991   0.00000  Uiso   1.00
C542   C     0.15054   0.13893   0.98829   0.00000  Uiso   1.00
C543   C     0.16346   0.13922   0.93201   0.00000  Uiso   1.00
C544   C     0.18709   0.14310   0.51214   0.00000  Uiso   1.00
C545   C     0.23370   0.15311   0.97998   0.00000  Uiso   1.00
C546   C     0.24703   0.14511   0.92556   0.00000  Uiso   1.00
C547   C     0.21249   0.13419   0.90286   0.00000  Uiso   1.00
C548   C     0.17886   0.13916   0.56680   0.00000  Uiso   1.00
C549   C     0.25261   0.17650   0.55795   0.00000  Uiso   1.00
C550   C     0.12755   0.14628   0.90728   0.00000  Uiso   1.00
C551   C     0.19473   0.31139   0.77570   0.00000  Uiso   1.00
C552   C     0.14120   0.16049   0.85099   0.00000  Uiso   1.00
C553   C     0.19485   0.02073   0.77718   0.00000  Uiso   1.00
C554   C     0.16631   0.04246   0.75247   0.00000  Uiso   1.00
C555   C     0.13725   0.02147   0.72803   0.00000  Uiso   1.00
C556   C     0.13702   0.31207   0.72740   0.00000  Uiso   1.00
C557   C     0.16617   0.29068   0.75080   0.00000  Uiso   1.00
C558   C     0.31811   0.13887   0.71924   0.00000  Uiso   1.00
C559   C     0.03240   0.13847   0.71992   0.00000  Uiso   1.00
C560   C     0.01500   0.19403   0.78171   0.00000  Uiso   1.00
C561   C     0.30029   0.19367   0.78221   0.00000  Uiso   1.00
C562   C     0.16646   0.08667   0.75116   0.00000  Uiso   1.00
C563   C     0.19277   0.16555   0.64827   0.00000  Uiso   1.00
C564   C     0.26610   0.17000   0.50300   0.00000  Uiso   1.00
C565   C     0.20871   0.16051   0.59046   0.00000  Uiso   1.00
C566   C     0.07907   0.14153   0.93844   0.00000  Uiso   1.00
C567   C     0.06699   0.13762   0.99351   0.00000  Uiso   1.00
C568   C     0.10176   0.13897   0.51842   0.00000  Uiso   1.00
H569   H     0.11535   0.03808   0.70876   0.00000  Uiso   1.00
H570   H     0.11489   0.29581   0.70797   0.00000  Uiso   1.00
H571   H     0.30704   0.11653   0.69465   0.00000  Uiso   1.00
H572   H     0.05672   0.11508   0.69702   0.00000  Uiso   1.00
H573   H     0.28389   0.14704   0.90067   0.00000  Uiso   1.00
H574   H     0.30060   0.18048   0.97821   0.00000  Uiso   1.00
H575   H     0.08933   0.14147   0.56129   0.00000  Uiso   1.00
H576   H     0.02990   0.13574   0.51763   0.00000  Uiso   1.00
H577   H     0.22523   0.12343   0.86202   0.00000  Uiso   1.00
H578   H     0.21631   0.29448   0.79486   0.00000  Uiso   1.00
N579   N     0.04760   0.16668   0.75001   0.00000  Uiso   1.00
N580   N     0.28573   0.16665   0.75000   0.00000  Uiso   1.00
O581   O     0.12846   0.22775   0.75000   0.00000  Uiso   1.00
O582   O     0.20490   0.22774   0.75000   0.00000  Uiso   1.00
O583   O     0.10947   0.16666   0.82681   0.00000  Uiso   1.00
O584   O     0.18591   0.16665   0.82681   0.00000  Uiso   1.00
O585   O     0.12843   0.10559   0.74999   0.00000  Uiso   1.00
O586   O     0.20488   0.10558   0.74999   0.00000  Uiso   1.00
O587   O     0.14742   0.16668   0.67319   0.00000  Uiso   1.00
O588   O     0.22387   0.16667   0.67319   0.00000  Uiso   1.00
Zn589  Zn    0.11562   0.16667   0.75000   0.00000  Uiso   1.00
Zn590  Zn    0.21771   0.16666   0.75000   0.00000  Uiso   1.00
Cl591  Cl    0.29205   0.20422   0.58358   0.00000  Uiso   1.00
Cl592  Cl    0.22971   0.04460   0.81233   0.00000  Uiso   1.00
Cl593  Cl    0.03235   0.22939   0.82328   0.00000  Uiso   1.00
Cl594  Cl    0.25908   0.22738   0.82636   0.00000  Uiso   1.00
N595   N     0.14739   0.10695   0.59483   0.00000  Uiso   1.00
H596   H     0.16568   0.08770   0.61356   0.00000  Uiso   1.00
H597   H     0.11824   0.12002   0.62375   0.00000  Uiso   1.00
N598   N     0.04116   0.14039   0.91574   0.00000  Uiso   1.00
H599   H     0.03741   0.16974   0.90090   0.00000  Uiso   1.00
H600   H     0.04896   0.11802   0.88510   0.00000  Uiso   1.00
C601   C     0.49994   0.24661   0.74991   0.00000  Uiso   1.00
C602   C     0.48387   0.13893   0.98829   0.00000  Uiso   1.00
C603   C     0.49679   0.13922   0.93201   0.00000  Uiso   1.00
C604   C     0.52042   0.14310   0.51214   0.00000  Uiso   1.00
C605   C     0.56703   0.15311   0.97998   0.00000  Uiso   1.00
C606   C     0.58036   0.14511   0.92556   0.00000  Uiso   1.00
C607   C     0.54582   0.13419   0.90286   0.00000  Uiso   1.00
C608   C     0.51219   0.13916   0.56680   0.00000  Uiso   1.00
C609   C     0.58594   0.17650   0.55795   0.00000  Uiso   1.00
C610   C     0.46088   0.14628   0.90728   0.00000  Uiso   1.00
C611   C     0.52806   0.31139   0.77570   0.00000  Uiso   1.00
C612   C     0.47453   0.16049   0.85099   0.00000  Uiso   1.00
C613   C     0.52818   0.02073   0.77718   0.00000  Uiso   1.00
C614   C     0.49964   0.04246   0.75247   0.00000  Uiso   1.00
C615   C     0.47058   0.02147   0.72803   0.00000  Uiso   1.00
C616   C     0.47035   0.31207   0.72740   0.00000  Uiso   1.00
C617   C     0.49950   0.29068   0.75080   0.00000  Uiso   1.00
C618   C     0.65144   0.13887   0.71924   0.00000  Uiso   1.00
C619   C     0.36573   0.13847   0.71992   0.00000  Uiso   1.00
C620   C     0.34833   0.19403   0.78171   0.00000  Uiso   1.00
C621   C     0.63362   0.19367   0.78221   0.00000  Uiso   1.00
C622   C     0.49979   0.08667   0.75116   0.00000  Uiso   1.00
C623   C     0.52611   0.16555   0.64827   0.00000  Uiso   1.00
C624   C     0.59943   0.17000   0.50300   0.00000  Uiso   1.00
C625   C     0.54204   0.16051   0.59046   0.00000  Uiso   1.00
C626   C     0.41241   0.14153   0.93844   0.00000  Uiso   1.00
C627   C     0.40032   0.13762   0.99351   0.00000  Uiso   1.00
C628   C     0.43509   0.13897   0.51842   0.00000  Uiso   1.00
H629   H     0.44869   0.03808   0.70876   0.00000  Uiso   1.00
H630   H     0.44822   0.29581   0.70797   0.00000  Uiso   1.00
H631   H     0.64038   0.11653   0.69465   0.00000  Uiso   1.00
H632   H     0.39006   0.11508   0.69702   0.00000  Uiso   1.00
H633   H     0.61723   0.14704   0.90067   0.00000  Uiso   1.00
H634   H     0.63393   0.18048   0.97821   0.00000  Uiso   1.00
H635   H     0.42266   0.14147   0.56129   0.00000  Uiso   1.00
H636   H     0.36323   0.13574   0.51763   0.00000  Uiso   1.00
H637   H     0.55856   0.12343   0.86202   0.00000  Uiso   1.00
H638   H     0.54964   0.29448   0.79486   0.00000  Uiso   1.00
N639   N     0.38093   0.16668   0.75001   0.00000  Uiso   1.00
N640   N     0.61906   0.16665   0.75000   0.00000  Uiso   1.00
O641   O     0.46179   0.22775   0.75000   0.00000  Uiso   1.00
O642   O     0.53823   0.22774   0.75000   0.00000  Uiso   1.00
O643   O     0.44280   0.16666   0.82681   0.00000  Uiso   1.00
O644   O     0.51924   0.16665   0.82681   0.00000  Uiso   1.00
O645   O     0.46177   0.10559   0.74999   0.00000  Uiso   1.00
O646   O     0.53821   0.10558   0.74999   0.00000  Uiso   1.00
O647   O     0.48076   0.16668   0.67319   0.00000  Uiso   1.00
O648   O     0.55720   0.16667   0.67319   0.00000  Uiso   1.00
Zn649  Zn    0.44896   0.16667   0.75000   0.00000  Uiso   1.00
Zn650  Zn    0.55104   0.16666   0.75000   0.00000  Uiso   1.00
Cl651  Cl    0.62539   0.20422   0.58358   0.00000  Uiso   1.00
Cl652  Cl    0.56304   0.04460   0.81233   0.00000  Uiso   1.00
Cl653  Cl    0.36569   0.22939   0.82328   0.00000  Uiso   1.00
Cl654  Cl    0.59241   0.22738   0.82636   0.00000  Uiso   1.00
N655   N     0.48072   0.10695   0.59483   0.00000  Uiso   1.00
H656   H     0.49902   0.08770   0.61356   0.00000  Uiso   1.00
H657   H     0.45158   0.12002   0.62375   0.00000  Uiso   1.00
N658   N     0.37449   0.14039   0.91574   0.00000  Uiso   1.00
H659   H     0.37075   0.16974   0.90090   0.00000  Uiso   1.00
H660   H     0.38230   0.11802   0.88510   0.00000  Uiso   1.00
C661   C     0.83328   0.24661   0.74991   0.00000  Uiso   1.00
C662   C     0.81721   0.13893   0.98829   0.00000  Uiso   1.00
C663   C     0.83012   0.13922   0.93201   0.00000  Uiso   1.00
C664   C     0.85375   0.14310   0.51214   0.00000  Uiso   1.00
C665   C     0.90037   0.15311   0.97998   0.00000  Uiso   1.00
C666   C     0.91370   0.14511   0.92556   0.00000  Uiso   1.00
C667   C     0.87915   0.13419   0.90286   0.00000  Uiso   1.00
C668   C     0.84553   0.13916   0.56680   0.00000  Uiso   1.00
C669   C     0.91927   0.17650   0.55795   0.00000  Uiso   1.00
C670   C     0.79421   0.14628   0.90728   0.00000  Uiso   1.00
C671   C     0.86139   0.31139   0.77570   0.00000  Uiso   1.00
C672   C     0.80786   0.16049   0.85099   0.00000  Uiso   1.00
C673   C     0.86152   0.02073   0.77718   0.00000  Uiso   1.00
C674   C     0.83297   0.04246   0.75247   0.00000  Uiso   1.00
C675   C     0.80392   0.02147   0.72803   0.00000  Uiso   1.00
C676   C     0.80368   0.31207   0.72740   0.00000  Uiso   1.00
C677   C     0.83284   0.29068   0.75080   0.00000  Uiso   1.00
C678   C     0.98478   0.13887   0.71924   0.00000  Uiso   1.00
C679   C     0.69907   0.13847   0.71992   0.00000  Uiso   1.00
C680   C     0.68167   0.19403   0.78171   0.00000  Uiso   1.00
C681   C     0.96695   0.19367   0.78221   0.00000  Uiso   1.00
C682   C     0.83312   0.08667   0.75116   0.00000  Uiso   1.00
C683   C     0.85944   0.16555   0.64827   0.00000  Uiso   1.00
C684   C     0.93277   0.17000   0.50300   0.00000  Uiso   1.00
C685   C     0.87538   0.16051   0.59046   0.00000  Uiso   1.00
C686   C     0.74574   0.14153   0.93844   0.00000  Uiso   1.00
C687   C     0.73365   0.13762   0.99351   0.00000  Uiso   1.00
C688   C     0.76842   0.13897   0.51842   0.00000  Uiso   1.00
H689   H     0.78202   0.03808   0.70876   0.00000  Uiso   1.00
H690   H     0.78155   0.29581   0.70797   0.00000  Uiso   1.00
H691   H     0.97371   0.11653   0.69465   0.00000  Uiso   1.00
H692   H     0.72339   0.11508   0.69702   0.00000  Uiso   1.00
H693   H     0.95056   0.14704   0.90067   0.00000  Uiso   1.00
H694   H     0.96727   0.18048   0.97821   0.00000  Uiso   1.00
H695   H     0.75600   0.14147   0.56129   0.00000  Uiso   1.00
H696   H     0.69657   0.13574   0.51763   0.00000  Uiso   1.00
H697   H     0.89189   0.12343   0.86202   0.00000  Uiso   1.00
H698   H     0.88298   0.29448   0.79486   0.00000  Uiso   1.00
N699   N     0.71426   0.16668   0.75001   0.00000  Uiso   1.00
N700   N     0.95239   0.16665   0.75000   0.00000  Uiso   1.00
O701   O     0.79512   0.22775   0.75000   0.00000  Uiso   1.00
O702   O     0.87157   0.22774   0.75000   0.00000  Uiso   1.00
O703   O     0.77613   0.16666   0.82681   0.00000  Uiso   1.00
O704   O     0.85258   0.16665   0.82681   0.00000  Uiso   1.00
O705   O     0.79510   0.10559   0.74999   0.00000  Uiso   1.00
O706   O     0.87154   0.10558   0.74999   0.00000  Uiso   1.00
O707   O     0.81409   0.16668   0.67319   0.00000  Uiso   1.00
O708   O     0.89053   0.16667   0.67319   0.00000  Uiso   1.00
Zn709  Zn    0.78229   0.16667   0.75000   0.00000  Uiso   1.00
Zn710  Zn    0.88438   0.16666   0.75000   0.00000  Uiso   1.00
Cl711  Cl    0.95872   0.20422   0.58358   0.00000  Uiso   1.00
Cl712  Cl    0.89638   0.04460   0.81233   0.00000  Uiso   1.00
Cl713  Cl    0.69902   0.22939   0.82328   0.00000  Uiso   1.00
Cl714  Cl    0.92575   0.22738   0.82636   0.00000  Uiso   1.00
N715   N     0.81405   0.10695   0.59483   0.00000  Uiso   1.00
H716   H     0.83235   0.08770   0.61356   0.00000  Uiso   1.00
H717   H     0.78491   0.12002   0.62375   0.00000  Uiso   1.00
N718   N     0.70783   0.14039   0.91574   0.00000  Uiso   1.00
H719   H     0.70408   0.16974   0.90090   0.00000  Uiso   1.00
H720   H     0.71563   0.11802   0.88510   0.00000  Uiso   1.00
C721   C     0.16661   0.57994   0.74991   0.00000  Uiso   1.00
C722   C     0.15054   0.47226   0.98829   0.00000  Uiso   1.00
C723   C     0.16346   0.47255   0.93201   0.00000  Uiso   1.00
C724   C     0.18709   0.47643   0.51214   0.00000  Uiso   1.00
C725   C     0.23370   0.48645   0.97998   0.00000  Uiso   1.00
C726   C     0.24703   0.47844   0.92556   0.00000  Uiso   1.00
C727   C     0.21249   0.46752   0.90286   0.00000  Uiso   1.00
C728   C     0.17886   0.47249   0.56680   0.00000  Uiso   1.00
C729   C     0.25261   0.50983   0.55795   0.00000  Uiso   1.00
C730   C     0.12755   0.47961   0.90728   0.00000  Uiso   1.00
C731   C     0.19473   0.64473   0.77570   0.00000  Uiso   1.00
C732   C     0.14120   0.49382   0.85099   0.00000  Uiso   1.00
C733   C     0.19485   0.35406   0.77718   0.00000  Uiso   1.00
C734   C     0.16631   0.37579   0.75247   0.00000  Uiso   1.00
C735   C     0.13725   0.35481   0.72803   0.00000  Uiso   1.00
C736   C     0.13702   0.64541   0.72740   0.00000  Uiso   1.00
C737   C     0.16617   0.62401   0.75080   0.00000  Uiso   1.00
C738   C     0.31811   0.47220   0.71924   0.00000  Uiso   1.00
C739   C     0.03240   0.47180   0.71992   0.00000  Uiso   1.00
C740   C     0.01500   0.52736   0.78171   0.00000  Uiso   1.00
C741   C     0.30029   0.52700   0.78221   0.00000  Uiso   1.00
C742   C     0.16646   0.42001   0.75116   0.00000  Uiso   1.00
C743   C     0.19277   0.49889   0.64827   0.00000  Uiso   1.00
C744   C     0.26610   0.50334   0.50300   0.00000  Uiso   1.00
C745   C     0.20871   0.49384   0.59046   0.00000  Uiso   1.00
C746   C     0.07907   0.47487   0.93844   0.00000  Uiso   1.00
C747   C     0.06699   0.47095   0.99351   0.00000  Uiso   1.00
C748   C     0.10176   0.47230   0.51842   0.00000  Uiso   1.00
H749   H     0.11535   0.37141   0.70876   0.00000  Uiso   1.00
H750   H     0.11489   0.62915   0.70797   0.00000  Uiso   1.00
H751   H     0.30704   0.44987   0.69465   0.00000  Uiso   1.00
H752   H     0.05672   0.44841   0.69702   0.00000  Uiso   1.00
H753   H     0.28389   0.48037   0.90067   0.00000  Uiso   1.00
H754   H     0.30060   0.51381   0.97821   0.00000  Uiso   1.00
H755   H     0.08933   0.47480   0.56129   0.00000  Uiso   1.00
H756   H     0.02990   0.46907   0.51763   0.00000  Uiso   1.00
H757   H     0.22523   0.45676   0.86202   0.00000  Uiso   1.00
H758   H     0.21631   0.62782   0.79486   0.00000  Uiso   1.00
N759   N     0.04760   0.50001   0.75001   0.00000  Uiso   1.00
N760   N     0.28573   0.49998   0.75000   0.00000  Uiso   1.00
O761   O     0.12846   0.56108   0.75000   0.00000  Uiso   1.00
O762   O     0.20490   0.56107   0.75000   0.00000  Uiso   1.00
O763   O     0.10947   0.50000   0.82681   0.00000  Uiso   1.00
O764   O     0.18591   0.49999   0.82681   0.00000  Uiso   1.00
O765   O     0.12843   0.43893   0.74999   0.00000  Uiso   1.00
O766   O     0.20488   0.43892   0.74999   0.00000  Uiso   1.00
O767   O     0.14742   0.50001   0.67319   0.00000  Uiso   1.00
O768   O     0.22387   0.50000   0.67319   0.00000  Uiso   1.00
Zn769  Zn    0.11562   0.50001   0.75000   0.00000  Uiso   1.00
Zn770  Zn    0.21771   0.49999   0.75000   0.00000  Uiso   1.00
Cl771  Cl    0.29205   0.53755   0.58358   0.00000  Uiso   1.00
Cl772  Cl    0.22971   0.37793   0.81233   0.00000  Uiso   1.00
Cl773  Cl    0.03235   0.56272   0.82328   0.00000  Uiso   1.00
Cl774  Cl    0.25908   0.56072   0.82636   0.00000  Uiso   1.00
N775   N     0.14739   0.44029   0.59483   0.00000  Uiso   1.00
H776   H     0.16568   0.42103   0.61356   0.00000  Uiso   1.00
H777   H     0.11824   0.45335   0.62375   0.00000  Uiso   1.00
N778   N     0.04116   0.47372   0.91574   0.00000  Uiso   1.00
H779   H     0.03741   0.50307   0.90090   0.00000  Uiso   1.00
H780   H     0.04896   0.45136   0.88510   0.00000  Uiso   1.00
C781   C     0.49994   0.57994   0.74991   0.00000  Uiso   1.00
C782   C     0.48387   0.47226   0.98829   0.00000  Uiso   1.00
C783   C     0.49679   0.47255   0.93201   0.00000  Uiso   1.00
C784   C     0.52042   0.47643   0.51214   0.00000  Uiso   1.00
C785   C     0.56703   0.48645   0.97998   0.00000  Uiso   1.00
C786   C     0.58036   0.47844   0.92556   0.00000  Uiso   1.00
C787   C     0.54582   0.46752   0.90286   0.00000  Uiso   1.00
C788   C     0.51219   0.47249   0.56680   0.00000  Uiso   1.00
C789   C     0.58594   0.50983   0.55795   0.00000  Uiso   1.00
C790   C     0.46088   0.47961   0.90728   0.00000  Uiso   1.00
C791   C     0.52806   0.64473   0.77570   0.00000  Uiso   1.00
C792   C     0.47453   0.49382   0.85099   0.00000  Uiso   1.00
C793   C     0.52818   0.35406   0.77718   0.00000  Uiso   1.00
C794   C     0.49964   0.37579   0.75247   0.00000  Uiso   1.00
C795   C     0.47058   0.35481   0.72803   0.00000  Uiso   1.00
C796   C     0.47035   0.64541   0.72740   0.00000  Uiso   1.00
C797   C     0.49950   0.62401   0.75080   0.00000  Uiso   1.00
C798   C     0.65144   0.47220   0.71924   0.00000  Uiso   1.00
C799   C     0.36573   0.47180   0.71992   0.00000  Uiso   1.00
C800   C     0.34833   0.52736   0.78171   0.00000  Uiso   1.00
C801   C     0.63362   0.52700   0.78221   0.00000  Uiso   1.00
C802   C     0.49979   0.42001   0.75116   0.00000  Uiso   1.00
C803   C     0.52611   0.49889   0.64827   0.00000  Uiso   1.00
C804   C     0.59943   0.50334   0.50300   0.00000  Uiso   1.00
C805   C     0.54204   0.49384   0.59046   0.00000  Uiso   1.00
C806   C     0.41241   0.47487   0.93844   0.00000  Uiso   1.00
C807   C     0.40032   0.47095   0.99351   0.00000  Uiso   1.00
C808   C     0.43509   0.47230   0.51842   0.00000  Uiso   1.00
H809   H     0.44869   0.37141   0.70876   0.00000  Uiso   1.00
H810   H     0.44822   0.62915   0.70797   0.00000  Uiso   1.00
H811   H     0.64038   0.44987   0.69465   0.00000  Uiso   1.00
H812   H     0.39006   0.44841   0.69702   0.00000  Uiso   1.00
H813   H     0.61723   0.48037   0.90067   0.00000  Uiso   1.00
H814   H     0.63393   0.51381   0.97821   0.00000  Uiso   1.00
H815   H     0.42266   0.47480   0.56129   0.00000  Uiso   1.00
H816   H     0.36323   0.46907   0.51763   0.00000  Uiso   1.00
H817   H     0.55856   0.45676   0.86202   0.00000  Uiso   1.00
H818   H     0.54964   0.62782   0.79486   0.00000  Uiso   1.00
N819   N     0.38093   0.50001   0.75001   0.00000  Uiso   1.00
N820   N     0.61906   0.49998   0.75000   0.00000  Uiso   1.00
O821   O     0.46179   0.56108   0.75000   0.00000  Uiso   1.00
O822   O     0.53823   0.56107   0.75000   0.00000  Uiso   1.00
O823   O     0.44280   0.50000   0.82681   0.00000  Uiso   1.00
O824   O     0.51924   0.49999   0.82681   0.00000  Uiso   1.00
O825   O     0.46177   0.43893   0.74999   0.00000  Uiso   1.00
O826   O     0.53821   0.43892   0.74999   0.00000  Uiso   1.00
O827   O     0.48076   0.50001   0.67319   0.00000  Uiso   1.00
O828   O     0.55720   0.50000   0.67319   0.00000  Uiso   1.00
Zn829  Zn    0.44896   0.50001   0.75000   0.00000  Uiso   1.00
Zn830  Zn    0.55104   0.49999   0.75000   0.00000  Uiso   1.00
Cl831  Cl    0.62539   0.53755   0.58358   0.00000  Uiso   1.00
Cl832  Cl    0.56304   0.37793   0.81233   0.00000  Uiso   1.00
Cl833  Cl    0.36569   0.56272   0.82328   0.00000  Uiso   1.00
Cl834  Cl    0.59241   0.56072   0.82636   0.00000  Uiso   1.00
N835   N     0.48072   0.44029   0.59483   0.00000  Uiso   1.00
H836   H     0.49902   0.42103   0.61356   0.00000  Uiso   1.00
H837   H     0.45158   0.45335   0.62375   0.00000  Uiso   1.00
N838   N     0.37449   0.47372   0.91574   0.00000  Uiso   1.00
H839   H     0.37075   0.50307   0.90090   0.00000  Uiso   1.00
H840   H     0.38230   0.45136   0.88510   0.00000  Uiso   1.00
C841   C     0.83328   0.57994   0.74991   0.00000  Uiso   1.00
C842   C     0.81721   0.47226   0.98829   0.00000  Uiso   1.00
C843   C     0.83012   0.47255   0.93201   0.00000  Uiso   1.00
C844   C     0.85375   0.47643   0.51214   0.00000  Uiso   1.00
C845   C     0.90037   0.48645   0.97998   0.00000  Uiso   1.00
C846   C     0.91370   0.47844   0.92556   0.00000  Uiso   1.00
C847   C     0.87915   0.46752   0.90286   0.00000  Uiso   1.00
C848   C     0.84553   0.47249   0.56680   0.00000  Uiso   1.00
C849   C     0.91927   0.50983   0.55795   0.00000  Uiso   1.00
C850   C     0.79421   0.47961   0.90728   0.00000  Uiso   1.00
C851   C     0.86139   0.64473   0.77570   0.00000  Uiso   1.00
C852   C     0.80786   0.49382   0.85099   0.00000  Uiso   1.00
C853   C     0.86152   0.35406   0.77718   0.00000  Uiso   1.00
C854   C     0.83297   0.37579   0.75247   0.00000  Uiso   1.00
C855   C     0.80392   0.35481   0.72803   0.00000  Uiso   1.00
C856   C     0.80368   0.64541   0.72740   0.00000  Uiso   1.00
C857   C     0.83284   0.62401   0.75080   0.00000  Uiso   1.00
C858   C     0.98478   0.47220   0.71924   0.00000  Uiso   1.00
C859   C     0.69907   0.47180   0.71992   0.00000  Uiso   1.00
C860   C     0.68167   0.52736   0.78171   0.00000  Uiso   1.00
C861   C     0.96695   0.52700   0.78221   0.00000  Uiso   1.00
C862   C     0.83312   0.42001   0.75116   0.00000  Uiso   1.00
C863   C     0.85944   0.49889   0.64827   0.00000  Uiso   1.00
C864   C     0.93277   0.50334   0.50300   0.00000  Uiso   1.00
C865   C     0.87538   0.49384   0.59046   0.00000  Uiso   1.00
C866   C     0.74574   0.47487   0.93844   0.00000  Uiso   1.00
C867   C     0.73365   0.47095   0.99351   0.00000  Uiso   1.00
C868   C     0.76842   0.47230   0.51842   0.00000  Uiso   1.00
H869   H     0.78202   0.37141   0.70876   0.00000  Uiso   1.00
H870   H     0.78155   0.62915   0.70797   0.00000  Uiso   1.00
H871   H     0.97371   0.44987   0.69465   0.00000  Uiso   1.00
H872   H     0.72339   0.44841   0.69702   0.00000  Uiso   1.00
H873   H     0.95056   0.48037   0.90067   0.00000  Uiso   1.00
H874   H     0.96727   0.51381   0.97821   0.00000  Uiso   1.00
H875   H     0.75600   0.47480   0.56129   0.00000  Uiso   1.00
H876   H     0.69657   0.46907   0.51763   0.00000  Uiso   1.00
H877   H     0.89189   0.45676   0.86202   0.00000  Uiso   1.00
H878   H     0.88298   0.62782   0.79486   0.00000  Uiso   1.00
N879   N     0.71426   0.50001   0.75001   0.00000  Uiso   1.00
N880   N     0.95239   0.49998   0.75000   0.00000  Uiso   1.00
O881   O     0.79512   0.56108   0.75000   0.00000  Uiso   1.00
O882   O     0.87157   0.56107   0.75000   0.00000  Uiso   1.00
O883   O     0.77613   0.50000   0.82681   0.00000  Uiso   1.00
O884   O     0.85258   0.49999   0.82681   0.00000  Uiso   1.00
O885   O     0.79510   0.43893   0.74999   0.00000  Uiso   1.00
O886   O     0.87154   0.43892   0.74999   0.00000  Uiso   1.00
O887   O     0.81409   0.50001   0.67319   0.00000  Uiso   1.00
O888   O     0.89053   0.50000   0.67319   0.00000  Uiso   1.00
Zn889  Zn    0.78229   0.50001   0.75000   0.00000  Uiso   1.00
Zn890  Zn    0.88438   0.49999   0.75000   0.00000  Uiso   1.00
Cl891  Cl    0.95872   0.53755   0.58358   0.00000  Uiso   1.00
Cl892  Cl    0.89638   0.37793   0.81233   0.00000  Uiso   1.00
Cl893  Cl    0.69902   0.56272   0.82328   0.00000  Uiso   1.00
Cl894  Cl    0.92575   0.56072   0.82636   0.00000  Uiso   1.00
N895   N     0.81405   0.44029   0.59483   0.00000  Uiso   1.00
H896   H     0.83235   0.42103   0.61356   0.00000  Uiso   1.00
H897   H     0.78491   0.45335   0.62375   0.00000  Uiso   1.00
N898   N     0.70783   0.47372   0.91574   0.00000  Uiso   1.00
H899   H     0.70408   0.50307   0.90090   0.00000  Uiso   1.00
H900   H     0.71563   0.45136   0.88510   0.00000  Uiso   1.00
C901   C     0.16661   0.91328   0.74991   0.00000  Uiso   1.00
C902   C     0.15054   0.80560   0.98829   0.00000  Uiso   1.00
C903   C     0.16346   0.80589   0.93201   0.00000  Uiso   1.00
C904   C     0.18709   0.80977   0.51214   0.00000  Uiso   1.00
C905   C     0.23370   0.81978   0.97998   0.00000  Uiso   1.00
C906   C     0.24703   0.81178   0.92556   0.00000  Uiso   1.00
C907   C     0.21249   0.80085   0.90286   0.00000  Uiso   1.00
C908   C     0.17886   0.80582   0.56680   0.00000  Uiso   1.00
C909   C     0.25261   0.84317   0.55795   0.00000  Uiso   1.00
C910   C     0.12755   0.81295   0.90728   0.00000  Uiso   1.00
C911   C     0.19473   0.97806   0.77570   0.00000  Uiso   1.00
C912   C     0.14120   0.82716   0.85099   0.00000  Uiso   1.00
C913   C     0.19485   0.68739   0.77718   0.00000  Uiso   1.00
C914   C     0.16631   0.70913   0.75247   0.00000  Uiso   1.00
C915   C     0.13725   0.68814   0.72803   0.00000  Uiso   1.00
C916   C     0.13702   0.97874   0.72740   0.00000  Uiso   1.00
C917   C     0.16617   0.95735   0.75080   0.00000  Uiso   1.00
C918   C     0.31811   0.80553   0.71924   0.00000  Uiso   1.00
C919   C     0.03240   0.80514   0.71992   0.00000  Uiso   1.00
C920   C     0.01500   0.86070   0.78171   0.00000  Uiso   1.00
C921   C     0.30029   0.86034   0.78221   0.00000  Uiso   1.00
C922   C     0.16646   0.75334   0.75116   0.00000  Uiso   1.00
C923   C     0.19277   0.83222   0.64827   0.00000  Uiso   1.00
C924   C     0.26610   0.83667   0.50300   0.00000  Uiso   1.00
C925   C     0.20871   0.82717   0.59046   0.00000  Uiso   1.00
C926   C     0.07907   0.80820   0.93844   0.00000  Uiso   1.00
C927   C     0.06699   0.80429   0.99351   0.00000  Uiso   1.00
C928   C     0.10176   0.80563   0.51842   0.00000  Uiso   1.00
H929   H     0.11535   0.70474   0.70876   0.00000  Uiso   1.00
H930   H     0.11489   0.96248   0.70797   0.00000  Uiso   1.00
H931   H     0.30704   0.78320   0.69465   0.00000  Uiso   1.00
H932   H     0.05672   0.78175   0.69702   0.00000  Uiso   1.00
H933   H     0.28389   0.81370   0.90067   0.00000  Uiso   1.00
H934   H     0.30060   0.84714   0.97821   0.00000  Uiso   1.00
H935   H     0.08933   0.80814   0.56129   0.00000  Uiso   1.00
H936   H     0.02990   0.80241   0.51763   0.00000  Uiso   1.00
H937   H     0.22523   0.79009   0.86202   0.00000  Uiso   1.00
H938   H     0.21631   0.96115   0.79486   0.00000  Uiso   1.00
N939   N     0.04760   0.83334   0.75001   0.00000  Uiso   1.00
N940   N     0.28573   0.83331   0.75000   0.00000  Uiso   1.00
O941   O     0.12846   0.89442   0.75000   0.00000  Uiso   1.00
O942   O     0.20490   0.89441   0.75000   0.00000  Uiso   1.00
O943   O     0.10947   0.83333   0.82681   0.00000  Uiso   1.00
O944   O     0.18591   0.83332   0.82681   0.00000  Uiso   1.00
O945   O     0.12843   0.77226   0.74999   0.00000  Uiso   1.00
O946   O     0.20488   0.77225   0.74999   0.00000  Uiso   1.00
O947   O     0.14742   0.83335   0.67319   0.00000  Uiso   1.00
O948   O     0.22387   0.83334   0.67319   0.00000  Uiso   1.00
Zn949  Zn    0.11562   0.83334   0.75000   0.00000  Uiso   1.00
Zn950  Zn    0.21771   0.83333   0.75000   0.00000  Uiso   1.00
Cl951  Cl    0.29205   0.87088   0.58358   0.00000  Uiso   1.00
Cl952  Cl    0.22971   0.71127   0.81233   0.00000  Uiso   1.00
Cl953  Cl    0.03235   0.89605   0.82328   0.00000  Uiso   1.00
Cl954  Cl    0.25908   0.89405   0.82636   0.00000  Uiso   1.00
N955   N     0.14739   0.77362   0.59483   0.00000  Uiso   1.00
H956   H     0.16568   0.75437   0.61356   0.00000  Uiso   1.00
H957   H     0.11824   0.78668   0.62375   0.00000  Uiso   1.00
N958   N     0.04116   0.80705   0.91574   0.00000  Uiso   1.00
H959   H     0.03741   0.83640   0.90090   0.00000  Uiso   1.00
H960   H     0.04896   0.78469   0.88510   0.00000  Uiso   1.00
C961   C     0.49994   0.91328   0.74991   0.00000  Uiso   1.00
C962   C     0.48387   0.80560   0.98829   0.00000  Uiso   1.00
C963   C     0.49679   0.80589   0.93201   0.00000  Uiso   1.00
C964   C     0.52042   0.80977   0.51214   0.00000  Uiso   1.00
C965   C     0.56703   0.81978   0.97998   0.00000  Uiso   1.00
C966   C     0.58036   0.81178   0.92556   0.00000  Uiso   1.00
C967   C     0.54582   0.80085   0.90286   0.00000  Uiso   1.00
C968   C     0.51219   0.80582   0.56680   0.00000  Uiso   1.00
C969   C     0.58594   0.84317   0.55795   0.00000  Uiso   1.00
C970   C     0.46088   0.81295   0.90728   0.00000  Uiso   1.00
C971   C     0.52806   0.97806   0.77570   0.00000  Uiso   1.00
C972   C     0.47453   0.82716   0.85099   0.00000  Uiso   1.00
C973   C     0.52818   0.68739   0.77718   0.00000  Uiso   1.00
C974   C     0.49964   0.70913   0.75247   0.00000  Uiso   1.00
C975   C     0.47058   0.68814   0.72803   0.00000  Uiso   1.00
C976   C     0.47035   0.97874   0.72740   0.00000  Uiso   1.00
C977   C     0.49950   0.95735   0.75080   0.00000  Uiso   1.00
C978   C     0.65144   0.80553   0.71924   0.00000  Uiso   1.00
C979   C     0.36573   0.80514   0.71992   0.00000  Uiso   1.00
C980   C     0.34833   0.86070   0.78171   0.00000  Uiso   1.00
C981   C     0.63362   0.86034   0.78221   0.00000  Uiso   1.00
C982   C     0.49979   0.75334   0.75116   0.00000  Uiso   1.00
C983   C     0.52611   0.83222   0.64827   0.00000  Uiso   1.00
C984   C     0.59943   0.83667   0.50300   0.00000  Uiso   1.00
C985   C     0.54204   0.82717   0.59046   0.00000  Uiso   1.00
C986   C     0.41241   0.80820   0.93844   0.00000  Uiso   1.00
C987   C     0.40032   0.80429   0.99351   0.00000  Uiso   1.00
C988   C     0.43509   0.80563   0.51842   0.00000  Uiso   1.00
H989   H     0.44869   0.70474   0.70876   0.00000  Uiso   1.00
H990   H     0.44822   0.96248   0.70797   0.00000  Uiso   1.00
H991   H     0.64038   0.78320   0.69465   0.00000  Uiso   1.00
H992   H     0.39006   0.78175   0.69702   0.00000  Uiso   1.00
H993   H     0.61723   0.81370   0.90067   0.00000  Uiso   1.00
H994   H     0.63393   0.84714   0.97821   0.00000  Uiso   1.00
H995   H     0.42266   0.80814   0.56129   0.00000  Uiso   1.00
H996   H     0.36323   0.80241   0.51763   0.00000  Uiso   1.00
H997   H     0.55856   0.79009   0.86202   0.00000  Uiso   1.00
H998   H     0.54964   0.96115   0.79486   0.00000  Uiso   1.00
N999   N     0.38093   0.83334   0.75001   0.00000  Uiso   1.00
N1000  N     0.61906   0.83331   0.75000   0.00000  Uiso   1.00
O1001  O     0.46179   0.89442   0.75000   0.00000  Uiso   1.00
O1002  O     0.53823   0.89441   0.75000   0.00000  Uiso   1.00
O1003  O     0.44280   0.83333   0.82681   0.00000  Uiso   1.00
O1004  O     0.51924   0.83332   0.82681   0.00000  Uiso   1.00
O1005  O     0.46177   0.77226   0.74999   0.00000  Uiso   1.00
O1006  O     0.53821   0.77225   0.74999   0.00000  Uiso   1.00
O1007  O     0.48076   0.83335   0.67319   0.00000  Uiso   1.00
O1008  O     0.55720   0.83334   0.67319   0.00000  Uiso   1.00
Zn1009 Zn    0.44896   0.83334   0.75000   0.00000  Uiso   1.00
Zn1010 Zn    0.55104   0.83333   0.75000   0.00000  Uiso   1.00
Cl1011 Cl    0.62539   0.87088   0.58358   0.00000  Uiso   1.00
Cl1012 Cl    0.56304   0.71127   0.81233   0.00000  Uiso   1.00
Cl1013 Cl    0.36569   0.89605   0.82328   0.00000  Uiso   1.00
Cl1014 Cl    0.59241   0.89405   0.82636   0.00000  Uiso   1.00
N1015  N     0.48072   0.77362   0.59483   0.00000  Uiso   1.00
H1016  H     0.49902   0.75437   0.61356   0.00000  Uiso   1.00
H1017  H     0.45158   0.78668   0.62375   0.00000  Uiso   1.00
N1018  N     0.37449   0.80705   0.91574   0.00000  Uiso   1.00
H1019  H     0.37075   0.83640   0.90090   0.00000  Uiso   1.00
H1020  H     0.38230   0.78469   0.88510   0.00000  Uiso   1.00
C1021  C     0.83328   0.91328   0.74991   0.00000  Uiso   1.00
C1022  C     0.81721   0.80560   0.98829   0.00000  Uiso   1.00
C1023  C     0.83012   0.80589   0.93201   0.00000  Uiso   1.00
C1024  C     0.85375   0.80977   0.51214   0.00000  Uiso   1.00
C1025  C     0.90037   0.81978   0.97998   0.00000  Uiso   1.00
C1026  C     0.91370   0.81178   0.92556   0.00000  Uiso   1.00
C1027  C     0.87915   0.80085   0.90286   0.00000  Uiso   1.00
C1028  C     0.84553   0.80582   0.56680   0.00000  Uiso   1.00
C1029  C     0.91927   0.84317   0.55795   0.00000  Uiso   1.00
C1030  C     0.79421   0.81295   0.90728   0.00000  Uiso   1.00
C1031  C     0.86139   0.97806   0.77570   0.00000  Uiso   1.00
C1032  C     0.80786   0.82716   0.85099   0.00000  Uiso   1.00
C1033  C     0.86152   0.68739   0.77718   0.00000  Uiso   1.00
C1034  C     0.83297   0.70913   0.75247   0.00000  Uiso   1.00
C1035  C     0.80392   0.68814   0.72803   0.00000  Uiso   1.00
C1036  C     0.80368   0.97874   0.72740   0.00000  Uiso   1.00
C1037  C     0.83284   0.95735   0.75080   0.00000  Uiso   1.00
C1038  C     0.98478   0.80553   0.71924   0.00000  Uiso   1.00
C1039  C     0.69907   0.80514   0.71992   0.00000  Uiso   1.00
C1040  C     0.68167   0.86070   0.78171   0.00000  Uiso   1.00
C1041  C     0.96695   0.86034   0.78221   0.00000  Uiso   1.00
C1042  C     0.83312   0.75334   0.75116   0.00000  Uiso   1.00
C1043  C     0.85944   0.83222   0.64827   0.00000  Uiso   1.00
C1044  C     0.93277   0.83667   0.50300   0.00000  Uiso   1.00
C1045  C     0.87538   0.82717   0.59046   0.00000  Uiso   1.00
C1046  C     0.74574   0.80820   0.93844   0.00000  Uiso   1.00
C1047  C     0.73365   0.80429   0.99351   0.00000  Uiso   1.00
C1048  C     0.76842   0.80563   0.51842   0.00000  Uiso   1.00
H1049  H     0.78202   0.70474   0.70876   0.00000  Uiso   1.00
H1050  H     0.78155   0.96248   0.70797   0.00000  Uiso   1.00
H1051  H     0.97371   0.78320   0.69465   0.00000  Uiso   1.00
H1052  H     0.72339   0.78175   0.69702   0.00000  Uiso   1.00
H1053  H     0.95056   0.81370   0.90067   0.00000  Uiso   1.00
H1054  H     0.96727   0.84714   0.97821   0.00000  Uiso   1.00
H1055  H     0.75600   0.80814   0.56129   0.00000  Uiso   1.00
H1056  H     0.69657   0.80241   0.51763   0.00000  Uiso   1.00
H1057  H     0.89189   0.79009   0.86202   0.00000  Uiso   1.00
H1058  H     0.88298   0.96115   0.79486   0.00000  Uiso   1.00
N1059  N     0.71426   0.83334   0.75001   0.00000  Uiso   1.00
N1060  N     0.95239   0.83331   0.75000   0.00000  Uiso   1.00
O1061  O     0.79512   0.89442   0.75000   0.00000  Uiso   1.00
O1062  O     0.87157   0.89441   0.75000   0.00000  Uiso   1.00
O1063  O     0.77613   0.83333   0.82681   0.00000  Uiso   1.00
O1064  O     0.85258   0.83332   0.82681   0.00000  Uiso   1.00
O1065  O     0.79510   0.77226   0.74999   0.00000  Uiso   1.00
O1066  O     0.87154   0.77225   0.74999   0.00000  Uiso   1.00
O1067  O     0.81409   0.83335   0.67319   0.00000  Uiso   1.00
O1068  O     0.89053   0.83334   0.67319   0.00000  Uiso   1.00
Zn1069 Zn    0.78229   0.83334   0.75000   0.00000  Uiso   1.00
Zn1070 Zn    0.88438   0.83333   0.75000   0.00000  Uiso   1.00
Cl1071 Cl    0.95872   0.87088   0.58358   0.00000  Uiso   1.00
Cl1072 Cl    0.89638   0.71127   0.81233   0.00000  Uiso   1.00
Cl1073 Cl    0.69902   0.89605   0.82328   0.00000  Uiso   1.00
Cl1074 Cl    0.92575   0.89405   0.82636   0.00000  Uiso   1.00
N1075  N     0.81405   0.77362   0.59483   0.00000  Uiso   1.00
H1076  H     0.83235   0.75437   0.61356   0.00000  Uiso   1.00
H1077  H     0.78491   0.78668   0.62375   0.00000  Uiso   1.00
N1078  N     0.70783   0.80705   0.91574   0.00000  Uiso   1.00
H1079  H     0.70408   0.83640   0.90090   0.00000  Uiso   1.00
H1080  H     0.71563   0.78469   0.88510   0.00000  Uiso   1.00
loop_
_geom_bond_atom_site_label_1
_geom_bond_atom_site_label_2
_geom_bond_distance
_geom_bond_site_symmetry_2
_ccdc_geom_bond_type
C1     C17     1.415   .     S
C1     O42     1.285   .     A
C1     O41     1.283   .     A
C2     C3      1.412   .     A
C2     C544    1.420   .     S
C2     C568    1.411   .     S
C3     C10     1.432   .     A
C3     C7      1.420   .     A
C4     C8      1.392   .     A
C4     C542    1.420   1_554 S
C4     C545    1.412   1_554 S
C5     C6      1.385   .     A
C5     C544    1.412   .     S
C5     C564    1.397   .     S
C6     C7      1.384   .     A
C6     H33     1.083   .     S
C7     H37     1.076   .     S
C8     C25     1.410   .     A
C8     N55     1.438   .     S
C9     C24     1.391   .     A
C9     Cl51    1.764   .     S
C9     C25     1.413   .     A
C10    C26     1.420   .     A
C10    C12     1.488   .     S
C11    H38     1.080   .     S
C11    C17     1.392   .     A
C11    C193    1.370   .     S
C12    O44     1.292   .     A
C12    O43     1.308   .     A
C13    Cl52    1.764   .     S
C13    C14     1.408   .     A
C13    C371    1.370   1_545 S
C14    C22     1.420   .     S
C14    C15     1.399   .     A
C15    H29     1.084   .     S
C15    C376    1.372   1_545 S
C16    C17     1.393   .     A
C16    H30     1.084   .     S
C16    C195    1.372   .     S
C18    N40     1.365   .     A
C18    H31     1.082   .     S
C18    C79     1.416   .     S
C19    N39     1.367   .     A
C19    H32     1.077   .     S
C19    C138    1.416   1_455 S
C20    N39     1.368   .     A
C20    Cl53    1.759   .     S
C20    C141    1.419   1_455 S
C21    N40     1.372   .     A
C21    Cl54    1.757   .     S
C21    C80     1.419   .     S
C22    O45     1.287   .     A
C22    O46     1.283   .     A
C23    O48     1.291   .     A
C23    C25     1.455   .     S
C23    O47     1.295   .     A
C24    C545    1.397   1_554 S
C24    H574    1.081   1_554 S
C26    N58     1.431   .     S
C26    C27     1.390   .     A
C27    C568    1.387   .     S
C27    H576    1.083   .     S
C28    H35     1.076   .     S
C28    C542    1.411   1_554 S
C28    C567    1.387   1_554 S
H34    C564    1.081   .     S
H36    C567    1.083   1_554 S
N39    Zn49    2.015   .     S
N40    Zn50    2.014   .     S
O41    Zn49    1.999   .     S
O42    Zn50    1.997   .     S
O43    Zn49    1.977   .     S
O44    Zn50    1.946   .     S
O45    Zn49    1.997   .     S
O46    Zn50    1.999   .     S
O47    Zn49    1.946   .     S
O48    Zn50    1.977   .     S
N55    H56     1.046   .     S
N55    H57     1.038   .     S
N58    H60     1.045   .     S
N58    H59     1.043   .     S
C61    C77     1.415   .     S
C61    O102    1.285   .     A
C61    O101    1.283   .     A
C62    C63     1.412   .     A
C62    C604    1.420   .     S
C62    C628    1.411   .     S
C63    C70     1.432   .     A
C63    C67     1.420   .     A
C64    C68     1.392   .     A
C64    C602    1.420   1_554 S
C64    C605    1.412   1_554 S
C65    C66     1.385   .     A
C65    C604    1.412   .     S
C65    C624    1.397   .     S
C66    C67     1.384   .     A
C66    H93     1.083   .     S
C67    H97     1.076   .     S
C68    C85     1.410   .     A
C68    N115    1.438   .     S
C69    C84     1.391   .     A
C69    Cl111   1.764   .     S
C69    C85     1.413   .     A
C70    C86     1.420   .     A
C70    C72     1.488   .     S
C71    H98     1.080   .     S
C71    C77     1.392   .     A
C71    C253    1.370   .     S
C72    O104    1.292   .     A
C72    O103    1.308   .     A
C73    Cl112   1.764   .     S
C73    C74     1.408   .     A
C73    C431    1.370   1_545 S
C74    C82     1.420   .     S
C74    C75     1.399   .     A
C75    H89     1.084   .     S
C75    C436    1.372   1_545 S
C76    C77     1.393   .     A
C76    H90     1.084   .     S
C76    C255    1.372   .     S
C78    N100    1.365   .     A
C78    H91     1.082   .     S
C78    C139    1.416   .     S
C79    N99     1.367   .     A
C79    H92     1.077   .     S
C80    N99     1.368   .     A
C80    Cl113   1.759   .     S
C81    N100    1.372   .     A
C81    Cl114   1.757   .     S
C81    C140    1.419   .     S
C82    O105    1.287   .     A
C82    O106    1.283   .     A
C83    O108    1.291   .     A
C83    C85     1.455   .     S
C83    O107    1.295   .     A
C84    C605    1.397   1_554 S
C84    H634    1.081   1_554 S
C86    N118    1.431   .     S
C86    C87     1.390   .     A
C87    C628    1.387   .     S
C87    H636    1.083   .     S
C88    H95     1.076   .     S
C88    C602    1.411   1_554 S
C88    C627    1.387   1_554 S
H94    C624    1.081   .     S
H96    C627    1.083   1_554 S
N99    Zn109   2.015   .     S
N100   Zn110   2.014   .     S
O101   Zn109   1.999   .     S
O102   Zn110   1.997   .     S
O103   Zn109   1.977   .     S
O104   Zn110   1.946   .     S
O105   Zn109   1.997   .     S
O106   Zn110   1.999   .     S
O107   Zn109   1.946   .     S
O108   Zn110   1.977   .     S
N115   H116    1.046   .     S
N115   H117    1.038   .     S
N118   H120    1.045   .     S
N118   H119    1.043   .     S
C121   C137    1.415   .     S
C121   O162    1.285   .     A
C121   O161    1.283   .     A
C122   C123    1.412   .     A
C122   C664    1.420   .     S
C122   C688    1.411   .     S
C123   C130    1.432   .     A
C123   C127    1.420   .     A
C124   C128    1.392   .     A
C124   C662    1.420   1_554 S
C124   C665    1.412   1_554 S
C125   C126    1.385   .     A
C125   C664    1.412   .     S
C125   C684    1.397   .     S
C126   C127    1.384   .     A
C126   H153    1.083   .     S
C127   H157    1.076   .     S
C128   C145    1.410   .     A
C128   N175    1.438   .     S
C129   C144    1.391   .     A
C129   Cl171   1.764   .     S
C129   C145    1.413   .     A
C130   C146    1.420   .     A
C130   C132    1.488   .     S
C131   H158    1.080   .     S
C131   C137    1.392   .     A
C131   C313    1.370   .     S
C132   O164    1.292   .     A
C132   O163    1.308   .     A
C133   Cl172   1.764   .     S
C133   C134    1.408   .     A
C133   C491    1.370   1_545 S
C134   C142    1.420   .     S
C134   C135    1.399   .     A
C135   H149    1.084   .     S
C135   C496    1.372   1_545 S
C136   C137    1.393   .     A
C136   H150    1.084   .     S
C136   C315    1.372   .     S
C138   N160    1.365   .     A
C138   H151    1.082   .     S
C138   C19     1.416   1_655 S
C139   N159    1.367   .     A
C139   H152    1.077   .     S
C140   N159    1.368   .     A
C140   Cl173   1.759   .     S
C141   N160    1.372   .     A
C141   Cl174   1.757   .     S
C141   C20     1.419   1_655 S
C142   O165    1.287   .     A
C142   O166    1.283   .     A
C143   O168    1.291   .     A
C143   C145    1.455   .     S
C143   O167    1.295   .     A
C144   C665    1.397   1_554 S
C144   H694    1.081   1_554 S
C146   N178    1.431   .     S
C146   C147    1.390   .     A
C147   C688    1.387   .     S
C147   H696    1.083   .     S
C148   H155    1.076   .     S
C148   C662    1.411   1_554 S
C148   C687    1.387   1_554 S
H154   C684    1.081   .     S
H156   C687    1.083   1_554 S
N159   Zn169   2.015   .     S
N160   Zn170   2.014   .     S
O161   Zn169   1.999   .     S
O162   Zn170   1.997   .     S
O163   Zn169   1.977   .     S
O164   Zn170   1.946   .     S
O165   Zn169   1.997   .     S
O166   Zn170   1.999   .     S
O167   Zn169   1.946   .     S
O168   Zn170   1.977   .     S
N175   H176    1.046   .     S
N175   H177    1.038   .     S
N178   H180    1.045   .     S
N178   H179    1.043   .     S
C181   C197    1.415   .     S
C181   O222    1.285   .     A
C181   O221    1.283   .     A
C182   C183    1.412   .     A
C182   C724    1.420   .     S
C182   C748    1.411   .     S
C183   C190    1.432   .     A
C183   C187    1.420   .     A
C184   C188    1.392   .     A
C184   C722    1.420   1_554 S
C184   C725    1.412   1_554 S
C185   C186    1.385   .     A
C185   C724    1.412   .     S
C185   C744    1.397   .     S
C186   C187    1.384   .     A
C186   H213    1.083   .     S
C187   H217    1.076   .     S
C188   C205    1.410   .     A
C188   N235    1.438   .     S
C189   C204    1.391   .     A
C189   Cl231   1.764   .     S
C189   C205    1.413   .     A
C190   C206    1.420   .     A
C190   C192    1.488   .     S
C191   H218    1.080   .     S
C191   C197    1.392   .     A
C191   C373    1.370   .     S
C192   O224    1.292   .     A
C192   O223    1.308   .     A
C193   Cl232   1.764   .     S
C193   C194    1.408   .     A
C194   C202    1.420   .     S
C194   C195    1.399   .     A
C195   H209    1.084   .     S
C196   C197    1.393   .     A
C196   H210    1.084   .     S
C196   C375    1.372   .     S
C198   N220    1.365   .     A
C198   H211    1.082   .     S
C198   C259    1.416   .     S
C199   N219    1.367   .     A
C199   H212    1.077   .     S
C199   C318    1.416   1_455 S
C200   N219    1.368   .     A
C200   Cl233   1.759   .     S
C200   C321    1.419   1_455 S
C201   N220    1.372   .     A
C201   Cl234   1.757   .     S
C201   C260    1.419   .     S
C202   O225    1.287   .     A
C202   O226    1.283   .     A
C203   O228    1.291   .     A
C203   C205    1.455   .     S
C203   O227    1.295   .     A
C204   C725    1.397   1_554 S
C204   H754    1.081   1_554 S
C206   N238    1.431   .     S
C206   C207    1.390   .     A
C207   C748    1.387   .     S
C207   H756    1.083   .     S
C208   H215    1.076   .     S
C208   C722    1.411   1_554 S
C208   C747    1.387   1_554 S
H214   C744    1.081   .     S
H216   C747    1.083   1_554 S
N219   Zn229   2.015   .     S
N220   Zn230   2.014   .     S
O221   Zn229   1.999   .     S
O222   Zn230   1.997   .     S
O223   Zn229   1.977   .     S
O224   Zn230   1.946   .     S
O225   Zn229   1.997   .     S
O226   Zn230   1.999   .     S
O227   Zn229   1.946   .     S
O228   Zn230   1.977   .     S
N235   H236    1.046   .     S
N235   H237    1.038   .     S
N238   H240    1.045   .     S
N238   H239    1.043   .     S
C241   C257    1.415   .     S
C241   O282    1.285   .     A
C241   O281    1.283   .     A
C242   C243    1.412   .     A
C242   C784    1.420   .     S
C242   C808    1.411   .     S
C243   C250    1.432   .     A
C243   C247    1.420   .     A
C244   C248    1.392   .     A
C244   C782    1.420   1_554 S
C244   C785    1.412   1_554 S
C245   C246    1.385   .     A
C245   C784    1.412   .     S
C245   C804    1.397   .     S
C246   C247    1.384   .     A
C246   H273    1.083   .     S
C247   H277    1.076   .     S
C248   C265    1.410   .     A
C248   N295    1.438   .     S
C249   C264    1.391   .     A
C249   Cl291   1.764   .     S
C249   C265    1.413   .     A
C250   C266    1.420   .     A
C250   C252    1.488   .     S
C251   H278    1.080   .     S
C251   C257    1.392   .     A
C251   C433    1.370   .     S
C252   O284    1.292   .     A
C252   O283    1.308   .     A
C253   Cl292   1.764   .     S
C253   C254    1.408   .     A
C254   C262    1.420   .     S
C254   C255    1.399   .     A
C255   H269    1.084   .     S
C256   C257    1.393   .     A
C256   H270    1.084   .     S
C256   C435    1.372   .     S
C258   N280    1.365   .     A
C258   H271    1.082   .     S
C258   C319    1.416   .     S
C259   N279    1.367   .     A
C259   H272    1.077   .     S
C260   N279    1.368   .     A
C260   Cl293   1.759   .     S
C261   N280    1.372   .     A
C261   Cl294   1.757   .     S
C261   C320    1.419   .     S
C262   O285    1.287   .     A
C262   O286    1.283   .     A
C263   O288    1.291   .     A
C263   C265    1.455   .     S
C263   O287    1.295   .     A
C264   C785    1.397   1_554 S
C264   H814    1.081   1_554 S
C266   N298    1.431   .     S
C266   C267    1.390   .     A
C267   C808    1.387   .     S
C267   H816    1.083   .     S
C268   H275    1.076   .     S
C268   C782    1.411   1_554 S
C268   C807    1.387   1_554 S
H274   C804    1.081   .     S
H276   C807    1.083   1_554 S
N279   Zn289   2.015   .     S
N280   Zn290   2.014   .     S
O281   Zn289   1.999   .     S
O282   Zn290   1.997   .     S
O283   Zn289   1.977   .     S
O284   Zn290   1.946   .     S
O285   Zn289   1.997   .     S
O286   Zn290   1.999   .     S
O287   Zn289   1.946   .     S
O288   Zn290   1.977   .     S
N295   H296    1.046   .     S
N295   H297    1.038   .     S
N298   H300    1.045   .     S
N298   H299    1.043   .     S
C301   C317    1.415   .     S
C301   O342    1.285   .     A
C301   O341    1.283   .     A
C302   C303    1.412   .     A
C302   C844    1.420   .     S
C302   C868    1.411   .     S
C303   C310    1.432   .     A
C303   C307    1.420   .     A
C304   C308    1.392   .     A
C304   C842    1.420   1_554 S
C304   C845    1.412   1_554 S
C305   C306    1.385   .     A
C305   C844    1.412   .     S
C305   C864    1.397   .     S
C306   C307    1.384   .     A
C306   H333    1.083   .     S
C307   H337    1.076   .     S
C308   C325    1.410   .     A
C308   N355    1.438   .     S
C309   C324    1.391   .     A
C309   Cl351   1.764   .     S
C309   C325    1.413   .     A
C310   C326    1.420   .     A
C310   C312    1.488   .     S
C311   H338    1.080   .     S
C311   C317    1.392   .     A
C311   C493    1.370   .     S
C312   O344    1.292   .     A
C312   O343    1.308   .     A
C313   Cl352   1.764   .     S
C313   C314    1.408   .     A
C314   C322    1.420   .     S
C314   C315    1.399   .     A
C315   H329    1.084   .     S
C316   C317    1.393   .     A
C316   H330    1.084   .     S
C316   C495    1.372   .     S
C318   N340    1.365   .     A
C318   H331    1.082   .     S
C318   C199    1.416   1_655 S
C319   N339    1.367   .     A
C319   H332    1.077   .     S
C320   N339    1.368   .     A
C320   Cl353   1.759   .     S
C321   N340    1.372   .     A
C321   Cl354   1.757   .     S
C321   C200    1.419   1_655 S
C322   O345    1.287   .     A
C322   O346    1.283   .     A
C323   O348    1.291   .     A
C323   C325    1.455   .     S
C323   O347    1.295   .     A
C324   C845    1.397   1_554 S
C324   H874    1.081   1_554 S
C326   N358    1.431   .     S
C326   C327    1.390   .     A
C327   C868    1.387   .     S
C327   H876    1.083   .     S
C328   H335    1.076   .     S
C328   C842    1.411   1_554 S
C328   C867    1.387   1_554 S
H334   C864    1.081   .     S
H336   C867    1.083   1_554 S
N339   Zn349   2.015   .     S
N340   Zn350   2.014   .     S
O341   Zn349   1.999   .     S
O342   Zn350   1.997   .     S
O343   Zn349   1.977   .     S
O344   Zn350   1.946   .     S
O345   Zn349   1.997   .     S
O346   Zn350   1.999   .     S
O347   Zn349   1.946   .     S
O348   Zn350   1.977   .     S
N355   H356    1.046   .     S
N355   H357    1.038   .     S
N358   H360    1.045   .     S
N358   H359    1.043   .     S
C361   C377    1.415   .     S
C361   O402    1.285   .     A
C361   O401    1.283   .     A
C362   C363    1.412   .     A
C362   C904    1.420   .     S
C362   C928    1.411   .     S
C363   C370    1.432   .     A
C363   C367    1.420   .     A
C364   C368    1.392   .     A
C364   C902    1.420   1_554 S
C364   C905    1.412   1_554 S
C365   C366    1.385   .     A
C365   C904    1.412   .     S
C365   C924    1.397   .     S
C366   C367    1.384   .     A
C366   H393    1.083   .     S
C367   H397    1.076   .     S
C368   C385    1.410   .     A
C368   N415    1.438   .     S
C369   C384    1.391   .     A
C369   Cl411   1.764   .     S
C369   C385    1.413   .     A
C370   C386    1.420   .     A
C370   C372    1.488   .     S
C371   H398    1.080   .     S
C371   C377    1.392   .     A
C371   C13     1.370   1_565 S
C372   O404    1.292   .     A
C372   O403    1.308   .     A
C373   Cl412   1.764   .     S
C373   C374    1.408   .     A
C374   C382    1.420   .     S
C374   C375    1.399   .     A
C375   H389    1.084   .     S
C376   C377    1.393   .     A
C376   H390    1.084   .     S
C376   C15     1.372   1_565 S
C378   N400    1.365   .     A
C378   H391    1.082   .     S
C378   C439    1.416   .     S
C379   N399    1.367   .     A
C379   H392    1.077   .     S
C379   C498    1.416   1_455 S
C380   N399    1.368   .     A
C380   Cl413   1.759   .     S
C380   C501    1.419   1_455 S
C381   N400    1.372   .     A
C381   Cl414   1.757   .     S
C381   C440    1.419   .     S
C382   O405    1.287   .     A
C382   O406    1.283   .     A
C383   O408    1.291   .     A
C383   C385    1.455   .     S
C383   O407    1.295   .     A
C384   C905    1.397   1_554 S
C384   H934    1.081   1_554 S
C386   N418    1.431   .     S
C386   C387    1.390   .     A
C387   C928    1.387   .     S
C387   H936    1.083   .     S
C388   H395    1.076   .     S
C388   C902    1.411   1_554 S
C388   C927    1.387   1_554 S
H394   C924    1.081   .     S
H396   C927    1.083   1_554 S
N399   Zn409   2.015   .     S
N400   Zn410   2.014   .     S
O401   Zn409   1.999   .     S
O402   Zn410   1.997   .     S
O403   Zn409   1.977   .     S
O404   Zn410   1.946   .     S
O405   Zn409   1.997   .     S
O406   Zn410   1.999   .     S
O407   Zn409   1.946   .     S
O408   Zn410   1.977   .     S
N415   H416    1.046   .     S
N415   H417    1.038   .     S
N418   H420    1.045   .     S
N418   H419    1.043   .     S
C421   C437    1.415   .     S
C421   O462    1.285   .     A
C421   O461    1.283   .     A
C422   C423    1.412   .     A
C422   C964    1.420   .     S
C422   C988    1.411   .     S
C423   C430    1.432   .     A
C423   C427    1.420   .     A
C424   C428    1.392   .     A
C424   C962    1.420   1_554 S
C424   C965    1.412   1_554 S
C425   C426    1.385   .     A
C425   C964    1.412   .     S
C425   C984    1.397   .     S
C426   C427    1.384   .     A
C426   H453    1.083   .     S
C427   H457    1.076   .     S
C428   C445    1.410   .     A
C428   N475    1.438   .     S
C429   C444    1.391   .     A
C429   Cl471   1.764   .     S
C429   C445    1.413   .     A
C430   C446    1.420   .     A
C430   C432    1.488   .     S
C431   H458    1.080   .     S
C431   C437    1.392   .     A
C431   C73     1.370   1_565 S
C432   O464    1.292   .     A
C432   O463    1.308   .     A
C433   Cl472   1.764   .     S
C433   C434    1.408   .     A
C434   C442    1.420   .     S
C434   C435    1.399   .     A
C435   H449    1.084   .     S
C436   C437    1.393   .     A
C436   H450    1.084   .     S
C436   C75     1.372   1_565 S
C438   N460    1.365   .     A
C438   H451    1.082   .     S
C438   C499    1.416   .     S
C439   N459    1.367   .     A
C439   H452    1.077   .     S
C440   N459    1.368   .     A
C440   Cl473   1.759   .     S
C441   N460    1.372   .     A
C441   Cl474   1.757   .     S
C441   C500    1.419   .     S
C442   O465    1.287   .     A
C442   O466    1.283   .     A
C443   O468    1.291   .     A
C443   C445    1.455   .     S
C443   O467    1.295   .     A
C444   C965    1.397   1_554 S
C444   H994    1.081   1_554 S
C446   N478    1.431   .     S
C446   C447    1.390   .     A
C447   C988    1.387   .     S
C447   H996    1.083   .     S
C448   H455    1.076   .     S
C448   C962    1.411   1_554 S
C448   C987    1.387   1_554 S
H454   C984    1.081   .     S
H456   C987    1.083   1_554 S
N459   Zn469   2.015   .     S
N460   Zn470   2.014   .     S
O461   Zn469   1.999   .     S
O462   Zn470   1.997   .     S
O463   Zn469   1.977   .     S
O464   Zn470   1.946   .     S
O465   Zn469   1.997   .     S
O466   Zn470   1.999   .     S
O467   Zn469   1.946   .     S
O468   Zn470   1.977   .     S
N475   H476    1.046   .     S
N475   H477    1.038   .     S
N478   H480    1.045   .     S
N478   H479    1.043   .     S
C481   C497    1.415   .     S
C481   O522    1.285   .     A
C481   O521    1.283   .     A
C482   C483    1.412   .     A
C482   C1024   1.420   .     S
C482   C1048   1.411   .     S
C483   C490    1.432   .     A
C483   C487    1.420   .     A
C484   C488    1.392   .     A
C484   C1022   1.420   1_554 S
C484   C1025   1.412   1_554 S
C485   C486    1.385   .     A
C485   C1024   1.412   .     S
C485   C1044   1.397   .     S
C486   C487    1.384   .     A
C486   H513    1.083   .     S
C487   H517    1.076   .     S
C488   C505    1.410   .     A
C488   N535    1.438   .     S
C489   C504    1.391   .     A
C489   Cl531   1.764   .     S
C489   C505    1.413   .     A
C490   C506    1.420   .     A
C490   C492    1.488   .     S
C491   H518    1.080   .     S
C491   C497    1.392   .     A
C491   C133    1.370   1_565 S
C492   O524    1.292   .     A
C492   O523    1.308   .     A
C493   Cl532   1.764   .     S
C493   C494    1.408   .     A
C494   C502    1.420   .     S
C494   C495    1.399   .     A
C495   H509    1.084   .     S
C496   C497    1.393   .     A
C496   H510    1.084   .     S
C496   C135    1.372   1_565 S
C498   N520    1.365   .     A
C498   H511    1.082   .     S
C498   C379    1.416   1_655 S
C499   N519    1.367   .     A
C499   H512    1.077   .     S
C500   N519    1.368   .     A
C500   Cl533   1.759   .     S
C501   N520    1.372   .     A
C501   Cl534   1.757   .     S
C501   C380    1.419   1_655 S
C502   O525    1.287   .     A
C502   O526    1.283   .     A
C503   O528    1.291   .     A
C503   C505    1.455   .     S
C503   O527    1.295   .     A
C504   C1025   1.397   1_554 S
C504   H1054   1.081   1_554 S
C506   N538    1.431   .     S
C506   C507    1.390   .     A
C507   C1048   1.387   .     S
C507   H1056   1.083   .     S
C508   H515    1.076   .     S
C508   C1022   1.411   1_554 S
C508   C1047   1.387   1_554 S
H514   C1044   1.081   .     S
H516   C1047   1.083   1_554 S
N519   Zn529   2.015   .     S
N520   Zn530   2.014   .     S
O521   Zn529   1.999   .     S
O522   Zn530   1.997   .     S
O523   Zn529   1.977   .     S
O524   Zn530   1.946   .     S
O525   Zn529   1.997   .     S
O526   Zn530   1.999   .     S
O527   Zn529   1.946   .     S
O528   Zn530   1.977   .     S
N535   H536    1.046   .     S
N535   H537    1.038   .     S
N538   H540    1.045   .     S
N538   H539    1.043   .     S
C541   C557    1.415   .     S
C541   O582    1.285   .     A
C541   O581    1.283   .     A
C542   C543    1.412   .     A
C542   C4      1.420   1_556 S
C542   C28     1.411   1_556 S
C543   C550    1.432   .     A
C543   C547    1.420   .     A
C544   C548    1.392   .     A
C545   C546    1.385   .     A
C545   C4      1.412   1_556 S
C545   C24     1.397   1_556 S
C546   C547    1.384   .     A
C546   H573    1.083   .     S
C547   H577    1.076   .     S
C548   C565    1.410   .     A
C548   N595    1.438   .     S
C549   C564    1.391   .     A
C549   Cl591   1.764   .     S
C549   C565    1.413   .     A
C550   C566    1.420   .     A
C550   C552    1.488   .     S
C551   H578    1.080   .     S
C551   C557    1.392   .     A
C551   C733    1.370   .     S
C552   O584    1.292   .     A
C552   O583    1.308   .     A
C553   Cl592   1.764   .     S
C553   C554    1.408   .     A
C553   C911    1.370   1_545 S
C554   C562    1.420   .     S
C554   C555    1.399   .     A
C555   H569    1.084   .     S
C555   C916    1.372   1_545 S
C556   C557    1.393   .     A
C556   H570    1.084   .     S
C556   C735    1.372   .     S
C558   N580    1.365   .     A
C558   H571    1.082   .     S
C558   C619    1.416   .     S
C559   N579    1.367   .     A
C559   H572    1.077   .     S
C559   C678    1.416   1_455 S
C560   N579    1.368   .     A
C560   Cl593   1.759   .     S
C560   C681    1.419   1_455 S
C561   N580    1.372   .     A
C561   Cl594   1.757   .     S
C561   C620    1.419   .     S
C562   O585    1.287   .     A
C562   O586    1.283   .     A
C563   O588    1.291   .     A
C563   C565    1.455   .     S
C563   O587    1.295   .     A
C566   N598    1.431   .     S
C566   C567    1.390   .     A
C567   C28     1.387   1_556 S
C567   H36     1.083   1_556 S
C568   H575    1.076   .     S
H574   C24     1.081   1_556 S
N579   Zn589   2.015   .     S
N580   Zn590   2.014   .     S
O581   Zn589   1.999   .     S
O582   Zn590   1.997   .     S
O583   Zn589   1.977   .     S
O584   Zn590   1.946   .     S
O585   Zn589   1.997   .     S
O586   Zn590   1.999   .     S
O587   Zn589   1.946   .     S
O588   Zn590   1.977   .     S
N595   H596    1.046   .     S
N595   H597    1.038   .     S
N598   H600    1.045   .     S
N598   H599    1.043   .     S
C601   C617    1.415   .     S
C601   O642    1.285   .     A
C601   O641    1.283   .     A
C602   C603    1.412   .     A
C602   C64     1.420   1_556 S
C602   C88     1.411   1_556 S
C603   C610    1.432   .     A
C603   C607    1.420   .     A
C604   C608    1.392   .     A
C605   C606    1.385   .     A
C605   C64     1.412   1_556 S
C605   C84     1.397   1_556 S
C606   C607    1.384   .     A
C606   H633    1.083   .     S
C607   H637    1.076   .     S
C608   C625    1.410   .     A
C608   N655    1.438   .     S
C609   C624    1.391   .     A
C609   Cl651   1.764   .     S
C609   C625    1.413   .     A
C610   C626    1.420   .     A
C610   C612    1.488   .     S
C611   H638    1.080   .     S
C611   C617    1.392   .     A
C611   C793    1.370   .     S
C612   O644    1.292   .     A
C612   O643    1.308   .     A
C613   Cl652   1.764   .     S
C613   C614    1.408   .     A
C613   C971    1.370   1_545 S
C614   C622    1.420   .     S
C614   C615    1.399   .     A
C615   H629    1.084   .     S
C615   C976    1.372   1_545 S
C616   C617    1.393   .     A
C616   H630    1.084   .     S
C616   C795    1.372   .     S
C618   N640    1.365   .     A
C618   H631    1.082   .     S
C618   C679    1.416   .     S
C619   N639    1.367   .     A
C619   H632    1.077   .     S
C620   N639    1.368   .     A
C620   Cl653   1.759   .     S
C621   N640    1.372   .     A
C621   Cl654   1.757   .     S
C621   C680    1.419   .     S
C622   O645    1.287   .     A
C622   O646    1.283   .     A
C623   O648    1.291   .     A
C623   C625    1.455   .     S
C623   O647    1.295   .     A
C626   N658    1.431   .     S
C626   C627    1.390   .     A
C627   C88     1.387   1_556 S
C627   H96     1.083   1_556 S
C628   H635    1.076   .     S
H634   C84     1.081   1_556 S
N639   Zn649   2.015   .     S
N640   Zn650   2.014   .     S
O641   Zn649   1.999   .     S
O642   Zn650   1.997   .     S
O643   Zn649   1.977   .     S
O644   Zn650   1.946   .     S
O645   Zn649   1.997   .     S
O646   Zn650   1.999   .     S
O647   Zn649   1.946   .     S
O648   Zn650   1.977   .     S
N655   H656    1.046   .     S
N655   H657    1.038   .     S
N658   H660    1.045   .     S
N658   H659    1.043   .     S
C661   C677    1.415   .     S
C661   O702    1.285   .     A
C661   O701    1.283   .     A
C662   C663    1.412   .     A
C662   C124    1.420   1_556 S
C662   C148    1.411   1_556 S
C663   C670    1.432   .     A
C663   C667    1.420   .     A
C664   C668    1.392   .     A
C665   C666    1.385   .     A
C665   C124    1.412   1_556 S
C665   C144    1.397   1_556 S
C666   C667    1.384   .     A
C666   H693    1.083   .     S
C667   H697    1.076   .     S
C668   C685    1.410   .     A
C668   N715    1.438   .     S
C669   C684    1.391   .     A
C669   Cl711   1.764   .     S
C669   C685    1.413   .     A
C670   C686    1.420   .     A
C670   C672    1.488   .     S
C671   H698    1.080   .     S
C671   C677    1.392   .     A
C671   C853    1.370   .     S
C672   O704    1.292   .     A
C672   O703    1.308   .     A
C673   Cl712   1.764   .     S
C673   C674    1.408   .     A
C673   C1031   1.370   1_545 S
C674   C682    1.420   .     S
C674   C675    1.399   .     A
C675   H689    1.084   .     S
C675   C1036   1.372   1_545 S
C676   C677    1.393   .     A
C676   H690    1.084   .     S
C676   C855    1.372   .     S
C678   N700    1.365   .     A
C678   H691    1.082   .     S
C678   C559    1.416   1_655 S
C679   N699    1.367   .     A
C679   H692    1.077   .     S
C680   N699    1.368   .     A
C680   Cl713   1.759   .     S
C681   N700    1.372   .     A
C681   Cl714   1.757   .     S
C681   C560    1.419   1_655 S
C682   O705    1.287   .     A
C682   O706    1.283   .     A
C683   O708    1.291   .     A
C683   C685    1.455   .     S
C683   O707    1.295   .     A
C686   N718    1.431   .     S
C686   C687    1.390   .     A
C687   C148    1.387   1_556 S
C687   H156    1.083   1_556 S
C688   H695    1.076   .     S
H694   C144    1.081   1_556 S
N699   Zn709   2.015   .     S
N700   Zn710   2.014   .     S
O701   Zn709   1.999   .     S
O702   Zn710   1.997   .     S
O703   Zn709   1.977   .     S
O704   Zn710   1.946   .     S
O705   Zn709   1.997   .     S
O706   Zn710   1.999   .     S
O707   Zn709   1.946   .     S
O708   Zn710   1.977   .     S
N715   H716    1.046   .     S
N715   H717    1.038   .     S
N718   H720    1.045   .     S
N718   H719    1.043   .     S
C721   C737    1.415   .     S
C721   O762    1.285   .     A
C721   O761    1.283   .     A
C722   C723    1.412   .     A
C722   C184    1.420   1_556 S
C722   C208    1.411   1_556 S
C723   C730    1.432   .     A
C723   C727    1.420   .     A
C724   C728    1.392   .     A
C725   C726    1.385   .     A
C725   C184    1.412   1_556 S
C725   C204    1.397   1_556 S
C726   C727    1.384   .     A
C726   H753    1.083   .     S
C727   H757    1.076   .     S
C728   C745    1.410   .     A
C728   N775    1.438   .     S
C729   C744    1.391   .     A
C729   Cl771   1.764   .     S
C729   C745    1.413   .     A
C730   C746    1.420   .     A
C730   C732    1.488   .     S
C731   H758    1.080   .     S
C731   C737    1.392   .     A
C731   C913    1.370   .     S
C732   O764    1.292   .     A
C732   O763    1.308   .     A
C733   Cl772   1.764   .     S
C733   C734    1.408   .     A
C734   C742    1.420   .     S
C734   C735    1.399   .     A
C735   H749    1.084   .     S
C736   C737    1.393   .     A
C736   H750    1.084   .     S
C736   C915    1.372   .     S
C738   N760    1.365   .     A
C738   H751    1.082   .     S
C738   C799    1.416   .     S
C739   N759    1.367   .     A
C739   H752    1.077   .     S
C739   C858    1.416   1_455 S
C740   N759    1.368   .     A
C740   Cl773   1.759   .     S
C740   C861    1.419   1_455 S
C741   N760    1.372   .     A
C741   Cl774   1.757   .     S
C741   C800    1.419   .     S
C742   O765    1.287   .     A
C742   O766    1.283   .     A
C743   O768    1.291   .     A
C743   C745    1.455   .     S
C743   O767    1.295   .     A
C746   N778    1.431   .     S
C746   C747    1.390   .     A
C747   C208    1.387   1_556 S
C747   H216    1.083   1_556 S
C748   H755    1.076   .     S
H754   C204    1.081   1_556 S
N759   Zn769   2.015   .     S
N760   Zn770   2.014   .     S
O761   Zn769   1.999   .     S
O762   Zn770   1.997   .     S
O763   Zn769   1.977   .     S
O764   Zn770   1.946   .     S
O765   Zn769   1.997   .     S
O766   Zn770   1.999   .     S
O767   Zn769   1.946   .     S
O768   Zn770   1.977   .     S
N775   H776    1.046   .     S
N775   H777    1.038   .     S
N778   H780    1.045   .     S
N778   H779    1.043   .     S
C781   C797    1.415   .     S
C781   O822    1.285   .     A
C781   O821    1.283   .     A
C782   C783    1.412   .     A
C782   C244    1.420   1_556 S
C782   C268    1.411   1_556 S
C783   C790    1.432   .     A
C783   C787    1.420   .     A
C784   C788    1.392   .     A
C785   C786    1.385   .     A
C785   C244    1.412   1_556 S
C785   C264    1.397   1_556 S
C786   C787    1.384   .     A
C786   H813    1.083   .     S
C787   H817    1.076   .     S
C788   C805    1.410   .     A
C788   N835    1.438   .     S
C789   C804    1.391   .     A
C789   Cl831   1.764   .     S
C789   C805    1.413   .     A
C790   C806    1.420   .     A
C790   C792    1.488   .     S
C791   H818    1.080   .     S
C791   C797    1.392   .     A
C791   C973    1.370   .     S
C792   O824    1.292   .     A
C792   O823    1.308   .     A
C793   Cl832   1.764   .     S
C793   C794    1.408   .     A
C794   C802    1.420   .     S
C794   C795    1.399   .     A
C795   H809    1.084   .     S
C796   C797    1.393   .     A
C796   H810    1.084   .     S
C796   C975    1.372   .     S
C798   N820    1.365   .     A
C798   H811    1.082   .     S
C798   C859    1.416   .     S
C799   N819    1.367   .     A
C799   H812    1.077   .     S
C800   N819    1.368   .     A
C800   Cl833   1.759   .     S
C801   N820    1.372   .     A
C801   Cl834   1.757   .     S
C801   C860    1.419   .     S
C802   O825    1.287   .     A
C802   O826    1.283   .     A
C803   O828    1.291   .     A
C803   C805    1.455   .     S
C803   O827    1.295   .     A
C806   N838    1.431   .     S
C806   C807    1.390   .     A
C807   C268    1.387   1_556 S
C807   H276    1.083   1_556 S
C808   H815    1.076   .     S
H814   C264    1.081   1_556 S
N819   Zn829   2.015   .     S
N820   Zn830   2.014   .     S
O821   Zn829   1.999   .     S
O822   Zn830   1.997   .     S
O823   Zn829   1.977   .     S
O824   Zn830   1.946   .     S
O825   Zn829   1.997   .     S
O826   Zn830   1.999   .     S
O827   Zn829   1.946   .     S
O828   Zn830   1.977   .     S
N835   H836    1.046   .     S
N835   H837    1.038   .     S
N838   H840    1.045   .     S
N838   H839    1.043   .     S
C841   C857    1.415   .     S
C841   O882    1.285   .     A
C841   O881    1.283   .     A
C842   C843    1.412   .     A
C842   C304    1.420   1_556 S
C842   C328    1.411   1_556 S
C843   C850    1.432   .     A
C843   C847    1.420   .     A
C844   C848    1.392   .     A
C845   C846    1.385   .     A
C845   C304    1.412   1_556 S
C845   C324    1.397   1_556 S
C846   C847    1.384   .     A
C846   H873    1.083   .     S
C847   H877    1.076   .     S
C848   C865    1.410   .     A
C848   N895    1.438   .     S
C849   C864    1.391   .     A
C849   Cl891   1.764   .     S
C849   C865    1.413   .     A
C850   C866    1.420   .     A
C850   C852    1.488   .     S
C851   H878    1.080   .     S
C851   C857    1.392   .     A
C851   C1033   1.370   .     S
C852   O884    1.292   .     A
C852   O883    1.308   .     A
C853   Cl892   1.764   .     S
C853   C854    1.408   .     A
C854   C862    1.420   .     S
C854   C855    1.399   .     A
C855   H869    1.084   .     S
C856   C857    1.393   .     A
C856   H870    1.084   .     S
C856   C1035   1.372   .     S
C858   N880    1.365   .     A
C858   H871    1.082   .     S
C858   C739    1.416   1_655 S
C859   N879    1.367   .     A
C859   H872    1.077   .     S
C860   N879    1.368   .     A
C860   Cl893   1.759   .     S
C861   N880    1.372   .     A
C861   Cl894   1.757   .     S
C861   C740    1.419   1_655 S
C862   O885    1.287   .     A
C862   O886    1.283   .     A
C863   O888    1.291   .     A
C863   C865    1.455   .     S
C863   O887    1.295   .     A
C866   N898    1.431   .     S
C866   C867    1.390   .     A
C867   C328    1.387   1_556 S
C867   H336    1.083   1_556 S
C868   H875    1.076   .     S
H874   C324    1.081   1_556 S
N879   Zn889   2.015   .     S
N880   Zn890   2.014   .     S
O881   Zn889   1.999   .     S
O882   Zn890   1.997   .     S
O883   Zn889   1.977   .     S
O884   Zn890   1.946   .     S
O885   Zn889   1.997   .     S
O886   Zn890   1.999   .     S
O887   Zn889   1.946   .     S
O888   Zn890   1.977   .     S
N895   H896    1.046   .     S
N895   H897    1.038   .     S
N898   H900    1.045   .     S
N898   H899    1.043   .     S
C901   C917    1.415   .     S
C901   O942    1.285   .     A
C901   O941    1.283   .     A
C902   C903    1.412   .     A
C902   C364    1.420   1_556 S
C902   C388    1.411   1_556 S
C903   C910    1.432   .     A
C903   C907    1.420   .     A
C904   C908    1.392   .     A
C905   C906    1.385   .     A
C905   C364    1.412   1_556 S
C905   C384    1.397   1_556 S
C906   C907    1.384   .     A
C906   H933    1.083   .     S
C907   H937    1.076   .     S
C908   C925    1.410   .     A
C908   N955    1.438   .     S
C909   C924    1.391   .     A
C909   Cl951   1.764   .     S
C909   C925    1.413   .     A
C910   C926    1.420   .     A
C910   C912    1.488   .     S
C911   H938    1.080   .     S
C911   C917    1.392   .     A
C911   C553    1.370   1_565 S
C912   O944    1.292   .     A
C912   O943    1.308   .     A
C913   Cl952   1.764   .     S
C913   C914    1.408   .     A
C914   C922    1.420   .     S
C914   C915    1.399   .     A
C915   H929    1.084   .     S
C916   C917    1.393   .     A
C916   H930    1.084   .     S
C916   C555    1.372   1_565 S
C918   N940    1.365   .     A
C918   H931    1.082   .     S
C918   C979    1.416   .     S
C919   N939    1.367   .     A
C919   H932    1.077   .     S
C919   C1038   1.416   1_455 S
C920   N939    1.368   .     A
C920   Cl953   1.759   .     S
C920   C1041   1.419   1_455 S
C921   N940    1.372   .     A
C921   Cl954   1.757   .     S
C921   C980    1.419   .     S
C922   O945    1.287   .     A
C922   O946    1.283   .     A
C923   O948    1.291   .     A
C923   C925    1.455   .     S
C923   O947    1.295   .     A
C926   N958    1.431   .     S
C926   C927    1.390   .     A
C927   C388    1.387   1_556 S
C927   H396    1.083   1_556 S
C928   H935    1.076   .     S
H934   C384    1.081   1_556 S
N939   Zn949   2.015   .     S
N940   Zn950   2.014   .     S
O941   Zn949   1.999   .     S
O942   Zn950   1.997   .     S
O943   Zn949   1.977   .     S
O944   Zn950   1.946   .     S
O945   Zn949   1.997   .     S
O946   Zn950   1.999   .     S
O947   Zn949   1.946   .     S
O948   Zn950   1.977   .     S
N955   H956    1.046   .     S
N955   H957    1.038   .     S
N958   H960    1.045   .     S
N958   H959    1.043   .     S
C961   C977    1.415   .     S
C961   O1002   1.285   .     A
C961   O1001   1.283   .     A
C962   C963    1.412   .     A
C962   C424    1.420   1_556 S
C962   C448    1.411   1_556 S
C963   C970    1.432   .     A
C963   C967    1.420   .     A
C964   C968    1.392   .     A
C965   C966    1.385   .     A
C965   C424    1.412   1_556 S
C965   C444    1.397   1_556 S
C966   C967    1.384   .     A
C966   H993    1.083   .     S
C967   H997    1.076   .     S
C968   C985    1.410   .     A
C968   N1015   1.438   .     S
C969   C984    1.391   .     A
C969   Cl1011  1.764   .     S
C969   C985    1.413   .     A
C970   C986    1.420   .     A
C970   C972    1.488   .     S
C971   H998    1.080   .     S
C971   C977    1.392   .     A
C971   C613    1.370   1_565 S
C972   O1004   1.292   .     A
C972   O1003   1.308   .     A
C973   Cl1012  1.764   .     S
C973   C974    1.408   .     A
C974   C982    1.420   .     S
C974   C975    1.399   .     A
C975   H989    1.084   .     S
C976   C977    1.393   .     A
C976   H990    1.084   .     S
C976   C615    1.372   1_565 S
C978   N1000   1.365   .     A
C978   H991    1.082   .     S
C978   C1039   1.416   .     S
C979   N999    1.367   .     A
C979   H992    1.077   .     S
C980   N999    1.368   .     A
C980   Cl1013  1.759   .     S
C981   N1000   1.372   .     A
C981   Cl1014  1.757   .     S
C981   C1040   1.419   .     S
C982   O1005   1.287   .     A
C982   O1006   1.283   .     A
C983   O1008   1.291   .     A
C983   C985    1.455   .     S
C983   O1007   1.295   .     A
C986   N1018   1.431   .     S
C986   C987    1.390   .     A
C987   C448    1.387   1_556 S
C987   H456    1.083   1_556 S
C988   H995    1.076   .     S
H994   C444    1.081   1_556 S
N999   Zn1009  2.015   .     S
N1000  Zn1010  2.014   .     S
O1001  Zn1009  1.999   .     S
O1002  Zn1010  1.997   .     S
O1003  Zn1009  1.977   .     S
O1004  Zn1010  1.946   .     S
O1005  Zn1009  1.997   .     S
O1006  Zn1010  1.999   .     S
O1007  Zn1009  1.946   .     S
O1008  Zn1010  1.977   .     S
N1015  H1016   1.046   .     S
N1015  H1017   1.038   .     S
N1018  H1020   1.045   .     S
N1018  H1019   1.043   .     S
C1021  C1037   1.415   .     S
C1021  O1062   1.285   .     A
C1021  O1061   1.283   .     A
C1022  C1023   1.412   .     A
C1022  C484    1.420   1_556 S
C1022  C508    1.411   1_556 S
C1023  C1030   1.432   .     A
C1023  C1027   1.420   .     A
C1024  C1028   1.392   .     A
C1025  C1026   1.385   .     A
C1025  C484    1.412   1_556 S
C1025  C504    1.397   1_556 S
C1026  C1027   1.384   .     A
C1026  H1053   1.083   .     S
C1027  H1057   1.076   .     S
C1028  C1045   1.410   .     A
C1028  N1075   1.438   .     S
C1029  C1044   1.391   .     A
C1029  Cl1071  1.764   .     S
C1029  C1045   1.413   .     A
C1030  C1046   1.420   .     A
C1030  C1032   1.488   .     S
C1031  H1058   1.080   .     S
C1031  C1037   1.392   .     A
C1031  C673    1.370   1_565 S
C1032  O1064   1.292   .     A
C1032  O1063   1.308   .     A
C1033  Cl1072  1.764   .     S
C1033  C1034   1.408   .     A
C1034  C1042   1.420   .     S
C1034  C1035   1.399   .     A
C1035  H1049   1.084   .     S
C1036  C1037   1.393   .     A
C1036  H1050   1.084   .     S
C1036  C675    1.372   1_565 S
C1038  N1060   1.365   .     A
C1038  H1051   1.082   .     S
C1038  C919    1.416   1_655 S
C1039  N1059   1.367   .     A
C1039  H1052   1.077   .     S
C1040  N1059   1.368   .     A
C1040  Cl1073  1.759   .     S
C1041  N1060   1.372   .     A
C1041  Cl1074  1.757   .     S
C1041  C920    1.419   1_655 S
C1042  O1065   1.287   .     A
C1042  O1066   1.283   .     A
C1043  O1068   1.291   .     A
C1043  C1045   1.455   .     S
C1043  O1067   1.295   .     A
C1046  N1078   1.431   .     S
C1046  C1047   1.390   .     A
C1047  C508    1.387   1_556 S
C1047  H516    1.083   1_556 S
C1048  H1055   1.076   .     S
H1054  C504    1.081   1_556 S
N1059  Zn1069  2.015   .     S
N1060  Zn1070  2.014   .     S
O1061  Zn1069  1.999   .     S
O1062  Zn1070  1.997   .     S
O1063  Zn1069  1.977   .     S
O1064  Zn1070  1.946   .     S
O1065  Zn1069  1.997   .     S
O1066  Zn1070  1.999   .     S
O1067  Zn1069  1.946   .     S
O1068  Zn1070  1.977   .     S
N1075  H1076   1.046   .     S
N1075  H1077   1.038   .     S
N1078  H1080   1.045   .     S
N1078  H1079   1.043   .     S
