data_str_m3_o1_o16_pcu_sym.125
_audit_creation_date              2020-01-03
_audit_creation_method            'Materials Studio'
_symmetry_space_group_name_H-M    'P1'
_symmetry_Int_Tables_number       1
_symmetry_cell_setting            triclinic
loop_
_symmetry_equiv_pos_as_xyz
  x,y,z
_cell_length_a                    29.6033
_cell_length_b                    31.9487
_cell_length_c                    26.2651
_cell_angle_alpha                 90.2820
_cell_angle_beta                  69.7943
_cell_angle_gamma                 89.9629
loop_
_atom_site_label
_atom_site_type_symbol
_atom_site_fract_x
_atom_site_fract_y
_atom_site_fract_z
_atom_site_U_iso_or_equiv
_atom_site_adp_type
_atom_site_occupancy
C1     C     0.16662   0.24660   0.25018   0.00000  Uiso   1.00
C2     C     0.14374   0.15621   0.49228   0.00000  Uiso   1.00
C3     C     0.15408   0.14548   0.43739   0.00000  Uiso   1.00
C4     C     0.18073   0.15187   0.01445   0.00000  Uiso   1.00
C5     C     0.22397   0.13035   0.48529   0.00000  Uiso   1.00
C6     C     0.23026   0.11409   0.43400   0.00000  Uiso   1.00
C7     C     0.19576   0.12151   0.41027   0.00000  Uiso   1.00
C8     C     0.17622   0.16933   0.06450   0.00000  Uiso   1.00
C9     C     0.25222   0.13916   0.06101   0.00000  Uiso   1.00
C10    C     0.12264   0.15957   0.41103   0.00000  Uiso   1.00
C11    C     0.18768   0.31225   0.28176   0.00000  Uiso   1.00
C12    C     0.13998   0.16404   0.35206   0.00000  Uiso   1.00
C13    C     0.18774   0.02183   0.28094   0.00000  Uiso   1.00
C14    C     0.16767   0.04251   0.24708   0.00000  Uiso   1.00
C15    C     0.14831   0.02069   0.21288   0.00000  Uiso   1.00
C16    C     0.14736   0.31104   0.21491   0.00000  Uiso   1.00
C17    C     0.16692   0.29065   0.24927   0.00000  Uiso   1.00
C18    C     0.32021   0.14181   0.21474   0.00000  Uiso   1.00
C19    C     0.03477   0.14187   0.21471   0.00000  Uiso   1.00
C20    C     0.01279   0.19179   0.28510   0.00000  Uiso   1.00
C21    C     0.29837   0.19161   0.28502   0.00000  Uiso   1.00
C22    C     0.16713   0.08670   0.24847   0.00000  Uiso   1.00
C23    C     0.19341   0.16645   0.14781   0.00000  Uiso   1.00
C24    C     0.25986   0.12484   0.00841   0.00000  Uiso   1.00
C25    C     0.20955   0.16049   0.08942   0.00000  Uiso   1.00
C26    C     0.07659   0.17435   0.44170   0.00000  Uiso   1.00
C27    C     0.06328   0.17844   0.49761   0.00000  Uiso   1.00
C28    C     0.09681   0.17070   0.02275   0.00000  Uiso   1.00
H29    H     0.27835   0.13199   0.08016   0.00000  Uiso   1.00
H30    H     0.20278   0.03891   0.30711   0.00000  Uiso   1.00
H31    H     0.13268   0.29350   0.18878   0.00000  Uiso   1.00
H32    H     0.31080   0.12196   0.18645   0.00000  Uiso   1.00
H33    H     0.06152   0.12221   0.18624   0.00000  Uiso   1.00
H34    H     0.27145   0.21160   0.31290   0.00000  Uiso   1.00
H35    H     0.26225   0.09628   0.41180   0.00000  Uiso   1.00
H36    H     0.29283   0.10814   0.48668   0.00000  Uiso   1.00
H37    H     0.14583   0.18892   0.08604   0.00000  Uiso   1.00
H38    H     0.05135   0.18383   0.42241   0.00000  Uiso   1.00
H39    H     0.08469   0.17511   0.06617   0.00000  Uiso   1.00
H40    H     0.02752   0.18941   0.02127   0.00000  Uiso   1.00
H41    H     0.20177   0.10770   0.37079   0.00000  Uiso   1.00
H42    H     0.20288   0.29593   0.30820   0.00000  Uiso   1.00
N43    N     0.04760   0.16668   0.25001   0.00000  Uiso   1.00
N44    N     0.28573   0.16665   0.25000   0.00000  Uiso   1.00
O45    O     0.12846   0.22775   0.25000   0.00000  Uiso   1.00
O46    O     0.20490   0.22774   0.25000   0.00000  Uiso   1.00
O47    O     0.10947   0.16666   0.32681   0.00000  Uiso   1.00
O48    O     0.18591   0.16665   0.32681   0.00000  Uiso   1.00
O49    O     0.12843   0.10559   0.24999   0.00000  Uiso   1.00
O50    O     0.20488   0.10558   0.24999   0.00000  Uiso   1.00
O51    O     0.14742   0.16668   0.17319   0.00000  Uiso   1.00
O52    O     0.22387   0.16667   0.17319   0.00000  Uiso   1.00
Zn53   Zn    0.11562   0.16667   0.25000   0.00000  Uiso   1.00
Zn54   Zn    0.21771   0.16666   0.25000   0.00000  Uiso   1.00
Br55   Br    0.12646   0.04734   0.16008   0.00000  Uiso   1.00
Br56   Br    0.02702   0.22865   0.33495   0.00000  Uiso   1.00
C57    C     0.49996   0.24660   0.25018   0.00000  Uiso   1.00
C58    C     0.47707   0.15621   0.49228   0.00000  Uiso   1.00
C59    C     0.48742   0.14548   0.43739   0.00000  Uiso   1.00
C60    C     0.51407   0.15187   0.01445   0.00000  Uiso   1.00
C61    C     0.55731   0.13035   0.48529   0.00000  Uiso   1.00
C62    C     0.56360   0.11409   0.43400   0.00000  Uiso   1.00
C63    C     0.52910   0.12151   0.41027   0.00000  Uiso   1.00
C64    C     0.50956   0.16933   0.06450   0.00000  Uiso   1.00
C65    C     0.58555   0.13916   0.06101   0.00000  Uiso   1.00
C66    C     0.45597   0.15957   0.41103   0.00000  Uiso   1.00
C67    C     0.52101   0.31225   0.28176   0.00000  Uiso   1.00
C68    C     0.47331   0.16404   0.35206   0.00000  Uiso   1.00
C69    C     0.52107   0.02183   0.28094   0.00000  Uiso   1.00
C70    C     0.50101   0.04251   0.24708   0.00000  Uiso   1.00
C71    C     0.48164   0.02069   0.21288   0.00000  Uiso   1.00
C72    C     0.48069   0.31104   0.21491   0.00000  Uiso   1.00
C73    C     0.50025   0.29065   0.24927   0.00000  Uiso   1.00
C74    C     0.65354   0.14181   0.21474   0.00000  Uiso   1.00
C75    C     0.36810   0.14187   0.21471   0.00000  Uiso   1.00
C76    C     0.34612   0.19179   0.28510   0.00000  Uiso   1.00
C77    C     0.63171   0.19161   0.28502   0.00000  Uiso   1.00
C78    C     0.50046   0.08670   0.24847   0.00000  Uiso   1.00
C79    C     0.52674   0.16645   0.14781   0.00000  Uiso   1.00
C80    C     0.59319   0.12484   0.00841   0.00000  Uiso   1.00
C81    C     0.54289   0.16049   0.08942   0.00000  Uiso   1.00
C82    C     0.40993   0.17435   0.44170   0.00000  Uiso   1.00
C83    C     0.39661   0.17844   0.49761   0.00000  Uiso   1.00
C84    C     0.43015   0.17070   0.02275   0.00000  Uiso   1.00
H85    H     0.61168   0.13199   0.08016   0.00000  Uiso   1.00
H86    H     0.53611   0.03891   0.30711   0.00000  Uiso   1.00
H87    H     0.46602   0.29350   0.18878   0.00000  Uiso   1.00
H88    H     0.64414   0.12196   0.18645   0.00000  Uiso   1.00
H89    H     0.39485   0.12221   0.18624   0.00000  Uiso   1.00
H90    H     0.60479   0.21160   0.31290   0.00000  Uiso   1.00
H91    H     0.59558   0.09628   0.41180   0.00000  Uiso   1.00
H92    H     0.62616   0.10814   0.48668   0.00000  Uiso   1.00
H93    H     0.47917   0.18892   0.08604   0.00000  Uiso   1.00
H94    H     0.38469   0.18383   0.42241   0.00000  Uiso   1.00
H95    H     0.41802   0.17511   0.06617   0.00000  Uiso   1.00
H96    H     0.36085   0.18941   0.02127   0.00000  Uiso   1.00
H97    H     0.53510   0.10770   0.37079   0.00000  Uiso   1.00
H98    H     0.53621   0.29593   0.30820   0.00000  Uiso   1.00
N99    N     0.38093   0.16668   0.25001   0.00000  Uiso   1.00
N100   N     0.61906   0.16665   0.25000   0.00000  Uiso   1.00
O101   O     0.46179   0.22775   0.25000   0.00000  Uiso   1.00
O102   O     0.53823   0.22774   0.25000   0.00000  Uiso   1.00
O103   O     0.44280   0.16666   0.32681   0.00000  Uiso   1.00
O104   O     0.51924   0.16665   0.32681   0.00000  Uiso   1.00
O105   O     0.46177   0.10559   0.24999   0.00000  Uiso   1.00
O106   O     0.53821   0.10558   0.24999   0.00000  Uiso   1.00
O107   O     0.48076   0.16668   0.17319   0.00000  Uiso   1.00
O108   O     0.55720   0.16667   0.17319   0.00000  Uiso   1.00
Zn109  Zn    0.44896   0.16667   0.25000   0.00000  Uiso   1.00
Zn110  Zn    0.55104   0.16666   0.25000   0.00000  Uiso   1.00
Br111  Br    0.45980   0.04734   0.16008   0.00000  Uiso   1.00
Br112  Br    0.36035   0.22865   0.33495   0.00000  Uiso   1.00
C113   C     0.83329   0.24660   0.25018   0.00000  Uiso   1.00
C114   C     0.81041   0.15621   0.49228   0.00000  Uiso   1.00
C115   C     0.82075   0.14548   0.43739   0.00000  Uiso   1.00
C116   C     0.84740   0.15187   0.01445   0.00000  Uiso   1.00
C117   C     0.89064   0.13035   0.48529   0.00000  Uiso   1.00
C118   C     0.89693   0.11409   0.43400   0.00000  Uiso   1.00
C119   C     0.86243   0.12151   0.41027   0.00000  Uiso   1.00
C120   C     0.84289   0.16933   0.06450   0.00000  Uiso   1.00
C121   C     0.91889   0.13916   0.06101   0.00000  Uiso   1.00
C122   C     0.78931   0.15957   0.41103   0.00000  Uiso   1.00
C123   C     0.85434   0.31225   0.28176   0.00000  Uiso   1.00
C124   C     0.80665   0.16404   0.35206   0.00000  Uiso   1.00
C125   C     0.85441   0.02183   0.28094   0.00000  Uiso   1.00
C126   C     0.83434   0.04251   0.24708   0.00000  Uiso   1.00
C127   C     0.81497   0.02069   0.21288   0.00000  Uiso   1.00
C128   C     0.81402   0.31104   0.21491   0.00000  Uiso   1.00
C129   C     0.83358   0.29065   0.24927   0.00000  Uiso   1.00
C130   C     0.98688   0.14181   0.21474   0.00000  Uiso   1.00
C131   C     0.70144   0.14187   0.21471   0.00000  Uiso   1.00
C132   C     0.67946   0.19179   0.28510   0.00000  Uiso   1.00
C133   C     0.96504   0.19161   0.28502   0.00000  Uiso   1.00
C134   C     0.83379   0.08670   0.24847   0.00000  Uiso   1.00
C135   C     0.86008   0.16645   0.14781   0.00000  Uiso   1.00
C136   C     0.92653   0.12484   0.00841   0.00000  Uiso   1.00
C137   C     0.87622   0.16049   0.08942   0.00000  Uiso   1.00
C138   C     0.74326   0.17435   0.44170   0.00000  Uiso   1.00
C139   C     0.72995   0.17844   0.49761   0.00000  Uiso   1.00
C140   C     0.76348   0.17070   0.02275   0.00000  Uiso   1.00
H141   H     0.94501   0.13199   0.08016   0.00000  Uiso   1.00
H142   H     0.86945   0.03891   0.30711   0.00000  Uiso   1.00
H143   H     0.79935   0.29350   0.18878   0.00000  Uiso   1.00
H144   H     0.97747   0.12196   0.18645   0.00000  Uiso   1.00
H145   H     0.72818   0.12221   0.18624   0.00000  Uiso   1.00
H146   H     0.93812   0.21160   0.31290   0.00000  Uiso   1.00
H147   H     0.92891   0.09628   0.41180   0.00000  Uiso   1.00
H148   H     0.95950   0.10814   0.48668   0.00000  Uiso   1.00
H149   H     0.81250   0.18892   0.08604   0.00000  Uiso   1.00
H150   H     0.71802   0.18383   0.42241   0.00000  Uiso   1.00
H151   H     0.75135   0.17511   0.06617   0.00000  Uiso   1.00
H152   H     0.69418   0.18941   0.02127   0.00000  Uiso   1.00
H153   H     0.86844   0.10770   0.37079   0.00000  Uiso   1.00
H154   H     0.86955   0.29593   0.30820   0.00000  Uiso   1.00
N155   N     0.71426   0.16668   0.25001   0.00000  Uiso   1.00
N156   N     0.95239   0.16665   0.25000   0.00000  Uiso   1.00
O157   O     0.79512   0.22775   0.25000   0.00000  Uiso   1.00
O158   O     0.87157   0.22774   0.25000   0.00000  Uiso   1.00
O159   O     0.77613   0.16666   0.32681   0.00000  Uiso   1.00
O160   O     0.85258   0.16665   0.32681   0.00000  Uiso   1.00
O161   O     0.79510   0.10559   0.24999   0.00000  Uiso   1.00
O162   O     0.87154   0.10558   0.24999   0.00000  Uiso   1.00
O163   O     0.81409   0.16668   0.17319   0.00000  Uiso   1.00
O164   O     0.89053   0.16667   0.17319   0.00000  Uiso   1.00
Zn165  Zn    0.78229   0.16667   0.25000   0.00000  Uiso   1.00
Zn166  Zn    0.88438   0.16666   0.25000   0.00000  Uiso   1.00
Br167  Br    0.79313   0.04734   0.16008   0.00000  Uiso   1.00
Br168  Br    0.69368   0.22865   0.33495   0.00000  Uiso   1.00
C169   C     0.16662   0.57993   0.25018   0.00000  Uiso   1.00
C170   C     0.14374   0.48954   0.49228   0.00000  Uiso   1.00
C171   C     0.15408   0.47881   0.43739   0.00000  Uiso   1.00
C172   C     0.18073   0.48520   0.01445   0.00000  Uiso   1.00
C173   C     0.22397   0.46368   0.48529   0.00000  Uiso   1.00
C174   C     0.23026   0.44742   0.43400   0.00000  Uiso   1.00
C175   C     0.19576   0.45484   0.41027   0.00000  Uiso   1.00
C176   C     0.17622   0.50266   0.06450   0.00000  Uiso   1.00
C177   C     0.25222   0.47250   0.06101   0.00000  Uiso   1.00
C178   C     0.12264   0.49291   0.41103   0.00000  Uiso   1.00
C179   C     0.18768   0.64558   0.28176   0.00000  Uiso   1.00
C180   C     0.13998   0.49738   0.35206   0.00000  Uiso   1.00
C181   C     0.18774   0.35517   0.28094   0.00000  Uiso   1.00
C182   C     0.16767   0.37585   0.24708   0.00000  Uiso   1.00
C183   C     0.14831   0.35403   0.21288   0.00000  Uiso   1.00
C184   C     0.14736   0.64437   0.21491   0.00000  Uiso   1.00
C185   C     0.16692   0.62398   0.24927   0.00000  Uiso   1.00
C186   C     0.32021   0.47515   0.21474   0.00000  Uiso   1.00
C187   C     0.03477   0.47520   0.21471   0.00000  Uiso   1.00
C188   C     0.01279   0.52513   0.28510   0.00000  Uiso   1.00
C189   C     0.29837   0.52494   0.28502   0.00000  Uiso   1.00
C190   C     0.16713   0.42004   0.24847   0.00000  Uiso   1.00
C191   C     0.19341   0.49978   0.14781   0.00000  Uiso   1.00
C192   C     0.25986   0.45818   0.00841   0.00000  Uiso   1.00
C193   C     0.20955   0.49382   0.08942   0.00000  Uiso   1.00
C194   C     0.07659   0.50769   0.44170   0.00000  Uiso   1.00
C195   C     0.06328   0.51178   0.49761   0.00000  Uiso   1.00
C196   C     0.09681   0.50404   0.02275   0.00000  Uiso   1.00
H197   H     0.27835   0.46532   0.08016   0.00000  Uiso   1.00
H198   H     0.20278   0.37224   0.30711   0.00000  Uiso   1.00
H199   H     0.13268   0.62684   0.18878   0.00000  Uiso   1.00
H200   H     0.31080   0.45529   0.18645   0.00000  Uiso   1.00
H201   H     0.06152   0.45554   0.18624   0.00000  Uiso   1.00
H202   H     0.27145   0.54493   0.31290   0.00000  Uiso   1.00
H203   H     0.26225   0.42962   0.41180   0.00000  Uiso   1.00
H204   H     0.29283   0.44148   0.48668   0.00000  Uiso   1.00
H205   H     0.14583   0.52225   0.08604   0.00000  Uiso   1.00
H206   H     0.05135   0.51717   0.42241   0.00000  Uiso   1.00
H207   H     0.08469   0.50844   0.06617   0.00000  Uiso   1.00
H208   H     0.02752   0.52274   0.02127   0.00000  Uiso   1.00
H209   H     0.20177   0.44104   0.37079   0.00000  Uiso   1.00
H210   H     0.20288   0.62927   0.30820   0.00000  Uiso   1.00
N211   N     0.04760   0.50001   0.25001   0.00000  Uiso   1.00
N212   N     0.28573   0.49998   0.25000   0.00000  Uiso   1.00
O213   O     0.12846   0.56108   0.25000   0.00000  Uiso   1.00
O214   O     0.20490   0.56107   0.25000   0.00000  Uiso   1.00
O215   O     0.10947   0.50000   0.32681   0.00000  Uiso   1.00
O216   O     0.18591   0.49999   0.32681   0.00000  Uiso   1.00
O217   O     0.12843   0.43893   0.24999   0.00000  Uiso   1.00
O218   O     0.20488   0.43892   0.24999   0.00000  Uiso   1.00
O219   O     0.14742   0.50001   0.17319   0.00000  Uiso   1.00
O220   O     0.22387   0.50000   0.17319   0.00000  Uiso   1.00
Zn221  Zn    0.11562   0.50001   0.25000   0.00000  Uiso   1.00
Zn222  Zn    0.21771   0.49999   0.25000   0.00000  Uiso   1.00
Br223  Br    0.12646   0.38068   0.16008   0.00000  Uiso   1.00
Br224  Br    0.02702   0.56198   0.33495   0.00000  Uiso   1.00
C225   C     0.49996   0.57993   0.25018   0.00000  Uiso   1.00
C226   C     0.47707   0.48954   0.49228   0.00000  Uiso   1.00
C227   C     0.48742   0.47881   0.43739   0.00000  Uiso   1.00
C228   C     0.51407   0.48520   0.01445   0.00000  Uiso   1.00
C229   C     0.55731   0.46368   0.48529   0.00000  Uiso   1.00
C230   C     0.56360   0.44742   0.43400   0.00000  Uiso   1.00
C231   C     0.52910   0.45484   0.41027   0.00000  Uiso   1.00
C232   C     0.50956   0.50266   0.06450   0.00000  Uiso   1.00
C233   C     0.58555   0.47250   0.06101   0.00000  Uiso   1.00
C234   C     0.45597   0.49291   0.41103   0.00000  Uiso   1.00
C235   C     0.52101   0.64558   0.28176   0.00000  Uiso   1.00
C236   C     0.47331   0.49738   0.35206   0.00000  Uiso   1.00
C237   C     0.52107   0.35517   0.28094   0.00000  Uiso   1.00
C238   C     0.50101   0.37585   0.24708   0.00000  Uiso   1.00
C239   C     0.48164   0.35403   0.21288   0.00000  Uiso   1.00
C240   C     0.48069   0.64437   0.21491   0.00000  Uiso   1.00
C241   C     0.50025   0.62398   0.24927   0.00000  Uiso   1.00
C242   C     0.65354   0.47515   0.21474   0.00000  Uiso   1.00
C243   C     0.36810   0.47520   0.21471   0.00000  Uiso   1.00
C244   C     0.34612   0.52513   0.28510   0.00000  Uiso   1.00
C245   C     0.63171   0.52494   0.28502   0.00000  Uiso   1.00
C246   C     0.50046   0.42004   0.24847   0.00000  Uiso   1.00
C247   C     0.52674   0.49978   0.14781   0.00000  Uiso   1.00
C248   C     0.59319   0.45818   0.00841   0.00000  Uiso   1.00
C249   C     0.54289   0.49382   0.08942   0.00000  Uiso   1.00
C250   C     0.40993   0.50769   0.44170   0.00000  Uiso   1.00
C251   C     0.39661   0.51178   0.49761   0.00000  Uiso   1.00
C252   C     0.43015   0.50404   0.02275   0.00000  Uiso   1.00
H253   H     0.61168   0.46532   0.08016   0.00000  Uiso   1.00
H254   H     0.53611   0.37224   0.30711   0.00000  Uiso   1.00
H255   H     0.46602   0.62684   0.18878   0.00000  Uiso   1.00
H256   H     0.64414   0.45529   0.18645   0.00000  Uiso   1.00
H257   H     0.39485   0.45554   0.18624   0.00000  Uiso   1.00
H258   H     0.60479   0.54493   0.31290   0.00000  Uiso   1.00
H259   H     0.59558   0.42962   0.41180   0.00000  Uiso   1.00
H260   H     0.62616   0.44148   0.48668   0.00000  Uiso   1.00
H261   H     0.47917   0.52225   0.08604   0.00000  Uiso   1.00
H262   H     0.38469   0.51717   0.42241   0.00000  Uiso   1.00
H263   H     0.41802   0.50844   0.06617   0.00000  Uiso   1.00
H264   H     0.36085   0.52274   0.02127   0.00000  Uiso   1.00
H265   H     0.53510   0.44104   0.37079   0.00000  Uiso   1.00
H266   H     0.53621   0.62927   0.30820   0.00000  Uiso   1.00
N267   N     0.38093   0.50001   0.25001   0.00000  Uiso   1.00
N268   N     0.61906   0.49998   0.25000   0.00000  Uiso   1.00
O269   O     0.46179   0.56108   0.25000   0.00000  Uiso   1.00
O270   O     0.53823   0.56107   0.25000   0.00000  Uiso   1.00
O271   O     0.44280   0.50000   0.32681   0.00000  Uiso   1.00
O272   O     0.51924   0.49999   0.32681   0.00000  Uiso   1.00
O273   O     0.46177   0.43893   0.24999   0.00000  Uiso   1.00
O274   O     0.53821   0.43892   0.24999   0.00000  Uiso   1.00
O275   O     0.48076   0.50001   0.17319   0.00000  Uiso   1.00
O276   O     0.55720   0.50000   0.17319   0.00000  Uiso   1.00
Zn277  Zn    0.44896   0.50001   0.25000   0.00000  Uiso   1.00
Zn278  Zn    0.55104   0.49999   0.25000   0.00000  Uiso   1.00
Br279  Br    0.45980   0.38068   0.16008   0.00000  Uiso   1.00
Br280  Br    0.36035   0.56198   0.33495   0.00000  Uiso   1.00
C281   C     0.83329   0.57993   0.25018   0.00000  Uiso   1.00
C282   C     0.81041   0.48954   0.49228   0.00000  Uiso   1.00
C283   C     0.82075   0.47881   0.43739   0.00000  Uiso   1.00
C284   C     0.84740   0.48520   0.01445   0.00000  Uiso   1.00
C285   C     0.89064   0.46368   0.48529   0.00000  Uiso   1.00
C286   C     0.89693   0.44742   0.43400   0.00000  Uiso   1.00
C287   C     0.86243   0.45484   0.41027   0.00000  Uiso   1.00
C288   C     0.84289   0.50266   0.06450   0.00000  Uiso   1.00
C289   C     0.91889   0.47250   0.06101   0.00000  Uiso   1.00
C290   C     0.78931   0.49291   0.41103   0.00000  Uiso   1.00
C291   C     0.85434   0.64558   0.28176   0.00000  Uiso   1.00
C292   C     0.80665   0.49738   0.35206   0.00000  Uiso   1.00
C293   C     0.85441   0.35517   0.28094   0.00000  Uiso   1.00
C294   C     0.83434   0.37585   0.24708   0.00000  Uiso   1.00
C295   C     0.81497   0.35403   0.21288   0.00000  Uiso   1.00
C296   C     0.81402   0.64437   0.21491   0.00000  Uiso   1.00
C297   C     0.83358   0.62398   0.24927   0.00000  Uiso   1.00
C298   C     0.98688   0.47515   0.21474   0.00000  Uiso   1.00
C299   C     0.70144   0.47520   0.21471   0.00000  Uiso   1.00
C300   C     0.67946   0.52513   0.28510   0.00000  Uiso   1.00
C301   C     0.96504   0.52494   0.28502   0.00000  Uiso   1.00
C302   C     0.83379   0.42004   0.24847   0.00000  Uiso   1.00
C303   C     0.86008   0.49978   0.14781   0.00000  Uiso   1.00
C304   C     0.92653   0.45818   0.00841   0.00000  Uiso   1.00
C305   C     0.87622   0.49382   0.08942   0.00000  Uiso   1.00
C306   C     0.74326   0.50769   0.44170   0.00000  Uiso   1.00
C307   C     0.72995   0.51178   0.49761   0.00000  Uiso   1.00
C308   C     0.76348   0.50404   0.02275   0.00000  Uiso   1.00
H309   H     0.94501   0.46532   0.08016   0.00000  Uiso   1.00
H310   H     0.86945   0.37224   0.30711   0.00000  Uiso   1.00
H311   H     0.79935   0.62684   0.18878   0.00000  Uiso   1.00
H312   H     0.97747   0.45529   0.18645   0.00000  Uiso   1.00
H313   H     0.72818   0.45554   0.18624   0.00000  Uiso   1.00
H314   H     0.93812   0.54493   0.31290   0.00000  Uiso   1.00
H315   H     0.92891   0.42962   0.41180   0.00000  Uiso   1.00
H316   H     0.95950   0.44148   0.48668   0.00000  Uiso   1.00
H317   H     0.81250   0.52225   0.08604   0.00000  Uiso   1.00
H318   H     0.71802   0.51717   0.42241   0.00000  Uiso   1.00
H319   H     0.75135   0.50844   0.06617   0.00000  Uiso   1.00
H320   H     0.69418   0.52274   0.02127   0.00000  Uiso   1.00
H321   H     0.86844   0.44104   0.37079   0.00000  Uiso   1.00
H322   H     0.86955   0.62927   0.30820   0.00000  Uiso   1.00
N323   N     0.71426   0.50001   0.25001   0.00000  Uiso   1.00
N324   N     0.95239   0.49998   0.25000   0.00000  Uiso   1.00
O325   O     0.79512   0.56108   0.25000   0.00000  Uiso   1.00
O326   O     0.87157   0.56107   0.25000   0.00000  Uiso   1.00
O327   O     0.77613   0.50000   0.32681   0.00000  Uiso   1.00
O328   O     0.85258   0.49999   0.32681   0.00000  Uiso   1.00
O329   O     0.79510   0.43893   0.24999   0.00000  Uiso   1.00
O330   O     0.87154   0.43892   0.24999   0.00000  Uiso   1.00
O331   O     0.81409   0.50001   0.17319   0.00000  Uiso   1.00
O332   O     0.89053   0.50000   0.17319   0.00000  Uiso   1.00
Zn333  Zn    0.78229   0.50001   0.25000   0.00000  Uiso   1.00
Zn334  Zn    0.88438   0.49999   0.25000   0.00000  Uiso   1.00
Br335  Br    0.79313   0.38068   0.16008   0.00000  Uiso   1.00
Br336  Br    0.69368   0.56198   0.33495   0.00000  Uiso   1.00
C337   C     0.16662   0.91326   0.25018   0.00000  Uiso   1.00
C338   C     0.14374   0.82287   0.49228   0.00000  Uiso   1.00
C339   C     0.15408   0.81215   0.43739   0.00000  Uiso   1.00
C340   C     0.18073   0.81853   0.01445   0.00000  Uiso   1.00
C341   C     0.22397   0.79701   0.48529   0.00000  Uiso   1.00
C342   C     0.23026   0.78076   0.43400   0.00000  Uiso   1.00
C343   C     0.19576   0.78818   0.41027   0.00000  Uiso   1.00
C344   C     0.17622   0.83599   0.06450   0.00000  Uiso   1.00
C345   C     0.25222   0.80583   0.06101   0.00000  Uiso   1.00
C346   C     0.12264   0.82624   0.41103   0.00000  Uiso   1.00
C347   C     0.18768   0.97891   0.28176   0.00000  Uiso   1.00
C348   C     0.13998   0.83071   0.35206   0.00000  Uiso   1.00
C349   C     0.18774   0.68850   0.28094   0.00000  Uiso   1.00
C350   C     0.16767   0.70918   0.24708   0.00000  Uiso   1.00
C351   C     0.14831   0.68736   0.21288   0.00000  Uiso   1.00
C352   C     0.14736   0.97771   0.21491   0.00000  Uiso   1.00
C353   C     0.16692   0.95732   0.24927   0.00000  Uiso   1.00
C354   C     0.32021   0.80848   0.21474   0.00000  Uiso   1.00
C355   C     0.03477   0.80853   0.21471   0.00000  Uiso   1.00
C356   C     0.01279   0.85846   0.28510   0.00000  Uiso   1.00
C357   C     0.29837   0.85828   0.28502   0.00000  Uiso   1.00
C358   C     0.16713   0.75337   0.24847   0.00000  Uiso   1.00
C359   C     0.19341   0.83312   0.14781   0.00000  Uiso   1.00
C360   C     0.25986   0.79151   0.00841   0.00000  Uiso   1.00
C361   C     0.20955   0.82716   0.08942   0.00000  Uiso   1.00
C362   C     0.07659   0.84102   0.44170   0.00000  Uiso   1.00
C363   C     0.06328   0.84511   0.49761   0.00000  Uiso   1.00
C364   C     0.09681   0.83737   0.02275   0.00000  Uiso   1.00
H365   H     0.27835   0.79866   0.08016   0.00000  Uiso   1.00
H366   H     0.20278   0.70557   0.30711   0.00000  Uiso   1.00
H367   H     0.13268   0.96017   0.18878   0.00000  Uiso   1.00
H368   H     0.31080   0.78863   0.18645   0.00000  Uiso   1.00
H369   H     0.06152   0.78888   0.18624   0.00000  Uiso   1.00
H370   H     0.27145   0.87827   0.31290   0.00000  Uiso   1.00
H371   H     0.26225   0.76295   0.41180   0.00000  Uiso   1.00
H372   H     0.29283   0.77481   0.48668   0.00000  Uiso   1.00
H373   H     0.14583   0.85558   0.08604   0.00000  Uiso   1.00
H374   H     0.05135   0.85050   0.42241   0.00000  Uiso   1.00
H375   H     0.08469   0.84177   0.06617   0.00000  Uiso   1.00
H376   H     0.02752   0.85608   0.02127   0.00000  Uiso   1.00
H377   H     0.20177   0.77437   0.37079   0.00000  Uiso   1.00
H378   H     0.20288   0.96260   0.30820   0.00000  Uiso   1.00
N379   N     0.04760   0.83334   0.25001   0.00000  Uiso   1.00
N380   N     0.28573   0.83331   0.25000   0.00000  Uiso   1.00
O381   O     0.12846   0.89442   0.25000   0.00000  Uiso   1.00
O382   O     0.20490   0.89441   0.25000   0.00000  Uiso   1.00
O383   O     0.10947   0.83333   0.32681   0.00000  Uiso   1.00
O384   O     0.18591   0.83332   0.32681   0.00000  Uiso   1.00
O385   O     0.12843   0.77226   0.24999   0.00000  Uiso   1.00
O386   O     0.20488   0.77225   0.24999   0.00000  Uiso   1.00
O387   O     0.14742   0.83335   0.17319   0.00000  Uiso   1.00
O388   O     0.22387   0.83334   0.17319   0.00000  Uiso   1.00
Zn389  Zn    0.11562   0.83334   0.25000   0.00000  Uiso   1.00
Zn390  Zn    0.21771   0.83333   0.25000   0.00000  Uiso   1.00
Br391  Br    0.12646   0.71401   0.16008   0.00000  Uiso   1.00
Br392  Br    0.02702   0.89532   0.33495   0.00000  Uiso   1.00
C393   C     0.49996   0.91326   0.25018   0.00000  Uiso   1.00
C394   C     0.47707   0.82287   0.49228   0.00000  Uiso   1.00
C395   C     0.48742   0.81215   0.43739   0.00000  Uiso   1.00
C396   C     0.51407   0.81853   0.01445   0.00000  Uiso   1.00
C397   C     0.55731   0.79701   0.48529   0.00000  Uiso   1.00
C398   C     0.56360   0.78076   0.43400   0.00000  Uiso   1.00
C399   C     0.52910   0.78818   0.41027   0.00000  Uiso   1.00
C400   C     0.50956   0.83599   0.06450   0.00000  Uiso   1.00
C401   C     0.58555   0.80583   0.06101   0.00000  Uiso   1.00
C402   C     0.45597   0.82624   0.41103   0.00000  Uiso   1.00
C403   C     0.52101   0.97891   0.28176   0.00000  Uiso   1.00
C404   C     0.47331   0.83071   0.35206   0.00000  Uiso   1.00
C405   C     0.52107   0.68850   0.28094   0.00000  Uiso   1.00
C406   C     0.50101   0.70918   0.24708   0.00000  Uiso   1.00
C407   C     0.48164   0.68736   0.21288   0.00000  Uiso   1.00
C408   C     0.48069   0.97771   0.21491   0.00000  Uiso   1.00
C409   C     0.50025   0.95732   0.24927   0.00000  Uiso   1.00
C410   C     0.65354   0.80848   0.21474   0.00000  Uiso   1.00
C411   C     0.36810   0.80853   0.21471   0.00000  Uiso   1.00
C412   C     0.34612   0.85846   0.28510   0.00000  Uiso   1.00
C413   C     0.63171   0.85828   0.28502   0.00000  Uiso   1.00
C414   C     0.50046   0.75337   0.24847   0.00000  Uiso   1.00
C415   C     0.52674   0.83312   0.14781   0.00000  Uiso   1.00
C416   C     0.59319   0.79151   0.00841   0.00000  Uiso   1.00
C417   C     0.54289   0.82716   0.08942   0.00000  Uiso   1.00
C418   C     0.40993   0.84102   0.44170   0.00000  Uiso   1.00
C419   C     0.39661   0.84511   0.49761   0.00000  Uiso   1.00
C420   C     0.43015   0.83737   0.02275   0.00000  Uiso   1.00
H421   H     0.61168   0.79866   0.08016   0.00000  Uiso   1.00
H422   H     0.53611   0.70557   0.30711   0.00000  Uiso   1.00
H423   H     0.46602   0.96017   0.18878   0.00000  Uiso   1.00
H424   H     0.64414   0.78863   0.18645   0.00000  Uiso   1.00
H425   H     0.39485   0.78888   0.18624   0.00000  Uiso   1.00
H426   H     0.60479   0.87827   0.31290   0.00000  Uiso   1.00
H427   H     0.59558   0.76295   0.41180   0.00000  Uiso   1.00
H428   H     0.62616   0.77481   0.48668   0.00000  Uiso   1.00
H429   H     0.47917   0.85558   0.08604   0.00000  Uiso   1.00
H430   H     0.38469   0.85050   0.42241   0.00000  Uiso   1.00
H431   H     0.41802   0.84177   0.06617   0.00000  Uiso   1.00
H432   H     0.36085   0.85608   0.02127   0.00000  Uiso   1.00
H433   H     0.53510   0.77437   0.37079   0.00000  Uiso   1.00
H434   H     0.53621   0.96260   0.30820   0.00000  Uiso   1.00
N435   N     0.38093   0.83334   0.25001   0.00000  Uiso   1.00
N436   N     0.61906   0.83331   0.25000   0.00000  Uiso   1.00
O437   O     0.46179   0.89442   0.25000   0.00000  Uiso   1.00
O438   O     0.53823   0.89441   0.25000   0.00000  Uiso   1.00
O439   O     0.44280   0.83333   0.32681   0.00000  Uiso   1.00
O440   O     0.51924   0.83332   0.32681   0.00000  Uiso   1.00
O441   O     0.46177   0.77226   0.24999   0.00000  Uiso   1.00
O442   O     0.53821   0.77225   0.24999   0.00000  Uiso   1.00
O443   O     0.48076   0.83335   0.17319   0.00000  Uiso   1.00
O444   O     0.55720   0.83334   0.17319   0.00000  Uiso   1.00
Zn445  Zn    0.44896   0.83334   0.25000   0.00000  Uiso   1.00
Zn446  Zn    0.55104   0.83333   0.25000   0.00000  Uiso   1.00
Br447  Br    0.45980   0.71401   0.16008   0.00000  Uiso   1.00
Br448  Br    0.36035   0.89532   0.33495   0.00000  Uiso   1.00
C449   C     0.83329   0.91326   0.25018   0.00000  Uiso   1.00
C450   C     0.81041   0.82287   0.49228   0.00000  Uiso   1.00
C451   C     0.82075   0.81215   0.43739   0.00000  Uiso   1.00
C452   C     0.84740   0.81853   0.01445   0.00000  Uiso   1.00
C453   C     0.89064   0.79701   0.48529   0.00000  Uiso   1.00
C454   C     0.89693   0.78076   0.43400   0.00000  Uiso   1.00
C455   C     0.86243   0.78818   0.41027   0.00000  Uiso   1.00
C456   C     0.84289   0.83599   0.06450   0.00000  Uiso   1.00
C457   C     0.91889   0.80583   0.06101   0.00000  Uiso   1.00
C458   C     0.78931   0.82624   0.41103   0.00000  Uiso   1.00
C459   C     0.85434   0.97891   0.28176   0.00000  Uiso   1.00
C460   C     0.80665   0.83071   0.35206   0.00000  Uiso   1.00
C461   C     0.85441   0.68850   0.28094   0.00000  Uiso   1.00
C462   C     0.83434   0.70918   0.24708   0.00000  Uiso   1.00
C463   C     0.81497   0.68736   0.21288   0.00000  Uiso   1.00
C464   C     0.81402   0.97771   0.21491   0.00000  Uiso   1.00
C465   C     0.83358   0.95732   0.24927   0.00000  Uiso   1.00
C466   C     0.98688   0.80848   0.21474   0.00000  Uiso   1.00
C467   C     0.70144   0.80853   0.21471   0.00000  Uiso   1.00
C468   C     0.67946   0.85846   0.28510   0.00000  Uiso   1.00
C469   C     0.96504   0.85828   0.28502   0.00000  Uiso   1.00
C470   C     0.83379   0.75337   0.24847   0.00000  Uiso   1.00
C471   C     0.86008   0.83312   0.14781   0.00000  Uiso   1.00
C472   C     0.92653   0.79151   0.00841   0.00000  Uiso   1.00
C473   C     0.87622   0.82716   0.08942   0.00000  Uiso   1.00
C474   C     0.74326   0.84102   0.44170   0.00000  Uiso   1.00
C475   C     0.72995   0.84511   0.49761   0.00000  Uiso   1.00
C476   C     0.76348   0.83737   0.02275   0.00000  Uiso   1.00
H477   H     0.94501   0.79866   0.08016   0.00000  Uiso   1.00
H478   H     0.86945   0.70557   0.30711   0.00000  Uiso   1.00
H479   H     0.79935   0.96017   0.18878   0.00000  Uiso   1.00
H480   H     0.97747   0.78863   0.18645   0.00000  Uiso   1.00
H481   H     0.72818   0.78888   0.18624   0.00000  Uiso   1.00
H482   H     0.93812   0.87827   0.31290   0.00000  Uiso   1.00
H483   H     0.92891   0.76295   0.41180   0.00000  Uiso   1.00
H484   H     0.95950   0.77481   0.48668   0.00000  Uiso   1.00
H485   H     0.81250   0.85558   0.08604   0.00000  Uiso   1.00
H486   H     0.71802   0.85050   0.42241   0.00000  Uiso   1.00
H487   H     0.75135   0.84177   0.06617   0.00000  Uiso   1.00
H488   H     0.69418   0.85608   0.02127   0.00000  Uiso   1.00
H489   H     0.86844   0.77437   0.37079   0.00000  Uiso   1.00
H490   H     0.86955   0.96260   0.30820   0.00000  Uiso   1.00
N491   N     0.71426   0.83334   0.25001   0.00000  Uiso   1.00
N492   N     0.95239   0.83331   0.25000   0.00000  Uiso   1.00
O493   O     0.79512   0.89442   0.25000   0.00000  Uiso   1.00
O494   O     0.87157   0.89441   0.25000   0.00000  Uiso   1.00
O495   O     0.77613   0.83333   0.32681   0.00000  Uiso   1.00
O496   O     0.85258   0.83332   0.32681   0.00000  Uiso   1.00
O497   O     0.79510   0.77226   0.24999   0.00000  Uiso   1.00
O498   O     0.87154   0.77225   0.24999   0.00000  Uiso   1.00
O499   O     0.81409   0.83335   0.17319   0.00000  Uiso   1.00
O500   O     0.89053   0.83334   0.17319   0.00000  Uiso   1.00
Zn501  Zn    0.78229   0.83334   0.25000   0.00000  Uiso   1.00
Zn502  Zn    0.88438   0.83333   0.25000   0.00000  Uiso   1.00
Br503  Br    0.79313   0.71401   0.16008   0.00000  Uiso   1.00
Br504  Br    0.69368   0.89532   0.33495   0.00000  Uiso   1.00
C505   C     0.16662   0.24660   0.75018   0.00000  Uiso   1.00
C506   C     0.14374   0.15621   0.99228   0.00000  Uiso   1.00
C507   C     0.15408   0.14548   0.93739   0.00000  Uiso   1.00
C508   C     0.18073   0.15187   0.51445   0.00000  Uiso   1.00
C509   C     0.22397   0.13035   0.98529   0.00000  Uiso   1.00
C510   C     0.23026   0.11409   0.93400   0.00000  Uiso   1.00
C511   C     0.19576   0.12151   0.91027   0.00000  Uiso   1.00
C512   C     0.17622   0.16933   0.56450   0.00000  Uiso   1.00
C513   C     0.25222   0.13916   0.56101   0.00000  Uiso   1.00
C514   C     0.12264   0.15957   0.91103   0.00000  Uiso   1.00
C515   C     0.18768   0.31225   0.78176   0.00000  Uiso   1.00
C516   C     0.13998   0.16404   0.85206   0.00000  Uiso   1.00
C517   C     0.18774   0.02183   0.78094   0.00000  Uiso   1.00
C518   C     0.16767   0.04251   0.74708   0.00000  Uiso   1.00
C519   C     0.14831   0.02069   0.71288   0.00000  Uiso   1.00
C520   C     0.14736   0.31104   0.71491   0.00000  Uiso   1.00
C521   C     0.16692   0.29065   0.74927   0.00000  Uiso   1.00
C522   C     0.32021   0.14181   0.71474   0.00000  Uiso   1.00
C523   C     0.03477   0.14187   0.71471   0.00000  Uiso   1.00
C524   C     0.01279   0.19179   0.78510   0.00000  Uiso   1.00
C525   C     0.29837   0.19161   0.78502   0.00000  Uiso   1.00
C526   C     0.16713   0.08670   0.74847   0.00000  Uiso   1.00
C527   C     0.19341   0.16645   0.64781   0.00000  Uiso   1.00
C528   C     0.25986   0.12484   0.50841   0.00000  Uiso   1.00
C529   C     0.20955   0.16049   0.58942   0.00000  Uiso   1.00
C530   C     0.07659   0.17435   0.94170   0.00000  Uiso   1.00
C531   C     0.06328   0.17844   0.99761   0.00000  Uiso   1.00
C532   C     0.09681   0.17070   0.52275   0.00000  Uiso   1.00
H533   H     0.27835   0.13199   0.58016   0.00000  Uiso   1.00
H534   H     0.20278   0.03891   0.80711   0.00000  Uiso   1.00
H535   H     0.13268   0.29350   0.68878   0.00000  Uiso   1.00
H536   H     0.31080   0.12196   0.68645   0.00000  Uiso   1.00
H537   H     0.06152   0.12221   0.68624   0.00000  Uiso   1.00
H538   H     0.27145   0.21160   0.81290   0.00000  Uiso   1.00
H539   H     0.26225   0.09628   0.91180   0.00000  Uiso   1.00
H540   H     0.29283   0.10814   0.98668   0.00000  Uiso   1.00
H541   H     0.14583   0.18892   0.58604   0.00000  Uiso   1.00
H542   H     0.05135   0.18383   0.92241   0.00000  Uiso   1.00
H543   H     0.08469   0.17511   0.56617   0.00000  Uiso   1.00
H544   H     0.02752   0.18941   0.52127   0.00000  Uiso   1.00
H545   H     0.20177   0.10770   0.87079   0.00000  Uiso   1.00
H546   H     0.20288   0.29593   0.80820   0.00000  Uiso   1.00
N547   N     0.04760   0.16668   0.75001   0.00000  Uiso   1.00
N548   N     0.28573   0.16665   0.75000   0.00000  Uiso   1.00
O549   O     0.12846   0.22775   0.75000   0.00000  Uiso   1.00
O550   O     0.20490   0.22774   0.75000   0.00000  Uiso   1.00
O551   O     0.10947   0.16666   0.82681   0.00000  Uiso   1.00
O552   O     0.18591   0.16665   0.82681   0.00000  Uiso   1.00
O553   O     0.12843   0.10559   0.74999   0.00000  Uiso   1.00
O554   O     0.20488   0.10558   0.74999   0.00000  Uiso   1.00
O555   O     0.14742   0.16668   0.67319   0.00000  Uiso   1.00
O556   O     0.22387   0.16667   0.67319   0.00000  Uiso   1.00
Zn557  Zn    0.11562   0.16667   0.75000   0.00000  Uiso   1.00
Zn558  Zn    0.21771   0.16666   0.75000   0.00000  Uiso   1.00
Br559  Br    0.12646   0.04734   0.66008   0.00000  Uiso   1.00
Br560  Br    0.02702   0.22865   0.83495   0.00000  Uiso   1.00
C561   C     0.49996   0.24660   0.75018   0.00000  Uiso   1.00
C562   C     0.47707   0.15621   0.99228   0.00000  Uiso   1.00
C563   C     0.48742   0.14548   0.93739   0.00000  Uiso   1.00
C564   C     0.51407   0.15187   0.51445   0.00000  Uiso   1.00
C565   C     0.55731   0.13035   0.98529   0.00000  Uiso   1.00
C566   C     0.56360   0.11409   0.93400   0.00000  Uiso   1.00
C567   C     0.52910   0.12151   0.91027   0.00000  Uiso   1.00
C568   C     0.50956   0.16933   0.56450   0.00000  Uiso   1.00
C569   C     0.58555   0.13916   0.56101   0.00000  Uiso   1.00
C570   C     0.45597   0.15957   0.91103   0.00000  Uiso   1.00
C571   C     0.52101   0.31225   0.78176   0.00000  Uiso   1.00
C572   C     0.47331   0.16404   0.85206   0.00000  Uiso   1.00
C573   C     0.52107   0.02183   0.78094   0.00000  Uiso   1.00
C574   C     0.50101   0.04251   0.74708   0.00000  Uiso   1.00
C575   C     0.48164   0.02069   0.71288   0.00000  Uiso   1.00
C576   C     0.48069   0.31104   0.71491   0.00000  Uiso   1.00
C577   C     0.50025   0.29065   0.74927   0.00000  Uiso   1.00
C578   C     0.65354   0.14181   0.71474   0.00000  Uiso   1.00
C579   C     0.36810   0.14187   0.71471   0.00000  Uiso   1.00
C580   C     0.34612   0.19179   0.78510   0.00000  Uiso   1.00
C581   C     0.63171   0.19161   0.78502   0.00000  Uiso   1.00
C582   C     0.50046   0.08670   0.74847   0.00000  Uiso   1.00
C583   C     0.52674   0.16645   0.64781   0.00000  Uiso   1.00
C584   C     0.59319   0.12484   0.50841   0.00000  Uiso   1.00
C585   C     0.54289   0.16049   0.58942   0.00000  Uiso   1.00
C586   C     0.40993   0.17435   0.94170   0.00000  Uiso   1.00
C587   C     0.39661   0.17844   0.99761   0.00000  Uiso   1.00
C588   C     0.43015   0.17070   0.52275   0.00000  Uiso   1.00
H589   H     0.61168   0.13199   0.58016   0.00000  Uiso   1.00
H590   H     0.53611   0.03891   0.80711   0.00000  Uiso   1.00
H591   H     0.46602   0.29350   0.68878   0.00000  Uiso   1.00
H592   H     0.64414   0.12196   0.68645   0.00000  Uiso   1.00
H593   H     0.39485   0.12221   0.68624   0.00000  Uiso   1.00
H594   H     0.60479   0.21160   0.81290   0.00000  Uiso   1.00
H595   H     0.59558   0.09628   0.91180   0.00000  Uiso   1.00
H596   H     0.62616   0.10814   0.98668   0.00000  Uiso   1.00
H597   H     0.47917   0.18892   0.58604   0.00000  Uiso   1.00
H598   H     0.38469   0.18383   0.92241   0.00000  Uiso   1.00
H599   H     0.41802   0.17511   0.56617   0.00000  Uiso   1.00
H600   H     0.36085   0.18941   0.52127   0.00000  Uiso   1.00
H601   H     0.53510   0.10770   0.87079   0.00000  Uiso   1.00
H602   H     0.53621   0.29593   0.80820   0.00000  Uiso   1.00
N603   N     0.38093   0.16668   0.75001   0.00000  Uiso   1.00
N604   N     0.61906   0.16665   0.75000   0.00000  Uiso   1.00
O605   O     0.46179   0.22775   0.75000   0.00000  Uiso   1.00
O606   O     0.53823   0.22774   0.75000   0.00000  Uiso   1.00
O607   O     0.44280   0.16666   0.82681   0.00000  Uiso   1.00
O608   O     0.51924   0.16665   0.82681   0.00000  Uiso   1.00
O609   O     0.46177   0.10559   0.74999   0.00000  Uiso   1.00
O610   O     0.53821   0.10558   0.74999   0.00000  Uiso   1.00
O611   O     0.48076   0.16668   0.67319   0.00000  Uiso   1.00
O612   O     0.55720   0.16667   0.67319   0.00000  Uiso   1.00
Zn613  Zn    0.44896   0.16667   0.75000   0.00000  Uiso   1.00
Zn614  Zn    0.55104   0.16666   0.75000   0.00000  Uiso   1.00
Br615  Br    0.45980   0.04734   0.66008   0.00000  Uiso   1.00
Br616  Br    0.36035   0.22865   0.83495   0.00000  Uiso   1.00
C617   C     0.83329   0.24660   0.75018   0.00000  Uiso   1.00
C618   C     0.81041   0.15621   0.99228   0.00000  Uiso   1.00
C619   C     0.82075   0.14548   0.93739   0.00000  Uiso   1.00
C620   C     0.84740   0.15187   0.51445   0.00000  Uiso   1.00
C621   C     0.89064   0.13035   0.98529   0.00000  Uiso   1.00
C622   C     0.89693   0.11409   0.93400   0.00000  Uiso   1.00
C623   C     0.86243   0.12151   0.91027   0.00000  Uiso   1.00
C624   C     0.84289   0.16933   0.56450   0.00000  Uiso   1.00
C625   C     0.91889   0.13916   0.56101   0.00000  Uiso   1.00
C626   C     0.78931   0.15957   0.91103   0.00000  Uiso   1.00
C627   C     0.85434   0.31225   0.78176   0.00000  Uiso   1.00
C628   C     0.80665   0.16404   0.85206   0.00000  Uiso   1.00
C629   C     0.85441   0.02183   0.78094   0.00000  Uiso   1.00
C630   C     0.83434   0.04251   0.74708   0.00000  Uiso   1.00
C631   C     0.81497   0.02069   0.71288   0.00000  Uiso   1.00
C632   C     0.81402   0.31104   0.71491   0.00000  Uiso   1.00
C633   C     0.83358   0.29065   0.74927   0.00000  Uiso   1.00
C634   C     0.98688   0.14181   0.71474   0.00000  Uiso   1.00
C635   C     0.70144   0.14187   0.71471   0.00000  Uiso   1.00
C636   C     0.67946   0.19179   0.78510   0.00000  Uiso   1.00
C637   C     0.96504   0.19161   0.78502   0.00000  Uiso   1.00
C638   C     0.83379   0.08670   0.74847   0.00000  Uiso   1.00
C639   C     0.86008   0.16645   0.64781   0.00000  Uiso   1.00
C640   C     0.92653   0.12484   0.50841   0.00000  Uiso   1.00
C641   C     0.87622   0.16049   0.58942   0.00000  Uiso   1.00
C642   C     0.74326   0.17435   0.94170   0.00000  Uiso   1.00
C643   C     0.72995   0.17844   0.99761   0.00000  Uiso   1.00
C644   C     0.76348   0.17070   0.52275   0.00000  Uiso   1.00
H645   H     0.94501   0.13199   0.58016   0.00000  Uiso   1.00
H646   H     0.86945   0.03891   0.80711   0.00000  Uiso   1.00
H647   H     0.79935   0.29350   0.68878   0.00000  Uiso   1.00
H648   H     0.97747   0.12196   0.68645   0.00000  Uiso   1.00
H649   H     0.72818   0.12221   0.68624   0.00000  Uiso   1.00
H650   H     0.93812   0.21160   0.81290   0.00000  Uiso   1.00
H651   H     0.92891   0.09628   0.91180   0.00000  Uiso   1.00
H652   H     0.95950   0.10814   0.98668   0.00000  Uiso   1.00
H653   H     0.81250   0.18892   0.58604   0.00000  Uiso   1.00
H654   H     0.71802   0.18383   0.92241   0.00000  Uiso   1.00
H655   H     0.75135   0.17511   0.56617   0.00000  Uiso   1.00
H656   H     0.69418   0.18941   0.52127   0.00000  Uiso   1.00
H657   H     0.86844   0.10770   0.87079   0.00000  Uiso   1.00
H658   H     0.86955   0.29593   0.80820   0.00000  Uiso   1.00
N659   N     0.71426   0.16668   0.75001   0.00000  Uiso   1.00
N660   N     0.95239   0.16665   0.75000   0.00000  Uiso   1.00
O661   O     0.79512   0.22775   0.75000   0.00000  Uiso   1.00
O662   O     0.87157   0.22774   0.75000   0.00000  Uiso   1.00
O663   O     0.77613   0.16666   0.82681   0.00000  Uiso   1.00
O664   O     0.85258   0.16665   0.82681   0.00000  Uiso   1.00
O665   O     0.79510   0.10559   0.74999   0.00000  Uiso   1.00
O666   O     0.87154   0.10558   0.74999   0.00000  Uiso   1.00
O667   O     0.81409   0.16668   0.67319   0.00000  Uiso   1.00
O668   O     0.89053   0.16667   0.67319   0.00000  Uiso   1.00
Zn669  Zn    0.78229   0.16667   0.75000   0.00000  Uiso   1.00
Zn670  Zn    0.88438   0.16666   0.75000   0.00000  Uiso   1.00
Br671  Br    0.79313   0.04734   0.66008   0.00000  Uiso   1.00
Br672  Br    0.69368   0.22865   0.83495   0.00000  Uiso   1.00
C673   C     0.16662   0.57993   0.75018   0.00000  Uiso   1.00
C674   C     0.14374   0.48954   0.99228   0.00000  Uiso   1.00
C675   C     0.15408   0.47881   0.93739   0.00000  Uiso   1.00
C676   C     0.18073   0.48520   0.51445   0.00000  Uiso   1.00
C677   C     0.22397   0.46368   0.98529   0.00000  Uiso   1.00
C678   C     0.23026   0.44742   0.93400   0.00000  Uiso   1.00
C679   C     0.19576   0.45484   0.91027   0.00000  Uiso   1.00
C680   C     0.17622   0.50266   0.56450   0.00000  Uiso   1.00
C681   C     0.25222   0.47250   0.56101   0.00000  Uiso   1.00
C682   C     0.12264   0.49291   0.91103   0.00000  Uiso   1.00
C683   C     0.18768   0.64558   0.78176   0.00000  Uiso   1.00
C684   C     0.13998   0.49738   0.85206   0.00000  Uiso   1.00
C685   C     0.18774   0.35517   0.78094   0.00000  Uiso   1.00
C686   C     0.16767   0.37585   0.74708   0.00000  Uiso   1.00
C687   C     0.14831   0.35403   0.71288   0.00000  Uiso   1.00
C688   C     0.14736   0.64437   0.71491   0.00000  Uiso   1.00
C689   C     0.16692   0.62398   0.74927   0.00000  Uiso   1.00
C690   C     0.32021   0.47515   0.71474   0.00000  Uiso   1.00
C691   C     0.03477   0.47520   0.71471   0.00000  Uiso   1.00
C692   C     0.01279   0.52513   0.78510   0.00000  Uiso   1.00
C693   C     0.29837   0.52494   0.78502   0.00000  Uiso   1.00
C694   C     0.16713   0.42004   0.74847   0.00000  Uiso   1.00
C695   C     0.19341   0.49978   0.64781   0.00000  Uiso   1.00
C696   C     0.25986   0.45818   0.50841   0.00000  Uiso   1.00
C697   C     0.20955   0.49382   0.58942   0.00000  Uiso   1.00
C698   C     0.07659   0.50769   0.94170   0.00000  Uiso   1.00
C699   C     0.06328   0.51178   0.99761   0.00000  Uiso   1.00
C700   C     0.09681   0.50404   0.52275   0.00000  Uiso   1.00
H701   H     0.27835   0.46532   0.58016   0.00000  Uiso   1.00
H702   H     0.20278   0.37224   0.80711   0.00000  Uiso   1.00
H703   H     0.13268   0.62684   0.68878   0.00000  Uiso   1.00
H704   H     0.31080   0.45529   0.68645   0.00000  Uiso   1.00
H705   H     0.06152   0.45554   0.68624   0.00000  Uiso   1.00
H706   H     0.27145   0.54493   0.81290   0.00000  Uiso   1.00
H707   H     0.26225   0.42962   0.91180   0.00000  Uiso   1.00
H708   H     0.29283   0.44148   0.98668   0.00000  Uiso   1.00
H709   H     0.14583   0.52225   0.58604   0.00000  Uiso   1.00
H710   H     0.05135   0.51717   0.92241   0.00000  Uiso   1.00
H711   H     0.08469   0.50844   0.56617   0.00000  Uiso   1.00
H712   H     0.02752   0.52274   0.52127   0.00000  Uiso   1.00
H713   H     0.20177   0.44104   0.87079   0.00000  Uiso   1.00
H714   H     0.20288   0.62927   0.80820   0.00000  Uiso   1.00
N715   N     0.04760   0.50001   0.75001   0.00000  Uiso   1.00
N716   N     0.28573   0.49998   0.75000   0.00000  Uiso   1.00
O717   O     0.12846   0.56108   0.75000   0.00000  Uiso   1.00
O718   O     0.20490   0.56107   0.75000   0.00000  Uiso   1.00
O719   O     0.10947   0.50000   0.82681   0.00000  Uiso   1.00
O720   O     0.18591   0.49999   0.82681   0.00000  Uiso   1.00
O721   O     0.12843   0.43893   0.74999   0.00000  Uiso   1.00
O722   O     0.20488   0.43892   0.74999   0.00000  Uiso   1.00
O723   O     0.14742   0.50001   0.67319   0.00000  Uiso   1.00
O724   O     0.22387   0.50000   0.67319   0.00000  Uiso   1.00
Zn725  Zn    0.11562   0.50001   0.75000   0.00000  Uiso   1.00
Zn726  Zn    0.21771   0.49999   0.75000   0.00000  Uiso   1.00
Br727  Br    0.12646   0.38068   0.66008   0.00000  Uiso   1.00
Br728  Br    0.02702   0.56198   0.83495   0.00000  Uiso   1.00
C729   C     0.49996   0.57993   0.75018   0.00000  Uiso   1.00
C730   C     0.47707   0.48954   0.99228   0.00000  Uiso   1.00
C731   C     0.48742   0.47881   0.93739   0.00000  Uiso   1.00
C732   C     0.51407   0.48520   0.51445   0.00000  Uiso   1.00
C733   C     0.55731   0.46368   0.98529   0.00000  Uiso   1.00
C734   C     0.56360   0.44742   0.93400   0.00000  Uiso   1.00
C735   C     0.52910   0.45484   0.91027   0.00000  Uiso   1.00
C736   C     0.50956   0.50266   0.56450   0.00000  Uiso   1.00
C737   C     0.58555   0.47250   0.56101   0.00000  Uiso   1.00
C738   C     0.45597   0.49291   0.91103   0.00000  Uiso   1.00
C739   C     0.52101   0.64558   0.78176   0.00000  Uiso   1.00
C740   C     0.47331   0.49738   0.85206   0.00000  Uiso   1.00
C741   C     0.52107   0.35517   0.78094   0.00000  Uiso   1.00
C742   C     0.50101   0.37585   0.74708   0.00000  Uiso   1.00
C743   C     0.48164   0.35403   0.71288   0.00000  Uiso   1.00
C744   C     0.48069   0.64437   0.71491   0.00000  Uiso   1.00
C745   C     0.50025   0.62398   0.74927   0.00000  Uiso   1.00
C746   C     0.65354   0.47515   0.71474   0.00000  Uiso   1.00
C747   C     0.36810   0.47520   0.71471   0.00000  Uiso   1.00
C748   C     0.34612   0.52513   0.78510   0.00000  Uiso   1.00
C749   C     0.63171   0.52494   0.78502   0.00000  Uiso   1.00
C750   C     0.50046   0.42004   0.74847   0.00000  Uiso   1.00
C751   C     0.52674   0.49978   0.64781   0.00000  Uiso   1.00
C752   C     0.59319   0.45818   0.50841   0.00000  Uiso   1.00
C753   C     0.54289   0.49382   0.58942   0.00000  Uiso   1.00
C754   C     0.40993   0.50769   0.94170   0.00000  Uiso   1.00
C755   C     0.39661   0.51178   0.99761   0.00000  Uiso   1.00
C756   C     0.43015   0.50404   0.52275   0.00000  Uiso   1.00
H757   H     0.61168   0.46532   0.58016   0.00000  Uiso   1.00
H758   H     0.53611   0.37224   0.80711   0.00000  Uiso   1.00
H759   H     0.46602   0.62684   0.68878   0.00000  Uiso   1.00
H760   H     0.64414   0.45529   0.68645   0.00000  Uiso   1.00
H761   H     0.39485   0.45554   0.68624   0.00000  Uiso   1.00
H762   H     0.60479   0.54493   0.81290   0.00000  Uiso   1.00
H763   H     0.59558   0.42962   0.91180   0.00000  Uiso   1.00
H764   H     0.62616   0.44148   0.98668   0.00000  Uiso   1.00
H765   H     0.47917   0.52225   0.58604   0.00000  Uiso   1.00
H766   H     0.38469   0.51717   0.92241   0.00000  Uiso   1.00
H767   H     0.41802   0.50844   0.56617   0.00000  Uiso   1.00
H768   H     0.36085   0.52274   0.52127   0.00000  Uiso   1.00
H769   H     0.53510   0.44104   0.87079   0.00000  Uiso   1.00
H770   H     0.53621   0.62927   0.80820   0.00000  Uiso   1.00
N771   N     0.38093   0.50001   0.75001   0.00000  Uiso   1.00
N772   N     0.61906   0.49998   0.75000   0.00000  Uiso   1.00
O773   O     0.46179   0.56108   0.75000   0.00000  Uiso   1.00
O774   O     0.53823   0.56107   0.75000   0.00000  Uiso   1.00
O775   O     0.44280   0.50000   0.82681   0.00000  Uiso   1.00
O776   O     0.51924   0.49999   0.82681   0.00000  Uiso   1.00
O777   O     0.46177   0.43893   0.74999   0.00000  Uiso   1.00
O778   O     0.53821   0.43892   0.74999   0.00000  Uiso   1.00
O779   O     0.48076   0.50001   0.67319   0.00000  Uiso   1.00
O780   O     0.55720   0.50000   0.67319   0.00000  Uiso   1.00
Zn781  Zn    0.44896   0.50001   0.75000   0.00000  Uiso   1.00
Zn782  Zn    0.55104   0.49999   0.75000   0.00000  Uiso   1.00
Br783  Br    0.45980   0.38068   0.66008   0.00000  Uiso   1.00
Br784  Br    0.36035   0.56198   0.83495   0.00000  Uiso   1.00
C785   C     0.83329   0.57993   0.75018   0.00000  Uiso   1.00
C786   C     0.81041   0.48954   0.99228   0.00000  Uiso   1.00
C787   C     0.82075   0.47881   0.93739   0.00000  Uiso   1.00
C788   C     0.84740   0.48520   0.51445   0.00000  Uiso   1.00
C789   C     0.89064   0.46368   0.98529   0.00000  Uiso   1.00
C790   C     0.89693   0.44742   0.93400   0.00000  Uiso   1.00
C791   C     0.86243   0.45484   0.91027   0.00000  Uiso   1.00
C792   C     0.84289   0.50266   0.56450   0.00000  Uiso   1.00
C793   C     0.91889   0.47250   0.56101   0.00000  Uiso   1.00
C794   C     0.78931   0.49291   0.91103   0.00000  Uiso   1.00
C795   C     0.85434   0.64558   0.78176   0.00000  Uiso   1.00
C796   C     0.80665   0.49738   0.85206   0.00000  Uiso   1.00
C797   C     0.85441   0.35517   0.78094   0.00000  Uiso   1.00
C798   C     0.83434   0.37585   0.74708   0.00000  Uiso   1.00
C799   C     0.81497   0.35403   0.71288   0.00000  Uiso   1.00
C800   C     0.81402   0.64437   0.71491   0.00000  Uiso   1.00
C801   C     0.83358   0.62398   0.74927   0.00000  Uiso   1.00
C802   C     0.98688   0.47515   0.71474   0.00000  Uiso   1.00
C803   C     0.70144   0.47520   0.71471   0.00000  Uiso   1.00
C804   C     0.67946   0.52513   0.78510   0.00000  Uiso   1.00
C805   C     0.96504   0.52494   0.78502   0.00000  Uiso   1.00
C806   C     0.83379   0.42004   0.74847   0.00000  Uiso   1.00
C807   C     0.86008   0.49978   0.64781   0.00000  Uiso   1.00
C808   C     0.92653   0.45818   0.50841   0.00000  Uiso   1.00
C809   C     0.87622   0.49382   0.58942   0.00000  Uiso   1.00
C810   C     0.74326   0.50769   0.94170   0.00000  Uiso   1.00
C811   C     0.72995   0.51178   0.99761   0.00000  Uiso   1.00
C812   C     0.76348   0.50404   0.52275   0.00000  Uiso   1.00
H813   H     0.94501   0.46532   0.58016   0.00000  Uiso   1.00
H814   H     0.86945   0.37224   0.80711   0.00000  Uiso   1.00
H815   H     0.79935   0.62684   0.68878   0.00000  Uiso   1.00
H816   H     0.97747   0.45529   0.68645   0.00000  Uiso   1.00
H817   H     0.72818   0.45554   0.68624   0.00000  Uiso   1.00
H818   H     0.93812   0.54493   0.81290   0.00000  Uiso   1.00
H819   H     0.92891   0.42962   0.91180   0.00000  Uiso   1.00
H820   H     0.95950   0.44148   0.98668   0.00000  Uiso   1.00
H821   H     0.81250   0.52225   0.58604   0.00000  Uiso   1.00
H822   H     0.71802   0.51717   0.92241   0.00000  Uiso   1.00
H823   H     0.75135   0.50844   0.56617   0.00000  Uiso   1.00
H824   H     0.69418   0.52274   0.52127   0.00000  Uiso   1.00
H825   H     0.86844   0.44104   0.87079   0.00000  Uiso   1.00
H826   H     0.86955   0.62927   0.80820   0.00000  Uiso   1.00
N827   N     0.71426   0.50001   0.75001   0.00000  Uiso   1.00
N828   N     0.95239   0.49998   0.75000   0.00000  Uiso   1.00
O829   O     0.79512   0.56108   0.75000   0.00000  Uiso   1.00
O830   O     0.87157   0.56107   0.75000   0.00000  Uiso   1.00
O831   O     0.77613   0.50000   0.82681   0.00000  Uiso   1.00
O832   O     0.85258   0.49999   0.82681   0.00000  Uiso   1.00
O833   O     0.79510   0.43893   0.74999   0.00000  Uiso   1.00
O834   O     0.87154   0.43892   0.74999   0.00000  Uiso   1.00
O835   O     0.81409   0.50001   0.67319   0.00000  Uiso   1.00
O836   O     0.89053   0.50000   0.67319   0.00000  Uiso   1.00
Zn837  Zn    0.78229   0.50001   0.75000   0.00000  Uiso   1.00
Zn838  Zn    0.88438   0.49999   0.75000   0.00000  Uiso   1.00
Br839  Br    0.79313   0.38068   0.66008   0.00000  Uiso   1.00
Br840  Br    0.69368   0.56198   0.83495   0.00000  Uiso   1.00
C841   C     0.16662   0.91326   0.75018   0.00000  Uiso   1.00
C842   C     0.14374   0.82287   0.99228   0.00000  Uiso   1.00
C843   C     0.15408   0.81215   0.93739   0.00000  Uiso   1.00
C844   C     0.18073   0.81853   0.51445   0.00000  Uiso   1.00
C845   C     0.22397   0.79701   0.98529   0.00000  Uiso   1.00
C846   C     0.23026   0.78076   0.93400   0.00000  Uiso   1.00
C847   C     0.19576   0.78818   0.91027   0.00000  Uiso   1.00
C848   C     0.17622   0.83599   0.56450   0.00000  Uiso   1.00
C849   C     0.25222   0.80583   0.56101   0.00000  Uiso   1.00
C850   C     0.12264   0.82624   0.91103   0.00000  Uiso   1.00
C851   C     0.18768   0.97891   0.78176   0.00000  Uiso   1.00
C852   C     0.13998   0.83071   0.85206   0.00000  Uiso   1.00
C853   C     0.18774   0.68850   0.78094   0.00000  Uiso   1.00
C854   C     0.16767   0.70918   0.74708   0.00000  Uiso   1.00
C855   C     0.14831   0.68736   0.71288   0.00000  Uiso   1.00
C856   C     0.14736   0.97771   0.71491   0.00000  Uiso   1.00
C857   C     0.16692   0.95732   0.74927   0.00000  Uiso   1.00
C858   C     0.32021   0.80848   0.71474   0.00000  Uiso   1.00
C859   C     0.03477   0.80853   0.71471   0.00000  Uiso   1.00
C860   C     0.01279   0.85846   0.78510   0.00000  Uiso   1.00
C861   C     0.29837   0.85828   0.78502   0.00000  Uiso   1.00
C862   C     0.16713   0.75337   0.74847   0.00000  Uiso   1.00
C863   C     0.19341   0.83312   0.64781   0.00000  Uiso   1.00
C864   C     0.25986   0.79151   0.50841   0.00000  Uiso   1.00
C865   C     0.20955   0.82716   0.58942   0.00000  Uiso   1.00
C866   C     0.07659   0.84102   0.94170   0.00000  Uiso   1.00
C867   C     0.06328   0.84511   0.99761   0.00000  Uiso   1.00
C868   C     0.09681   0.83737   0.52275   0.00000  Uiso   1.00
H869   H     0.27835   0.79866   0.58016   0.00000  Uiso   1.00
H870   H     0.20278   0.70557   0.80711   0.00000  Uiso   1.00
H871   H     0.13268   0.96017   0.68878   0.00000  Uiso   1.00
H872   H     0.31080   0.78863   0.68645   0.00000  Uiso   1.00
H873   H     0.06152   0.78888   0.68624   0.00000  Uiso   1.00
H874   H     0.27145   0.87827   0.81290   0.00000  Uiso   1.00
H875   H     0.26225   0.76295   0.91180   0.00000  Uiso   1.00
H876   H     0.29283   0.77481   0.98668   0.00000  Uiso   1.00
H877   H     0.14583   0.85558   0.58604   0.00000  Uiso   1.00
H878   H     0.05135   0.85050   0.92241   0.00000  Uiso   1.00
H879   H     0.08469   0.84177   0.56617   0.00000  Uiso   1.00
H880   H     0.02752   0.85608   0.52127   0.00000  Uiso   1.00
H881   H     0.20177   0.77437   0.87079   0.00000  Uiso   1.00
H882   H     0.20288   0.96260   0.80820   0.00000  Uiso   1.00
N883   N     0.04760   0.83334   0.75001   0.00000  Uiso   1.00
N884   N     0.28573   0.83331   0.75000   0.00000  Uiso   1.00
O885   O     0.12846   0.89442   0.75000   0.00000  Uiso   1.00
O886   O     0.20490   0.89441   0.75000   0.00000  Uiso   1.00
O887   O     0.10947   0.83333   0.82681   0.00000  Uiso   1.00
O888   O     0.18591   0.83332   0.82681   0.00000  Uiso   1.00
O889   O     0.12843   0.77226   0.74999   0.00000  Uiso   1.00
O890   O     0.20488   0.77225   0.74999   0.00000  Uiso   1.00
O891   O     0.14742   0.83335   0.67319   0.00000  Uiso   1.00
O892   O     0.22387   0.83334   0.67319   0.00000  Uiso   1.00
Zn893  Zn    0.11562   0.83334   0.75000   0.00000  Uiso   1.00
Zn894  Zn    0.21771   0.83333   0.75000   0.00000  Uiso   1.00
Br895  Br    0.12646   0.71401   0.66008   0.00000  Uiso   1.00
Br896  Br    0.02702   0.89532   0.83495   0.00000  Uiso   1.00
C897   C     0.49996   0.91326   0.75018   0.00000  Uiso   1.00
C898   C     0.47707   0.82287   0.99228   0.00000  Uiso   1.00
C899   C     0.48742   0.81215   0.93739   0.00000  Uiso   1.00
C900   C     0.51407   0.81853   0.51445   0.00000  Uiso   1.00
C901   C     0.55731   0.79701   0.98529   0.00000  Uiso   1.00
C902   C     0.56360   0.78076   0.93400   0.00000  Uiso   1.00
C903   C     0.52910   0.78818   0.91027   0.00000  Uiso   1.00
C904   C     0.50956   0.83599   0.56450   0.00000  Uiso   1.00
C905   C     0.58555   0.80583   0.56101   0.00000  Uiso   1.00
C906   C     0.45597   0.82624   0.91103   0.00000  Uiso   1.00
C907   C     0.52101   0.97891   0.78176   0.00000  Uiso   1.00
C908   C     0.47331   0.83071   0.85206   0.00000  Uiso   1.00
C909   C     0.52107   0.68850   0.78094   0.00000  Uiso   1.00
C910   C     0.50101   0.70918   0.74708   0.00000  Uiso   1.00
C911   C     0.48164   0.68736   0.71288   0.00000  Uiso   1.00
C912   C     0.48069   0.97771   0.71491   0.00000  Uiso   1.00
C913   C     0.50025   0.95732   0.74927   0.00000  Uiso   1.00
C914   C     0.65354   0.80848   0.71474   0.00000  Uiso   1.00
C915   C     0.36810   0.80853   0.71471   0.00000  Uiso   1.00
C916   C     0.34612   0.85846   0.78510   0.00000  Uiso   1.00
C917   C     0.63171   0.85828   0.78502   0.00000  Uiso   1.00
C918   C     0.50046   0.75337   0.74847   0.00000  Uiso   1.00
C919   C     0.52674   0.83312   0.64781   0.00000  Uiso   1.00
C920   C     0.59319   0.79151   0.50841   0.00000  Uiso   1.00
C921   C     0.54289   0.82716   0.58942   0.00000  Uiso   1.00
C922   C     0.40993   0.84102   0.94170   0.00000  Uiso   1.00
C923   C     0.39661   0.84511   0.99761   0.00000  Uiso   1.00
C924   C     0.43015   0.83737   0.52275   0.00000  Uiso   1.00
H925   H     0.61168   0.79866   0.58016   0.00000  Uiso   1.00
H926   H     0.53611   0.70557   0.80711   0.00000  Uiso   1.00
H927   H     0.46602   0.96017   0.68878   0.00000  Uiso   1.00
H928   H     0.64414   0.78863   0.68645   0.00000  Uiso   1.00
H929   H     0.39485   0.78888   0.68624   0.00000  Uiso   1.00
H930   H     0.60479   0.87827   0.81290   0.00000  Uiso   1.00
H931   H     0.59558   0.76295   0.91180   0.00000  Uiso   1.00
H932   H     0.62616   0.77481   0.98668   0.00000  Uiso   1.00
H933   H     0.47917   0.85558   0.58604   0.00000  Uiso   1.00
H934   H     0.38469   0.85050   0.92241   0.00000  Uiso   1.00
H935   H     0.41802   0.84177   0.56617   0.00000  Uiso   1.00
H936   H     0.36085   0.85608   0.52127   0.00000  Uiso   1.00
H937   H     0.53510   0.77437   0.87079   0.00000  Uiso   1.00
H938   H     0.53621   0.96260   0.80820   0.00000  Uiso   1.00
N939   N     0.38093   0.83334   0.75001   0.00000  Uiso   1.00
N940   N     0.61906   0.83331   0.75000   0.00000  Uiso   1.00
O941   O     0.46179   0.89442   0.75000   0.00000  Uiso   1.00
O942   O     0.53823   0.89441   0.75000   0.00000  Uiso   1.00
O943   O     0.44280   0.83333   0.82681   0.00000  Uiso   1.00
O944   O     0.51924   0.83332   0.82681   0.00000  Uiso   1.00
O945   O     0.46177   0.77226   0.74999   0.00000  Uiso   1.00
O946   O     0.53821   0.77225   0.74999   0.00000  Uiso   1.00
O947   O     0.48076   0.83335   0.67319   0.00000  Uiso   1.00
O948   O     0.55720   0.83334   0.67319   0.00000  Uiso   1.00
Zn949  Zn    0.44896   0.83334   0.75000   0.00000  Uiso   1.00
Zn950  Zn    0.55104   0.83333   0.75000   0.00000  Uiso   1.00
Br951  Br    0.45980   0.71401   0.66008   0.00000  Uiso   1.00
Br952  Br    0.36035   0.89532   0.83495   0.00000  Uiso   1.00
C953   C     0.83329   0.91326   0.75018   0.00000  Uiso   1.00
C954   C     0.81041   0.82287   0.99228   0.00000  Uiso   1.00
C955   C     0.82075   0.81215   0.93739   0.00000  Uiso   1.00
C956   C     0.84740   0.81853   0.51445   0.00000  Uiso   1.00
C957   C     0.89064   0.79701   0.98529   0.00000  Uiso   1.00
C958   C     0.89693   0.78076   0.93400   0.00000  Uiso   1.00
C959   C     0.86243   0.78818   0.91027   0.00000  Uiso   1.00
C960   C     0.84289   0.83599   0.56450   0.00000  Uiso   1.00
C961   C     0.91889   0.80583   0.56101   0.00000  Uiso   1.00
C962   C     0.78931   0.82624   0.91103   0.00000  Uiso   1.00
C963   C     0.85434   0.97891   0.78176   0.00000  Uiso   1.00
C964   C     0.80665   0.83071   0.85206   0.00000  Uiso   1.00
C965   C     0.85441   0.68850   0.78094   0.00000  Uiso   1.00
C966   C     0.83434   0.70918   0.74708   0.00000  Uiso   1.00
C967   C     0.81497   0.68736   0.71288   0.00000  Uiso   1.00
C968   C     0.81402   0.97771   0.71491   0.00000  Uiso   1.00
C969   C     0.83358   0.95732   0.74927   0.00000  Uiso   1.00
C970   C     0.98688   0.80848   0.71474   0.00000  Uiso   1.00
C971   C     0.70144   0.80853   0.71471   0.00000  Uiso   1.00
C972   C     0.67946   0.85846   0.78510   0.00000  Uiso   1.00
C973   C     0.96504   0.85828   0.78502   0.00000  Uiso   1.00
C974   C     0.83379   0.75337   0.74847   0.00000  Uiso   1.00
C975   C     0.86008   0.83312   0.64781   0.00000  Uiso   1.00
C976   C     0.92653   0.79151   0.50841   0.00000  Uiso   1.00
C977   C     0.87622   0.82716   0.58942   0.00000  Uiso   1.00
C978   C     0.74326   0.84102   0.94170   0.00000  Uiso   1.00
C979   C     0.72995   0.84511   0.99761   0.00000  Uiso   1.00
C980   C     0.76348   0.83737   0.52275   0.00000  Uiso   1.00
H981   H     0.94501   0.79866   0.58016   0.00000  Uiso   1.00
H982   H     0.86945   0.70557   0.80711   0.00000  Uiso   1.00
H983   H     0.79935   0.96017   0.68878   0.00000  Uiso   1.00
H984   H     0.97747   0.78863   0.68645   0.00000  Uiso   1.00
H985   H     0.72818   0.78888   0.68624   0.00000  Uiso   1.00
H986   H     0.93812   0.87827   0.81290   0.00000  Uiso   1.00
H987   H     0.92891   0.76295   0.91180   0.00000  Uiso   1.00
H988   H     0.95950   0.77481   0.98668   0.00000  Uiso   1.00
H989   H     0.81250   0.85558   0.58604   0.00000  Uiso   1.00
H990   H     0.71802   0.85050   0.92241   0.00000  Uiso   1.00
H991   H     0.75135   0.84177   0.56617   0.00000  Uiso   1.00
H992   H     0.69418   0.85608   0.52127   0.00000  Uiso   1.00
H993   H     0.86844   0.77437   0.87079   0.00000  Uiso   1.00
H994   H     0.86955   0.96260   0.80820   0.00000  Uiso   1.00
N995   N     0.71426   0.83334   0.75001   0.00000  Uiso   1.00
N996   N     0.95239   0.83331   0.75000   0.00000  Uiso   1.00
O997   O     0.79512   0.89442   0.75000   0.00000  Uiso   1.00
O998   O     0.87157   0.89441   0.75000   0.00000  Uiso   1.00
O999   O     0.77613   0.83333   0.82681   0.00000  Uiso   1.00
O1000  O     0.85258   0.83332   0.82681   0.00000  Uiso   1.00
O1001  O     0.79510   0.77226   0.74999   0.00000  Uiso   1.00
O1002  O     0.87154   0.77225   0.74999   0.00000  Uiso   1.00
O1003  O     0.81409   0.83335   0.67319   0.00000  Uiso   1.00
O1004  O     0.89053   0.83334   0.67319   0.00000  Uiso   1.00
Zn1005 Zn    0.78229   0.83334   0.75000   0.00000  Uiso   1.00
Zn1006 Zn    0.88438   0.83333   0.75000   0.00000  Uiso   1.00
Br1007 Br    0.79313   0.71401   0.66008   0.00000  Uiso   1.00
Br1008 Br    0.69368   0.89532   0.83495   0.00000  Uiso   1.00
loop_
_geom_bond_atom_site_label_1
_geom_bond_atom_site_label_2
_geom_bond_distance
_geom_bond_site_symmetry_2
_ccdc_geom_bond_type
C1     C17     1.408   .     S
C1     O45     1.282   .     A
C1     O46     1.282   .     A
C2     C3      1.407   .     A
C2     C508    1.414   .     S
C2     C532    1.419   .     S
C3     C10     1.413   .     A
C3     C7      1.415   .     A
C4     C8      1.389   .     A
C4     C506    1.414   1_554 S
C4     C509    1.419   1_554 S
C5     C6      1.392   .     A
C5     C508    1.419   .     S
C5     C528    1.405   .     S
C6     C7      1.389   .     A
C6     H35     1.084   .     S
C7     H41     1.082   .     S
C8     C25     1.389   .     A
C8     H37     1.079   .     S
C9     C24     1.395   .     A
C9     H29     1.083   .     S
C9     C25     1.400   .     A
C10    C12     1.462   .     S
C10    C26     1.402   .     A
C11    H42     1.084   .     S
C11    C17     1.392   .     A
C11    C181    1.372   .     S
C12    O48     1.294   .     A
C12    O47     1.295   .     A
C13    H30     1.084   .     S
C13    C14     1.397   .     A
C13    C347    1.372   1_545 S
C14    C22     1.412   .     S
C14    C15     1.404   .     A
C15    Br55    1.922   .     S
C15    C352    1.375   1_545 S
C16    H31     1.084   .     S
C16    C17     1.393   .     A
C16    C183    1.375   .     S
C18    N44     1.367   .     A
C18    H32     1.082   .     S
C18    C75     1.418   .     S
C19    N43     1.367   .     A
C19    H33     1.080   .     S
C19    C130    1.418   1_455 S
C20    Br56    1.909   .     S
C20    N43     1.375   .     A
C20    C133    1.414   1_455 S
C21    N44     1.361   .     A
C21    H34     1.082   .     S
C21    C76     1.414   .     S
C22    O50     1.283   .     A
C22    O49     1.283   .     A
C23    O52     1.293   .     A
C23    C25     1.452   .     S
C23    O51     1.293   .     A
C24    C509    1.405   1_554 S
C24    H540    1.084   1_554 S
C26    C27     1.388   .     A
C26    H38     1.082   .     S
C27    C532    1.392   .     S
C27    H544    1.083   .     S
C28    H39     1.079   .     S
C28    C506    1.419   1_554 S
C28    C531    1.392   1_554 S
H36    C528    1.084   .     S
H40    C531    1.083   1_554 S
N43    Zn53    2.014   .     S
N44    Zn54    2.014   .     S
O45    Zn53    1.988   .     S
O46    Zn54    1.988   .     S
O47    Zn53    1.962   .     S
O48    Zn54    1.909   .     S
O49    Zn53    1.988   .     S
O50    Zn54    1.988   .     S
O51    Zn53    1.909   .     S
O52    Zn54    1.962   .     S
C57    C73     1.408   .     S
C57    O101    1.282   .     A
C57    O102    1.282   .     A
C58    C59     1.407   .     A
C58    C564    1.414   .     S
C58    C588    1.419   .     S
C59    C66     1.413   .     A
C59    C63     1.415   .     A
C60    C64     1.389   .     A
C60    C562    1.414   1_554 S
C60    C565    1.419   1_554 S
C61    C62     1.392   .     A
C61    C564    1.419   .     S
C61    C584    1.405   .     S
C62    C63     1.389   .     A
C62    H91     1.084   .     S
C63    H97     1.082   .     S
C64    C81     1.389   .     A
C64    H93     1.079   .     S
C65    C80     1.395   .     A
C65    H85     1.083   .     S
C65    C81     1.400   .     A
C66    C68     1.462   .     S
C66    C82     1.402   .     A
C67    H98     1.084   .     S
C67    C73     1.392   .     A
C67    C237    1.372   .     S
C68    O104    1.294   .     A
C68    O103    1.295   .     A
C69    H86     1.084   .     S
C69    C70     1.397   .     A
C69    C403    1.372   1_545 S
C70    C78     1.412   .     S
C70    C71     1.404   .     A
C71    Br111   1.922   .     S
C71    C408    1.375   1_545 S
C72    H87     1.084   .     S
C72    C73     1.393   .     A
C72    C239    1.375   .     S
C74    N100    1.367   .     A
C74    H88     1.082   .     S
C74    C131    1.418   .     S
C75    N99     1.367   .     A
C75    H89     1.080   .     S
C76    Br112   1.909   .     S
C76    N99     1.375   .     A
C77    N100    1.361   .     A
C77    H90     1.082   .     S
C77    C132    1.414   .     S
C78    O106    1.283   .     A
C78    O105    1.283   .     A
C79    O108    1.293   .     A
C79    C81     1.452   .     S
C79    O107    1.293   .     A
C80    C565    1.405   1_554 S
C80    H596    1.084   1_554 S
C82    C83     1.388   .     A
C82    H94     1.082   .     S
C83    C588    1.392   .     S
C83    H600    1.083   .     S
C84    H95     1.079   .     S
C84    C562    1.419   1_554 S
C84    C587    1.392   1_554 S
H92    C584    1.084   .     S
H96    C587    1.083   1_554 S
N99    Zn109   2.014   .     S
N100   Zn110   2.014   .     S
O101   Zn109   1.988   .     S
O102   Zn110   1.988   .     S
O103   Zn109   1.962   .     S
O104   Zn110   1.909   .     S
O105   Zn109   1.988   .     S
O106   Zn110   1.988   .     S
O107   Zn109   1.909   .     S
O108   Zn110   1.962   .     S
C113   C129    1.408   .     S
C113   O157    1.282   .     A
C113   O158    1.282   .     A
C114   C115    1.407   .     A
C114   C620    1.414   .     S
C114   C644    1.419   .     S
C115   C122    1.413   .     A
C115   C119    1.415   .     A
C116   C120    1.389   .     A
C116   C618    1.414   1_554 S
C116   C621    1.419   1_554 S
C117   C118    1.392   .     A
C117   C620    1.419   .     S
C117   C640    1.405   .     S
C118   C119    1.389   .     A
C118   H147    1.084   .     S
C119   H153    1.082   .     S
C120   C137    1.389   .     A
C120   H149    1.079   .     S
C121   C136    1.395   .     A
C121   H141    1.083   .     S
C121   C137    1.400   .     A
C122   C124    1.462   .     S
C122   C138    1.402   .     A
C123   H154    1.084   .     S
C123   C129    1.392   .     A
C123   C293    1.372   .     S
C124   O160    1.294   .     A
C124   O159    1.295   .     A
C125   H142    1.084   .     S
C125   C126    1.397   .     A
C125   C459    1.372   1_545 S
C126   C134    1.412   .     S
C126   C127    1.404   .     A
C127   Br167   1.922   .     S
C127   C464    1.375   1_545 S
C128   H143    1.084   .     S
C128   C129    1.393   .     A
C128   C295    1.375   .     S
C130   N156    1.367   .     A
C130   H144    1.082   .     S
C130   C19     1.418   1_655 S
C131   N155    1.367   .     A
C131   H145    1.080   .     S
C132   Br168   1.909   .     S
C132   N155    1.375   .     A
C133   N156    1.361   .     A
C133   H146    1.082   .     S
C133   C20     1.414   1_655 S
C134   O162    1.283   .     A
C134   O161    1.283   .     A
C135   O164    1.293   .     A
C135   C137    1.452   .     S
C135   O163    1.293   .     A
C136   C621    1.405   1_554 S
C136   H652    1.084   1_554 S
C138   C139    1.388   .     A
C138   H150    1.082   .     S
C139   C644    1.392   .     S
C139   H656    1.083   .     S
C140   H151    1.079   .     S
C140   C618    1.419   1_554 S
C140   C643    1.392   1_554 S
H148   C640    1.084   .     S
H152   C643    1.083   1_554 S
N155   Zn165   2.014   .     S
N156   Zn166   2.014   .     S
O157   Zn165   1.988   .     S
O158   Zn166   1.988   .     S
O159   Zn165   1.962   .     S
O160   Zn166   1.909   .     S
O161   Zn165   1.988   .     S
O162   Zn166   1.988   .     S
O163   Zn165   1.909   .     S
O164   Zn166   1.962   .     S
C169   C185    1.408   .     S
C169   O213    1.282   .     A
C169   O214    1.282   .     A
C170   C171    1.407   .     A
C170   C676    1.414   .     S
C170   C700    1.419   .     S
C171   C178    1.413   .     A
C171   C175    1.415   .     A
C172   C176    1.389   .     A
C172   C674    1.414   1_554 S
C172   C677    1.419   1_554 S
C173   C174    1.392   .     A
C173   C676    1.419   .     S
C173   C696    1.405   .     S
C174   C175    1.389   .     A
C174   H203    1.084   .     S
C175   H209    1.082   .     S
C176   C193    1.389   .     A
C176   H205    1.079   .     S
C177   C192    1.395   .     A
C177   H197    1.083   .     S
C177   C193    1.400   .     A
C178   C180    1.462   .     S
C178   C194    1.402   .     A
C179   H210    1.084   .     S
C179   C185    1.392   .     A
C179   C349    1.372   .     S
C180   O216    1.294   .     A
C180   O215    1.295   .     A
C181   H198    1.084   .     S
C181   C182    1.397   .     A
C182   C190    1.412   .     S
C182   C183    1.404   .     A
C183   Br223   1.922   .     S
C184   H199    1.084   .     S
C184   C185    1.393   .     A
C184   C351    1.375   .     S
C186   N212    1.367   .     A
C186   H200    1.082   .     S
C186   C243    1.418   .     S
C187   N211    1.367   .     A
C187   H201    1.080   .     S
C187   C298    1.418   1_455 S
C188   Br224   1.909   .     S
C188   N211    1.375   .     A
C188   C301    1.414   1_455 S
C189   N212    1.361   .     A
C189   H202    1.082   .     S
C189   C244    1.414   .     S
C190   O218    1.283   .     A
C190   O217    1.283   .     A
C191   O220    1.293   .     A
C191   C193    1.452   .     S
C191   O219    1.293   .     A
C192   C677    1.405   1_554 S
C192   H708    1.084   1_554 S
C194   C195    1.388   .     A
C194   H206    1.082   .     S
C195   C700    1.392   .     S
C195   H712    1.083   .     S
C196   H207    1.079   .     S
C196   C674    1.419   1_554 S
C196   C699    1.392   1_554 S
H204   C696    1.084   .     S
H208   C699    1.083   1_554 S
N211   Zn221   2.014   .     S
N212   Zn222   2.014   .     S
O213   Zn221   1.988   .     S
O214   Zn222   1.988   .     S
O215   Zn221   1.962   .     S
O216   Zn222   1.909   .     S
O217   Zn221   1.988   .     S
O218   Zn222   1.988   .     S
O219   Zn221   1.909   .     S
O220   Zn222   1.962   .     S
C225   C241    1.408   .     S
C225   O269    1.282   .     A
C225   O270    1.282   .     A
C226   C227    1.407   .     A
C226   C732    1.414   .     S
C226   C756    1.419   .     S
C227   C234    1.413   .     A
C227   C231    1.415   .     A
C228   C232    1.389   .     A
C228   C730    1.414   1_554 S
C228   C733    1.419   1_554 S
C229   C230    1.392   .     A
C229   C732    1.419   .     S
C229   C752    1.405   .     S
C230   C231    1.389   .     A
C230   H259    1.084   .     S
C231   H265    1.082   .     S
C232   C249    1.389   .     A
C232   H261    1.079   .     S
C233   C248    1.395   .     A
C233   H253    1.083   .     S
C233   C249    1.400   .     A
C234   C236    1.462   .     S
C234   C250    1.402   .     A
C235   H266    1.084   .     S
C235   C241    1.392   .     A
C235   C405    1.372   .     S
C236   O272    1.294   .     A
C236   O271    1.295   .     A
C237   H254    1.084   .     S
C237   C238    1.397   .     A
C238   C246    1.412   .     S
C238   C239    1.404   .     A
C239   Br279   1.922   .     S
C240   H255    1.084   .     S
C240   C241    1.393   .     A
C240   C407    1.375   .     S
C242   N268    1.367   .     A
C242   H256    1.082   .     S
C242   C299    1.418   .     S
C243   N267    1.367   .     A
C243   H257    1.080   .     S
C244   Br280   1.909   .     S
C244   N267    1.375   .     A
C245   N268    1.361   .     A
C245   H258    1.082   .     S
C245   C300    1.414   .     S
C246   O274    1.283   .     A
C246   O273    1.283   .     A
C247   O276    1.293   .     A
C247   C249    1.452   .     S
C247   O275    1.293   .     A
C248   C733    1.405   1_554 S
C248   H764    1.084   1_554 S
C250   C251    1.388   .     A
C250   H262    1.082   .     S
C251   C756    1.392   .     S
C251   H768    1.083   .     S
C252   H263    1.079   .     S
C252   C730    1.419   1_554 S
C252   C755    1.392   1_554 S
H260   C752    1.084   .     S
H264   C755    1.083   1_554 S
N267   Zn277   2.014   .     S
N268   Zn278   2.014   .     S
O269   Zn277   1.988   .     S
O270   Zn278   1.988   .     S
O271   Zn277   1.962   .     S
O272   Zn278   1.909   .     S
O273   Zn277   1.988   .     S
O274   Zn278   1.988   .     S
O275   Zn277   1.909   .     S
O276   Zn278   1.962   .     S
C281   C297    1.408   .     S
C281   O325    1.282   .     A
C281   O326    1.282   .     A
C282   C283    1.407   .     A
C282   C788    1.414   .     S
C282   C812    1.419   .     S
C283   C290    1.413   .     A
C283   C287    1.415   .     A
C284   C288    1.389   .     A
C284   C786    1.414   1_554 S
C284   C789    1.419   1_554 S
C285   C286    1.392   .     A
C285   C788    1.419   .     S
C285   C808    1.405   .     S
C286   C287    1.389   .     A
C286   H315    1.084   .     S
C287   H321    1.082   .     S
C288   C305    1.389   .     A
C288   H317    1.079   .     S
C289   C304    1.395   .     A
C289   H309    1.083   .     S
C289   C305    1.400   .     A
C290   C292    1.462   .     S
C290   C306    1.402   .     A
C291   H322    1.084   .     S
C291   C297    1.392   .     A
C291   C461    1.372   .     S
C292   O328    1.294   .     A
C292   O327    1.295   .     A
C293   H310    1.084   .     S
C293   C294    1.397   .     A
C294   C302    1.412   .     S
C294   C295    1.404   .     A
C295   Br335   1.922   .     S
C296   H311    1.084   .     S
C296   C297    1.393   .     A
C296   C463    1.375   .     S
C298   N324    1.367   .     A
C298   H312    1.082   .     S
C298   C187    1.418   1_655 S
C299   N323    1.367   .     A
C299   H313    1.080   .     S
C300   Br336   1.909   .     S
C300   N323    1.375   .     A
C301   N324    1.361   .     A
C301   H314    1.082   .     S
C301   C188    1.414   1_655 S
C302   O330    1.283   .     A
C302   O329    1.283   .     A
C303   O332    1.293   .     A
C303   C305    1.452   .     S
C303   O331    1.293   .     A
C304   C789    1.405   1_554 S
C304   H820    1.084   1_554 S
C306   C307    1.388   .     A
C306   H318    1.082   .     S
C307   C812    1.392   .     S
C307   H824    1.083   .     S
C308   H319    1.079   .     S
C308   C786    1.419   1_554 S
C308   C811    1.392   1_554 S
H316   C808    1.084   .     S
H320   C811    1.083   1_554 S
N323   Zn333   2.014   .     S
N324   Zn334   2.014   .     S
O325   Zn333   1.988   .     S
O326   Zn334   1.988   .     S
O327   Zn333   1.962   .     S
O328   Zn334   1.909   .     S
O329   Zn333   1.988   .     S
O330   Zn334   1.988   .     S
O331   Zn333   1.909   .     S
O332   Zn334   1.962   .     S
C337   C353    1.408   .     S
C337   O381    1.282   .     A
C337   O382    1.282   .     A
C338   C339    1.407   .     A
C338   C844    1.414   .     S
C338   C868    1.419   .     S
C339   C346    1.413   .     A
C339   C343    1.415   .     A
C340   C344    1.389   .     A
C340   C842    1.414   1_554 S
C340   C845    1.419   1_554 S
C341   C342    1.392   .     A
C341   C844    1.419   .     S
C341   C864    1.405   .     S
C342   C343    1.389   .     A
C342   H371    1.084   .     S
C343   H377    1.082   .     S
C344   C361    1.389   .     A
C344   H373    1.079   .     S
C345   C360    1.395   .     A
C345   H365    1.083   .     S
C345   C361    1.400   .     A
C346   C348    1.462   .     S
C346   C362    1.402   .     A
C347   H378    1.084   .     S
C347   C353    1.392   .     A
C347   C13     1.372   1_565 S
C348   O384    1.294   .     A
C348   O383    1.295   .     A
C349   H366    1.084   .     S
C349   C350    1.397   .     A
C350   C358    1.412   .     S
C350   C351    1.404   .     A
C351   Br391   1.922   .     S
C352   H367    1.084   .     S
C352   C353    1.393   .     A
C352   C15     1.375   1_565 S
C354   N380    1.367   .     A
C354   H368    1.082   .     S
C354   C411    1.418   .     S
C355   N379    1.367   .     A
C355   H369    1.080   .     S
C355   C466    1.418   1_455 S
C356   Br392   1.909   .     S
C356   N379    1.375   .     A
C356   C469    1.414   1_455 S
C357   N380    1.361   .     A
C357   H370    1.082   .     S
C357   C412    1.414   .     S
C358   O386    1.283   .     A
C358   O385    1.283   .     A
C359   O388    1.293   .     A
C359   C361    1.452   .     S
C359   O387    1.293   .     A
C360   C845    1.405   1_554 S
C360   H876    1.084   1_554 S
C362   C363    1.388   .     A
C362   H374    1.082   .     S
C363   C868    1.392   .     S
C363   H880    1.083   .     S
C364   H375    1.079   .     S
C364   C842    1.419   1_554 S
C364   C867    1.392   1_554 S
H372   C864    1.084   .     S
H376   C867    1.083   1_554 S
N379   Zn389   2.014   .     S
N380   Zn390   2.014   .     S
O381   Zn389   1.988   .     S
O382   Zn390   1.988   .     S
O383   Zn389   1.962   .     S
O384   Zn390   1.909   .     S
O385   Zn389   1.988   .     S
O386   Zn390   1.988   .     S
O387   Zn389   1.909   .     S
O388   Zn390   1.962   .     S
C393   C409    1.408   .     S
C393   O437    1.282   .     A
C393   O438    1.282   .     A
C394   C395    1.407   .     A
C394   C900    1.414   .     S
C394   C924    1.419   .     S
C395   C402    1.413   .     A
C395   C399    1.415   .     A
C396   C400    1.389   .     A
C396   C898    1.414   1_554 S
C396   C901    1.419   1_554 S
C397   C398    1.392   .     A
C397   C900    1.419   .     S
C397   C920    1.405   .     S
C398   C399    1.389   .     A
C398   H427    1.084   .     S
C399   H433    1.082   .     S
C400   C417    1.389   .     A
C400   H429    1.079   .     S
C401   C416    1.395   .     A
C401   H421    1.083   .     S
C401   C417    1.400   .     A
C402   C404    1.462   .     S
C402   C418    1.402   .     A
C403   H434    1.084   .     S
C403   C409    1.392   .     A
C403   C69     1.372   1_565 S
C404   O440    1.294   .     A
C404   O439    1.295   .     A
C405   H422    1.084   .     S
C405   C406    1.397   .     A
C406   C414    1.412   .     S
C406   C407    1.404   .     A
C407   Br447   1.922   .     S
C408   H423    1.084   .     S
C408   C409    1.393   .     A
C408   C71     1.375   1_565 S
C410   N436    1.367   .     A
C410   H424    1.082   .     S
C410   C467    1.418   .     S
C411   N435    1.367   .     A
C411   H425    1.080   .     S
C412   Br448   1.909   .     S
C412   N435    1.375   .     A
C413   N436    1.361   .     A
C413   H426    1.082   .     S
C413   C468    1.414   .     S
C414   O442    1.283   .     A
C414   O441    1.283   .     A
C415   O444    1.293   .     A
C415   C417    1.452   .     S
C415   O443    1.293   .     A
C416   C901    1.405   1_554 S
C416   H932    1.084   1_554 S
C418   C419    1.388   .     A
C418   H430    1.082   .     S
C419   C924    1.392   .     S
C419   H936    1.083   .     S
C420   H431    1.079   .     S
C420   C898    1.419   1_554 S
C420   C923    1.392   1_554 S
H428   C920    1.084   .     S
H432   C923    1.083   1_554 S
N435   Zn445   2.014   .     S
N436   Zn446   2.014   .     S
O437   Zn445   1.988   .     S
O438   Zn446   1.988   .     S
O439   Zn445   1.962   .     S
O440   Zn446   1.909   .     S
O441   Zn445   1.988   .     S
O442   Zn446   1.988   .     S
O443   Zn445   1.909   .     S
O444   Zn446   1.962   .     S
C449   C465    1.408   .     S
C449   O493    1.282   .     A
C449   O494    1.282   .     A
C450   C451    1.407   .     A
C450   C956    1.414   .     S
C450   C980    1.419   .     S
C451   C458    1.413   .     A
C451   C455    1.415   .     A
C452   C456    1.389   .     A
C452   C954    1.414   1_554 S
C452   C957    1.419   1_554 S
C453   C454    1.392   .     A
C453   C956    1.419   .     S
C453   C976    1.405   .     S
C454   C455    1.389   .     A
C454   H483    1.084   .     S
C455   H489    1.082   .     S
C456   C473    1.389   .     A
C456   H485    1.079   .     S
C457   C472    1.395   .     A
C457   H477    1.083   .     S
C457   C473    1.400   .     A
C458   C460    1.462   .     S
C458   C474    1.402   .     A
C459   H490    1.084   .     S
C459   C465    1.392   .     A
C459   C125    1.372   1_565 S
C460   O496    1.294   .     A
C460   O495    1.295   .     A
C461   H478    1.084   .     S
C461   C462    1.397   .     A
C462   C470    1.412   .     S
C462   C463    1.404   .     A
C463   Br503   1.922   .     S
C464   H479    1.084   .     S
C464   C465    1.393   .     A
C464   C127    1.375   1_565 S
C466   N492    1.367   .     A
C466   H480    1.082   .     S
C466   C355    1.418   1_655 S
C467   N491    1.367   .     A
C467   H481    1.080   .     S
C468   Br504   1.909   .     S
C468   N491    1.375   .     A
C469   N492    1.361   .     A
C469   H482    1.082   .     S
C469   C356    1.414   1_655 S
C470   O498    1.283   .     A
C470   O497    1.283   .     A
C471   O500    1.293   .     A
C471   C473    1.452   .     S
C471   O499    1.293   .     A
C472   C957    1.405   1_554 S
C472   H988    1.084   1_554 S
C474   C475    1.388   .     A
C474   H486    1.082   .     S
C475   C980    1.392   .     S
C475   H992    1.083   .     S
C476   H487    1.079   .     S
C476   C954    1.419   1_554 S
C476   C979    1.392   1_554 S
H484   C976    1.084   .     S
H488   C979    1.083   1_554 S
N491   Zn501   2.014   .     S
N492   Zn502   2.014   .     S
O493   Zn501   1.988   .     S
O494   Zn502   1.988   .     S
O495   Zn501   1.962   .     S
O496   Zn502   1.909   .     S
O497   Zn501   1.988   .     S
O498   Zn502   1.988   .     S
O499   Zn501   1.909   .     S
O500   Zn502   1.962   .     S
C505   C521    1.408   .     S
C505   O549    1.282   .     A
C505   O550    1.282   .     A
C506   C507    1.407   .     A
C506   C4      1.414   1_556 S
C506   C28     1.419   1_556 S
C507   C514    1.413   .     A
C507   C511    1.415   .     A
C508   C512    1.389   .     A
C509   C510    1.392   .     A
C509   C4      1.419   1_556 S
C509   C24     1.405   1_556 S
C510   C511    1.389   .     A
C510   H539    1.084   .     S
C511   H545    1.082   .     S
C512   C529    1.389   .     A
C512   H541    1.079   .     S
C513   C528    1.395   .     A
C513   H533    1.083   .     S
C513   C529    1.400   .     A
C514   C516    1.462   .     S
C514   C530    1.402   .     A
C515   H546    1.084   .     S
C515   C521    1.392   .     A
C515   C685    1.372   .     S
C516   O552    1.294   .     A
C516   O551    1.295   .     A
C517   H534    1.084   .     S
C517   C518    1.397   .     A
C517   C851    1.372   1_545 S
C518   C526    1.412   .     S
C518   C519    1.404   .     A
C519   Br559   1.922   .     S
C519   C856    1.375   1_545 S
C520   H535    1.084   .     S
C520   C521    1.393   .     A
C520   C687    1.375   .     S
C522   N548    1.367   .     A
C522   H536    1.082   .     S
C522   C579    1.418   .     S
C523   N547    1.367   .     A
C523   H537    1.080   .     S
C523   C634    1.418   1_455 S
C524   Br560   1.909   .     S
C524   N547    1.375   .     A
C524   C637    1.414   1_455 S
C525   N548    1.361   .     A
C525   H538    1.082   .     S
C525   C580    1.414   .     S
C526   O554    1.283   .     A
C526   O553    1.283   .     A
C527   O556    1.293   .     A
C527   C529    1.452   .     S
C527   O555    1.293   .     A
C530   C531    1.388   .     A
C530   H542    1.082   .     S
C531   C28     1.392   1_556 S
C531   H40     1.083   1_556 S
C532   H543    1.079   .     S
H540   C24     1.084   1_556 S
N547   Zn557   2.014   .     S
N548   Zn558   2.014   .     S
O549   Zn557   1.988   .     S
O550   Zn558   1.988   .     S
O551   Zn557   1.962   .     S
O552   Zn558   1.909   .     S
O553   Zn557   1.988   .     S
O554   Zn558   1.988   .     S
O555   Zn557   1.909   .     S
O556   Zn558   1.962   .     S
C561   C577    1.408   .     S
C561   O605    1.282   .     A
C561   O606    1.282   .     A
C562   C563    1.407   .     A
C562   C60     1.414   1_556 S
C562   C84     1.419   1_556 S
C563   C570    1.413   .     A
C563   C567    1.415   .     A
C564   C568    1.389   .     A
C565   C566    1.392   .     A
C565   C60     1.419   1_556 S
C565   C80     1.405   1_556 S
C566   C567    1.389   .     A
C566   H595    1.084   .     S
C567   H601    1.082   .     S
C568   C585    1.389   .     A
C568   H597    1.079   .     S
C569   C584    1.395   .     A
C569   H589    1.083   .     S
C569   C585    1.400   .     A
C570   C572    1.462   .     S
C570   C586    1.402   .     A
C571   H602    1.084   .     S
C571   C577    1.392   .     A
C571   C741    1.372   .     S
C572   O608    1.294   .     A
C572   O607    1.295   .     A
C573   H590    1.084   .     S
C573   C574    1.397   .     A
C573   C907    1.372   1_545 S
C574   C582    1.412   .     S
C574   C575    1.404   .     A
C575   Br615   1.922   .     S
C575   C912    1.375   1_545 S
C576   H591    1.084   .     S
C576   C577    1.393   .     A
C576   C743    1.375   .     S
C578   N604    1.367   .     A
C578   H592    1.082   .     S
C578   C635    1.418   .     S
C579   N603    1.367   .     A
C579   H593    1.080   .     S
C580   Br616   1.909   .     S
C580   N603    1.375   .     A
C581   N604    1.361   .     A
C581   H594    1.082   .     S
C581   C636    1.414   .     S
C582   O610    1.283   .     A
C582   O609    1.283   .     A
C583   O612    1.293   .     A
C583   C585    1.452   .     S
C583   O611    1.293   .     A
C586   C587    1.388   .     A
C586   H598    1.082   .     S
C587   C84     1.392   1_556 S
C587   H96     1.083   1_556 S
C588   H599    1.079   .     S
H596   C80     1.084   1_556 S
N603   Zn613   2.014   .     S
N604   Zn614   2.014   .     S
O605   Zn613   1.988   .     S
O606   Zn614   1.988   .     S
O607   Zn613   1.962   .     S
O608   Zn614   1.909   .     S
O609   Zn613   1.988   .     S
O610   Zn614   1.988   .     S
O611   Zn613   1.909   .     S
O612   Zn614   1.962   .     S
C617   C633    1.408   .     S
C617   O661    1.282   .     A
C617   O662    1.282   .     A
C618   C619    1.407   .     A
C618   C116    1.414   1_556 S
C618   C140    1.419   1_556 S
C619   C626    1.413   .     A
C619   C623    1.415   .     A
C620   C624    1.389   .     A
C621   C622    1.392   .     A
C621   C116    1.419   1_556 S
C621   C136    1.405   1_556 S
C622   C623    1.389   .     A
C622   H651    1.084   .     S
C623   H657    1.082   .     S
C624   C641    1.389   .     A
C624   H653    1.079   .     S
C625   C640    1.395   .     A
C625   H645    1.083   .     S
C625   C641    1.400   .     A
C626   C628    1.462   .     S
C626   C642    1.402   .     A
C627   H658    1.084   .     S
C627   C633    1.392   .     A
C627   C797    1.372   .     S
C628   O664    1.294   .     A
C628   O663    1.295   .     A
C629   H646    1.084   .     S
C629   C630    1.397   .     A
C629   C963    1.372   1_545 S
C630   C638    1.412   .     S
C630   C631    1.404   .     A
C631   Br671   1.922   .     S
C631   C968    1.375   1_545 S
C632   H647    1.084   .     S
C632   C633    1.393   .     A
C632   C799    1.375   .     S
C634   N660    1.367   .     A
C634   H648    1.082   .     S
C634   C523    1.418   1_655 S
C635   N659    1.367   .     A
C635   H649    1.080   .     S
C636   Br672   1.909   .     S
C636   N659    1.375   .     A
C637   N660    1.361   .     A
C637   H650    1.082   .     S
C637   C524    1.414   1_655 S
C638   O666    1.283   .     A
C638   O665    1.283   .     A
C639   O668    1.293   .     A
C639   C641    1.452   .     S
C639   O667    1.293   .     A
C642   C643    1.388   .     A
C642   H654    1.082   .     S
C643   C140    1.392   1_556 S
C643   H152    1.083   1_556 S
C644   H655    1.079   .     S
H652   C136    1.084   1_556 S
N659   Zn669   2.014   .     S
N660   Zn670   2.014   .     S
O661   Zn669   1.988   .     S
O662   Zn670   1.988   .     S
O663   Zn669   1.962   .     S
O664   Zn670   1.909   .     S
O665   Zn669   1.988   .     S
O666   Zn670   1.988   .     S
O667   Zn669   1.909   .     S
O668   Zn670   1.962   .     S
C673   C689    1.408   .     S
C673   O717    1.282   .     A
C673   O718    1.282   .     A
C674   C675    1.407   .     A
C674   C172    1.414   1_556 S
C674   C196    1.419   1_556 S
C675   C682    1.413   .     A
C675   C679    1.415   .     A
C676   C680    1.389   .     A
C677   C678    1.392   .     A
C677   C172    1.419   1_556 S
C677   C192    1.405   1_556 S
C678   C679    1.389   .     A
C678   H707    1.084   .     S
C679   H713    1.082   .     S
C680   C697    1.389   .     A
C680   H709    1.079   .     S
C681   C696    1.395   .     A
C681   H701    1.083   .     S
C681   C697    1.400   .     A
C682   C684    1.462   .     S
C682   C698    1.402   .     A
C683   H714    1.084   .     S
C683   C689    1.392   .     A
C683   C853    1.372   .     S
C684   O720    1.294   .     A
C684   O719    1.295   .     A
C685   H702    1.084   .     S
C685   C686    1.397   .     A
C686   C694    1.412   .     S
C686   C687    1.404   .     A
C687   Br727   1.922   .     S
C688   H703    1.084   .     S
C688   C689    1.393   .     A
C688   C855    1.375   .     S
C690   N716    1.367   .     A
C690   H704    1.082   .     S
C690   C747    1.418   .     S
C691   N715    1.367   .     A
C691   H705    1.080   .     S
C691   C802    1.418   1_455 S
C692   Br728   1.909   .     S
C692   N715    1.375   .     A
C692   C805    1.414   1_455 S
C693   N716    1.361   .     A
C693   H706    1.082   .     S
C693   C748    1.414   .     S
C694   O722    1.283   .     A
C694   O721    1.283   .     A
C695   O724    1.293   .     A
C695   C697    1.452   .     S
C695   O723    1.293   .     A
C698   C699    1.388   .     A
C698   H710    1.082   .     S
C699   C196    1.392   1_556 S
C699   H208    1.083   1_556 S
C700   H711    1.079   .     S
H708   C192    1.084   1_556 S
N715   Zn725   2.014   .     S
N716   Zn726   2.014   .     S
O717   Zn725   1.988   .     S
O718   Zn726   1.988   .     S
O719   Zn725   1.962   .     S
O720   Zn726   1.909   .     S
O721   Zn725   1.988   .     S
O722   Zn726   1.988   .     S
O723   Zn725   1.909   .     S
O724   Zn726   1.962   .     S
C729   C745    1.408   .     S
C729   O773    1.282   .     A
C729   O774    1.282   .     A
C730   C731    1.407   .     A
C730   C228    1.414   1_556 S
C730   C252    1.419   1_556 S
C731   C738    1.413   .     A
C731   C735    1.415   .     A
C732   C736    1.389   .     A
C733   C734    1.392   .     A
C733   C228    1.419   1_556 S
C733   C248    1.405   1_556 S
C734   C735    1.389   .     A
C734   H763    1.084   .     S
C735   H769    1.082   .     S
C736   C753    1.389   .     A
C736   H765    1.079   .     S
C737   C752    1.395   .     A
C737   H757    1.083   .     S
C737   C753    1.400   .     A
C738   C740    1.462   .     S
C738   C754    1.402   .     A
C739   H770    1.084   .     S
C739   C745    1.392   .     A
C739   C909    1.372   .     S
C740   O776    1.294   .     A
C740   O775    1.295   .     A
C741   H758    1.084   .     S
C741   C742    1.397   .     A
C742   C750    1.412   .     S
C742   C743    1.404   .     A
C743   Br783   1.922   .     S
C744   H759    1.084   .     S
C744   C745    1.393   .     A
C744   C911    1.375   .     S
C746   N772    1.367   .     A
C746   H760    1.082   .     S
C746   C803    1.418   .     S
C747   N771    1.367   .     A
C747   H761    1.080   .     S
C748   Br784   1.909   .     S
C748   N771    1.375   .     A
C749   N772    1.361   .     A
C749   H762    1.082   .     S
C749   C804    1.414   .     S
C750   O778    1.283   .     A
C750   O777    1.283   .     A
C751   O780    1.293   .     A
C751   C753    1.452   .     S
C751   O779    1.293   .     A
C754   C755    1.388   .     A
C754   H766    1.082   .     S
C755   C252    1.392   1_556 S
C755   H264    1.083   1_556 S
C756   H767    1.079   .     S
H764   C248    1.084   1_556 S
N771   Zn781   2.014   .     S
N772   Zn782   2.014   .     S
O773   Zn781   1.988   .     S
O774   Zn782   1.988   .     S
O775   Zn781   1.962   .     S
O776   Zn782   1.909   .     S
O777   Zn781   1.988   .     S
O778   Zn782   1.988   .     S
O779   Zn781   1.909   .     S
O780   Zn782   1.962   .     S
C785   C801    1.408   .     S
C785   O829    1.282   .     A
C785   O830    1.282   .     A
C786   C787    1.407   .     A
C786   C284    1.414   1_556 S
C786   C308    1.419   1_556 S
C787   C794    1.413   .     A
C787   C791    1.415   .     A
C788   C792    1.389   .     A
C789   C790    1.392   .     A
C789   C284    1.419   1_556 S
C789   C304    1.405   1_556 S
C790   C791    1.389   .     A
C790   H819    1.084   .     S
C791   H825    1.082   .     S
C792   C809    1.389   .     A
C792   H821    1.079   .     S
C793   C808    1.395   .     A
C793   H813    1.083   .     S
C793   C809    1.400   .     A
C794   C796    1.462   .     S
C794   C810    1.402   .     A
C795   H826    1.084   .     S
C795   C801    1.392   .     A
C795   C965    1.372   .     S
C796   O832    1.294   .     A
C796   O831    1.295   .     A
C797   H814    1.084   .     S
C797   C798    1.397   .     A
C798   C806    1.412   .     S
C798   C799    1.404   .     A
C799   Br839   1.922   .     S
C800   H815    1.084   .     S
C800   C801    1.393   .     A
C800   C967    1.375   .     S
C802   N828    1.367   .     A
C802   H816    1.082   .     S
C802   C691    1.418   1_655 S
C803   N827    1.367   .     A
C803   H817    1.080   .     S
C804   Br840   1.909   .     S
C804   N827    1.375   .     A
C805   N828    1.361   .     A
C805   H818    1.082   .     S
C805   C692    1.414   1_655 S
C806   O834    1.283   .     A
C806   O833    1.283   .     A
C807   O836    1.293   .     A
C807   C809    1.452   .     S
C807   O835    1.293   .     A
C810   C811    1.388   .     A
C810   H822    1.082   .     S
C811   C308    1.392   1_556 S
C811   H320    1.083   1_556 S
C812   H823    1.079   .     S
H820   C304    1.084   1_556 S
N827   Zn837   2.014   .     S
N828   Zn838   2.014   .     S
O829   Zn837   1.988   .     S
O830   Zn838   1.988   .     S
O831   Zn837   1.962   .     S
O832   Zn838   1.909   .     S
O833   Zn837   1.988   .     S
O834   Zn838   1.988   .     S
O835   Zn837   1.909   .     S
O836   Zn838   1.962   .     S
C841   C857    1.408   .     S
C841   O885    1.282   .     A
C841   O886    1.282   .     A
C842   C843    1.407   .     A
C842   C340    1.414   1_556 S
C842   C364    1.419   1_556 S
C843   C850    1.413   .     A
C843   C847    1.415   .     A
C844   C848    1.389   .     A
C845   C846    1.392   .     A
C845   C340    1.419   1_556 S
C845   C360    1.405   1_556 S
C846   C847    1.389   .     A
C846   H875    1.084   .     S
C847   H881    1.082   .     S
C848   C865    1.389   .     A
C848   H877    1.079   .     S
C849   C864    1.395   .     A
C849   H869    1.083   .     S
C849   C865    1.400   .     A
C850   C852    1.462   .     S
C850   C866    1.402   .     A
C851   H882    1.084   .     S
C851   C857    1.392   .     A
C851   C517    1.372   1_565 S
C852   O888    1.294   .     A
C852   O887    1.295   .     A
C853   H870    1.084   .     S
C853   C854    1.397   .     A
C854   C862    1.412   .     S
C854   C855    1.404   .     A
C855   Br895   1.922   .     S
C856   H871    1.084   .     S
C856   C857    1.393   .     A
C856   C519    1.375   1_565 S
C858   N884    1.367   .     A
C858   H872    1.082   .     S
C858   C915    1.418   .     S
C859   N883    1.367   .     A
C859   H873    1.080   .     S
C859   C970    1.418   1_455 S
C860   Br896   1.909   .     S
C860   N883    1.375   .     A
C860   C973    1.414   1_455 S
C861   N884    1.361   .     A
C861   H874    1.082   .     S
C861   C916    1.414   .     S
C862   O890    1.283   .     A
C862   O889    1.283   .     A
C863   O892    1.293   .     A
C863   C865    1.452   .     S
C863   O891    1.293   .     A
C866   C867    1.388   .     A
C866   H878    1.082   .     S
C867   C364    1.392   1_556 S
C867   H376    1.083   1_556 S
C868   H879    1.079   .     S
H876   C360    1.084   1_556 S
N883   Zn893   2.014   .     S
N884   Zn894   2.014   .     S
O885   Zn893   1.988   .     S
O886   Zn894   1.988   .     S
O887   Zn893   1.962   .     S
O888   Zn894   1.909   .     S
O889   Zn893   1.988   .     S
O890   Zn894   1.988   .     S
O891   Zn893   1.909   .     S
O892   Zn894   1.962   .     S
C897   C913    1.408   .     S
C897   O941    1.282   .     A
C897   O942    1.282   .     A
C898   C899    1.407   .     A
C898   C396    1.414   1_556 S
C898   C420    1.419   1_556 S
C899   C906    1.413   .     A
C899   C903    1.415   .     A
C900   C904    1.389   .     A
C901   C902    1.392   .     A
C901   C396    1.419   1_556 S
C901   C416    1.405   1_556 S
C902   C903    1.389   .     A
C902   H931    1.084   .     S
C903   H937    1.082   .     S
C904   C921    1.389   .     A
C904   H933    1.079   .     S
C905   C920    1.395   .     A
C905   H925    1.083   .     S
C905   C921    1.400   .     A
C906   C908    1.462   .     S
C906   C922    1.402   .     A
C907   H938    1.084   .     S
C907   C913    1.392   .     A
C907   C573    1.372   1_565 S
C908   O944    1.294   .     A
C908   O943    1.295   .     A
C909   H926    1.084   .     S
C909   C910    1.397   .     A
C910   C918    1.412   .     S
C910   C911    1.404   .     A
C911   Br951   1.922   .     S
C912   H927    1.084   .     S
C912   C913    1.393   .     A
C912   C575    1.375   1_565 S
C914   N940    1.367   .     A
C914   H928    1.082   .     S
C914   C971    1.418   .     S
C915   N939    1.367   .     A
C915   H929    1.080   .     S
C916   Br952   1.909   .     S
C916   N939    1.375   .     A
C917   N940    1.361   .     A
C917   H930    1.082   .     S
C917   C972    1.414   .     S
C918   O946    1.283   .     A
C918   O945    1.283   .     A
C919   O948    1.293   .     A
C919   C921    1.452   .     S
C919   O947    1.293   .     A
C922   C923    1.388   .     A
C922   H934    1.082   .     S
C923   C420    1.392   1_556 S
C923   H432    1.083   1_556 S
C924   H935    1.079   .     S
H932   C416    1.084   1_556 S
N939   Zn949   2.014   .     S
N940   Zn950   2.014   .     S
O941   Zn949   1.988   .     S
O942   Zn950   1.988   .     S
O943   Zn949   1.962   .     S
O944   Zn950   1.909   .     S
O945   Zn949   1.988   .     S
O946   Zn950   1.988   .     S
O947   Zn949   1.909   .     S
O948   Zn950   1.962   .     S
C953   C969    1.408   .     S
C953   O997    1.282   .     A
C953   O998    1.282   .     A
C954   C955    1.407   .     A
C954   C452    1.414   1_556 S
C954   C476    1.419   1_556 S
C955   C962    1.413   .     A
C955   C959    1.415   .     A
C956   C960    1.389   .     A
C957   C958    1.392   .     A
C957   C452    1.419   1_556 S
C957   C472    1.405   1_556 S
C958   C959    1.389   .     A
C958   H987    1.084   .     S
C959   H993    1.082   .     S
C960   C977    1.389   .     A
C960   H989    1.079   .     S
C961   C976    1.395   .     A
C961   H981    1.083   .     S
C961   C977    1.400   .     A
C962   C964    1.462   .     S
C962   C978    1.402   .     A
C963   H994    1.084   .     S
C963   C969    1.392   .     A
C963   C629    1.372   1_565 S
C964   O1000   1.294   .     A
C964   O999    1.295   .     A
C965   H982    1.084   .     S
C965   C966    1.397   .     A
C966   C974    1.412   .     S
C966   C967    1.404   .     A
C967   Br1007  1.922   .     S
C968   H983    1.084   .     S
C968   C969    1.393   .     A
C968   C631    1.375   1_565 S
C970   N996    1.367   .     A
C970   H984    1.082   .     S
C970   C859    1.418   1_655 S
C971   N995    1.367   .     A
C971   H985    1.080   .     S
C972   Br1008  1.909   .     S
C972   N995    1.375   .     A
C973   N996    1.361   .     A
C973   H986    1.082   .     S
C973   C860    1.414   1_655 S
C974   O1002   1.283   .     A
C974   O1001   1.283   .     A
C975   O1004   1.293   .     A
C975   C977    1.452   .     S
C975   O1003   1.293   .     A
C978   C979    1.388   .     A
C978   H990    1.082   .     S
C979   C476    1.392   1_556 S
C979   H488    1.083   1_556 S
C980   H991    1.079   .     S
H988   C472    1.084   1_556 S
N995   Zn1005  2.014   .     S
N996   Zn1006  2.014   .     S
O997   Zn1005  1.988   .     S
O998   Zn1006  1.988   .     S
O999   Zn1005  1.962   .     S
O1000  Zn1006  1.909   .     S
O1001  Zn1005  1.988   .     S
O1002  Zn1006  1.988   .     S
O1003  Zn1005  1.909   .     S
O1004  Zn1006  1.962   .     S
