data_str_m3_o10_o16_pcu_sym.40
_audit_creation_date              2020-01-03
_audit_creation_method            'Materials Studio'
_symmetry_space_group_name_H-M    'P1'
_symmetry_Int_Tables_number       1
_symmetry_cell_setting            triclinic
loop_
_symmetry_equiv_pos_as_xyz
  x,y,z
_cell_length_a                    23.4780
_cell_length_b                    25.7078
_cell_length_c                    24.0594
_cell_angle_alpha                 92.3290
_cell_angle_beta                  100.9012
_cell_angle_gamma                 94.2288
loop_
_atom_site_label
_atom_site_type_symbol
_atom_site_fract_x
_atom_site_fract_y
_atom_site_fract_z
_atom_site_U_iso_or_equiv
_atom_site_adp_type
_atom_site_occupancy
C1     C     0.01490   0.26493   0.24863   0.00000  Uiso   1.00
C2     C     0.05261   0.16866   0.41667   0.00000  Uiso   1.00
C3     C     0.02266   0.31951   0.24790   0.00000  Uiso   1.00
C4     C     0.03523   0.16827   0.35537   0.00000  Uiso   1.00
C5     C     0.31075   0.01384   0.25231   0.00000  Uiso   1.00
C6     C     0.31846   0.06841   0.25143   0.00000  Uiso   1.00
C7     C     0.29747   0.16117   0.14450   0.00000  Uiso   1.00
C8     C     0.26566   0.09012   0.00032   0.00000  Uiso   1.00
C9     C     0.27695   0.14868   0.08398   0.00000  Uiso   1.00
C10    C     0.02552   0.20056   0.45069   0.00000  Uiso   1.00
C11    C     0.05008   0.21093   0.00759   0.00000  Uiso   1.00
C12    C     0.13156   0.16058   0.49552   0.00000  Uiso   1.00
C13    C     0.10348   0.19244   0.02974   0.00000  Uiso   1.00
C14    C     0.02329   0.08853   0.07184   0.00000  Uiso   1.00
C15    C     0.10179   0.14360   0.44073   0.00000  Uiso   1.00
C16    C     0.18833   0.14522   0.01351   0.00000  Uiso   1.00
C17    C     0.21014   0.10656   0.48147   0.00000  Uiso   1.00
C18    C     0.17611   0.08458   0.43109   0.00000  Uiso   1.00
C19    C     0.12259   0.10306   0.41069   0.00000  Uiso   1.00
C20    C     0.22450   0.16847   0.06180   0.00000  Uiso   1.00
C21    C     0.29948   0.10990   0.05229   0.00000  Uiso   1.00
H22    H     0.26815   0.32996   0.25653   0.00000  Uiso   1.00
H23    H     0.09745   0.08514   0.37130   0.00000  Uiso   1.00
H24    H     0.06527   0.00340   0.24370   0.00000  Uiso   1.00
H25    H     0.05727   0.10978   0.10275   0.00000  Uiso   1.00
H26    H     0.15656   0.12495   0.20803   0.00000  Uiso   1.00
H27    H     0.17676   0.20839   0.29196   0.00000  Uiso   1.00
H28    H     0.19143   0.05400   0.40673   0.00000  Uiso   1.00
H29    H     0.28196   0.06090   0.47496   0.00000  Uiso   1.00
H30    H     0.21145   0.20106   0.08481   0.00000  Uiso   1.00
H31    H     0.32000   0.21900   0.43284   0.00000  Uiso   1.00
H32    H     0.12091   0.20230   0.07402   0.00000  Uiso   1.00
H33    H     0.02894   0.23516   0.03405   0.00000  Uiso   1.00
N34    N     0.14493   0.15223   0.23543   0.00000  Uiso   1.00
N35    N     0.18840   0.18110   0.26458   0.00000  Uiso   1.00
O36    O     0.29769   0.24629   0.25358   0.00000  Uiso   1.00
O37    O     0.05742   0.23704   0.24424   0.00000  Uiso   1.00
O38    O     0.31490   0.17358   0.33380   0.00000  Uiso   1.00
O39    O     0.07463   0.16433   0.32446   0.00000  Uiso   1.00
O40    O     0.27592   0.09629   0.25577   0.00000  Uiso   1.00
O41    O     0.03565   0.08704   0.24643   0.00000  Uiso   1.00
O42    O     0.25870   0.16901   0.17554   0.00000  Uiso   1.00
O43    O     0.01843   0.15976   0.16620   0.00000  Uiso   1.00
O44    O     0.03391   0.04661   0.05208   0.00000  Uiso   1.00
Zn45   Zn    0.27119   0.17284   0.25624   0.00000  Uiso   1.00
Zn46   Zn    0.06214   0.16049   0.24377   0.00000  Uiso   1.00
C47    C     0.34823   0.26493   0.24863   0.00000  Uiso   1.00
C48    C     0.38595   0.16866   0.41667   0.00000  Uiso   1.00
C49    C     0.35600   0.31951   0.24790   0.00000  Uiso   1.00
C50    C     0.36856   0.16827   0.35537   0.00000  Uiso   1.00
C51    C     0.64409   0.01384   0.25231   0.00000  Uiso   1.00
C52    C     0.65179   0.06841   0.25143   0.00000  Uiso   1.00
C53    C     0.63080   0.16117   0.14450   0.00000  Uiso   1.00
C54    C     0.59899   0.09012   0.00032   0.00000  Uiso   1.00
C55    C     0.61029   0.14868   0.08398   0.00000  Uiso   1.00
C56    C     0.35886   0.20056   0.45069   0.00000  Uiso   1.00
C57    C     0.38341   0.21093   0.00759   0.00000  Uiso   1.00
C58    C     0.46490   0.16058   0.49552   0.00000  Uiso   1.00
C59    C     0.43681   0.19244   0.02974   0.00000  Uiso   1.00
C60    C     0.35663   0.08853   0.07184   0.00000  Uiso   1.00
C61    C     0.43512   0.14360   0.44073   0.00000  Uiso   1.00
C62    C     0.52166   0.14522   0.01351   0.00000  Uiso   1.00
C63    C     0.54348   0.10656   0.48147   0.00000  Uiso   1.00
C64    C     0.50944   0.08458   0.43109   0.00000  Uiso   1.00
C65    C     0.45592   0.10306   0.41069   0.00000  Uiso   1.00
C66    C     0.55783   0.16847   0.06180   0.00000  Uiso   1.00
C67    C     0.63282   0.10990   0.05229   0.00000  Uiso   1.00
H68    H     0.60149   0.32996   0.25653   0.00000  Uiso   1.00
H69    H     0.43078   0.08514   0.37130   0.00000  Uiso   1.00
H70    H     0.39860   0.00340   0.24370   0.00000  Uiso   1.00
H71    H     0.39060   0.10978   0.10275   0.00000  Uiso   1.00
H72    H     0.48989   0.12495   0.20803   0.00000  Uiso   1.00
H73    H     0.51009   0.20839   0.29196   0.00000  Uiso   1.00
H74    H     0.52477   0.05400   0.40673   0.00000  Uiso   1.00
H75    H     0.61529   0.06090   0.47496   0.00000  Uiso   1.00
H76    H     0.54479   0.20106   0.08481   0.00000  Uiso   1.00
H77    H     0.65333   0.21900   0.43284   0.00000  Uiso   1.00
H78    H     0.45424   0.20230   0.07402   0.00000  Uiso   1.00
H79    H     0.36227   0.23516   0.03405   0.00000  Uiso   1.00
N80    N     0.47827   0.15223   0.23543   0.00000  Uiso   1.00
N81    N     0.52173   0.18110   0.26458   0.00000  Uiso   1.00
O82    O     0.63102   0.24629   0.25358   0.00000  Uiso   1.00
O83    O     0.39075   0.23704   0.24424   0.00000  Uiso   1.00
O84    O     0.64823   0.17358   0.33380   0.00000  Uiso   1.00
O85    O     0.40796   0.16433   0.32446   0.00000  Uiso   1.00
O86    O     0.60925   0.09629   0.25577   0.00000  Uiso   1.00
O87    O     0.36898   0.08704   0.24643   0.00000  Uiso   1.00
O88    O     0.59204   0.16901   0.17554   0.00000  Uiso   1.00
O89    O     0.35177   0.15976   0.16620   0.00000  Uiso   1.00
O90    O     0.36725   0.04661   0.05208   0.00000  Uiso   1.00
Zn91   Zn    0.60453   0.17284   0.25624   0.00000  Uiso   1.00
Zn92   Zn    0.39547   0.16049   0.24377   0.00000  Uiso   1.00
C93    C     0.68157   0.26493   0.24863   0.00000  Uiso   1.00
C94    C     0.71928   0.16866   0.41667   0.00000  Uiso   1.00
C95    C     0.68933   0.31951   0.24790   0.00000  Uiso   1.00
C96    C     0.70190   0.16827   0.35537   0.00000  Uiso   1.00
C97    C     0.97742   0.01384   0.25231   0.00000  Uiso   1.00
C98    C     0.98512   0.06841   0.25143   0.00000  Uiso   1.00
C99    C     0.96414   0.16117   0.14450   0.00000  Uiso   1.00
C100   C     0.93232   0.09012   0.00032   0.00000  Uiso   1.00
C101   C     0.94362   0.14868   0.08398   0.00000  Uiso   1.00
C102   C     0.69219   0.20056   0.45069   0.00000  Uiso   1.00
C103   C     0.71675   0.21093   0.00759   0.00000  Uiso   1.00
C104   C     0.79823   0.16058   0.49552   0.00000  Uiso   1.00
C105   C     0.77015   0.19244   0.02974   0.00000  Uiso   1.00
C106   C     0.68996   0.08853   0.07184   0.00000  Uiso   1.00
C107   C     0.76846   0.14360   0.44073   0.00000  Uiso   1.00
C108   C     0.85500   0.14522   0.01351   0.00000  Uiso   1.00
C109   C     0.87681   0.10656   0.48147   0.00000  Uiso   1.00
C110   C     0.84277   0.08458   0.43109   0.00000  Uiso   1.00
C111   C     0.78926   0.10306   0.41069   0.00000  Uiso   1.00
C112   C     0.89117   0.16847   0.06180   0.00000  Uiso   1.00
C113   C     0.96615   0.10990   0.05229   0.00000  Uiso   1.00
H114   H     0.93482   0.32996   0.25653   0.00000  Uiso   1.00
H115   H     0.76412   0.08514   0.37130   0.00000  Uiso   1.00
H116   H     0.73193   0.00340   0.24370   0.00000  Uiso   1.00
H117   H     0.72394   0.10978   0.10275   0.00000  Uiso   1.00
H118   H     0.82323   0.12495   0.20803   0.00000  Uiso   1.00
H119   H     0.84343   0.20839   0.29196   0.00000  Uiso   1.00
H120   H     0.85810   0.05400   0.40673   0.00000  Uiso   1.00
H121   H     0.94863   0.06090   0.47496   0.00000  Uiso   1.00
H122   H     0.87812   0.20106   0.08481   0.00000  Uiso   1.00
H123   H     0.98667   0.21900   0.43284   0.00000  Uiso   1.00
H124   H     0.78757   0.20230   0.07402   0.00000  Uiso   1.00
H125   H     0.69561   0.23516   0.03405   0.00000  Uiso   1.00
N126   N     0.81160   0.15223   0.23543   0.00000  Uiso   1.00
N127   N     0.85507   0.18110   0.26458   0.00000  Uiso   1.00
O128   O     0.96435   0.24629   0.25358   0.00000  Uiso   1.00
O129   O     0.72408   0.23704   0.24424   0.00000  Uiso   1.00
O130   O     0.98157   0.17358   0.33380   0.00000  Uiso   1.00
O131   O     0.74130   0.16433   0.32446   0.00000  Uiso   1.00
O132   O     0.94258   0.09629   0.25577   0.00000  Uiso   1.00
O133   O     0.70231   0.08704   0.24643   0.00000  Uiso   1.00
O134   O     0.92537   0.16901   0.17554   0.00000  Uiso   1.00
O135   O     0.68510   0.15976   0.16620   0.00000  Uiso   1.00
O136   O     0.70058   0.04661   0.05208   0.00000  Uiso   1.00
Zn137  Zn    0.93786   0.17284   0.25624   0.00000  Uiso   1.00
Zn138  Zn    0.72881   0.16049   0.24377   0.00000  Uiso   1.00
C139   C     0.01490   0.59826   0.24863   0.00000  Uiso   1.00
C140   C     0.05261   0.50200   0.41667   0.00000  Uiso   1.00
C141   C     0.02266   0.65285   0.24790   0.00000  Uiso   1.00
C142   C     0.03523   0.50160   0.35537   0.00000  Uiso   1.00
C143   C     0.31075   0.34718   0.25231   0.00000  Uiso   1.00
C144   C     0.31846   0.40174   0.25143   0.00000  Uiso   1.00
C145   C     0.29747   0.49451   0.14450   0.00000  Uiso   1.00
C146   C     0.26566   0.42346   0.00032   0.00000  Uiso   1.00
C147   C     0.27695   0.48202   0.08398   0.00000  Uiso   1.00
C148   C     0.02552   0.53389   0.45069   0.00000  Uiso   1.00
C149   C     0.05008   0.54427   0.00759   0.00000  Uiso   1.00
C150   C     0.13156   0.49391   0.49552   0.00000  Uiso   1.00
C151   C     0.10348   0.52577   0.02974   0.00000  Uiso   1.00
C152   C     0.02329   0.42186   0.07184   0.00000  Uiso   1.00
C153   C     0.10179   0.47694   0.44073   0.00000  Uiso   1.00
C154   C     0.18833   0.47855   0.01351   0.00000  Uiso   1.00
C155   C     0.21014   0.43989   0.48147   0.00000  Uiso   1.00
C156   C     0.17611   0.41792   0.43109   0.00000  Uiso   1.00
C157   C     0.12259   0.43639   0.41069   0.00000  Uiso   1.00
C158   C     0.22450   0.50180   0.06180   0.00000  Uiso   1.00
C159   C     0.29948   0.44324   0.05229   0.00000  Uiso   1.00
H160   H     0.26815   0.66329   0.25653   0.00000  Uiso   1.00
H161   H     0.09745   0.41847   0.37130   0.00000  Uiso   1.00
H162   H     0.06527   0.33674   0.24370   0.00000  Uiso   1.00
H163   H     0.05727   0.44311   0.10275   0.00000  Uiso   1.00
H164   H     0.15656   0.45828   0.20803   0.00000  Uiso   1.00
H165   H     0.17676   0.54172   0.29196   0.00000  Uiso   1.00
H166   H     0.19143   0.38733   0.40673   0.00000  Uiso   1.00
H167   H     0.28196   0.39423   0.47496   0.00000  Uiso   1.00
H168   H     0.21145   0.53440   0.08481   0.00000  Uiso   1.00
H169   H     0.32000   0.55233   0.43284   0.00000  Uiso   1.00
H170   H     0.12091   0.53563   0.07402   0.00000  Uiso   1.00
H171   H     0.02894   0.56849   0.03405   0.00000  Uiso   1.00
N172   N     0.14493   0.48556   0.23543   0.00000  Uiso   1.00
N173   N     0.18840   0.51444   0.26458   0.00000  Uiso   1.00
O174   O     0.29769   0.57963   0.25358   0.00000  Uiso   1.00
O175   O     0.05742   0.57038   0.24424   0.00000  Uiso   1.00
O176   O     0.31490   0.50691   0.33380   0.00000  Uiso   1.00
O177   O     0.07463   0.49766   0.32446   0.00000  Uiso   1.00
O178   O     0.27592   0.42962   0.25577   0.00000  Uiso   1.00
O179   O     0.03565   0.42037   0.24643   0.00000  Uiso   1.00
O180   O     0.25870   0.50234   0.17554   0.00000  Uiso   1.00
O181   O     0.01843   0.49309   0.16620   0.00000  Uiso   1.00
O182   O     0.03391   0.37995   0.05208   0.00000  Uiso   1.00
Zn183  Zn    0.27119   0.50618   0.25624   0.00000  Uiso   1.00
Zn184  Zn    0.06214   0.49382   0.24377   0.00000  Uiso   1.00
C185   C     0.34823   0.59826   0.24863   0.00000  Uiso   1.00
C186   C     0.38595   0.50200   0.41667   0.00000  Uiso   1.00
C187   C     0.35600   0.65285   0.24790   0.00000  Uiso   1.00
C188   C     0.36856   0.50160   0.35537   0.00000  Uiso   1.00
C189   C     0.64409   0.34718   0.25231   0.00000  Uiso   1.00
C190   C     0.65179   0.40174   0.25143   0.00000  Uiso   1.00
C191   C     0.63080   0.49451   0.14450   0.00000  Uiso   1.00
C192   C     0.59899   0.42346   0.00032   0.00000  Uiso   1.00
C193   C     0.61029   0.48202   0.08398   0.00000  Uiso   1.00
C194   C     0.35886   0.53389   0.45069   0.00000  Uiso   1.00
C195   C     0.38341   0.54427   0.00759   0.00000  Uiso   1.00
C196   C     0.46490   0.49391   0.49552   0.00000  Uiso   1.00
C197   C     0.43681   0.52577   0.02974   0.00000  Uiso   1.00
C198   C     0.35663   0.42186   0.07184   0.00000  Uiso   1.00
C199   C     0.43512   0.47694   0.44073   0.00000  Uiso   1.00
C200   C     0.52166   0.47855   0.01351   0.00000  Uiso   1.00
C201   C     0.54348   0.43989   0.48147   0.00000  Uiso   1.00
C202   C     0.50944   0.41792   0.43109   0.00000  Uiso   1.00
C203   C     0.45592   0.43639   0.41069   0.00000  Uiso   1.00
C204   C     0.55783   0.50180   0.06180   0.00000  Uiso   1.00
C205   C     0.63282   0.44324   0.05229   0.00000  Uiso   1.00
H206   H     0.60149   0.66329   0.25653   0.00000  Uiso   1.00
H207   H     0.43078   0.41847   0.37130   0.00000  Uiso   1.00
H208   H     0.39860   0.33674   0.24370   0.00000  Uiso   1.00
H209   H     0.39060   0.44311   0.10275   0.00000  Uiso   1.00
H210   H     0.48989   0.45828   0.20803   0.00000  Uiso   1.00
H211   H     0.51009   0.54172   0.29196   0.00000  Uiso   1.00
H212   H     0.52477   0.38733   0.40673   0.00000  Uiso   1.00
H213   H     0.61529   0.39423   0.47496   0.00000  Uiso   1.00
H214   H     0.54479   0.53440   0.08481   0.00000  Uiso   1.00
H215   H     0.65333   0.55233   0.43284   0.00000  Uiso   1.00
H216   H     0.45424   0.53563   0.07402   0.00000  Uiso   1.00
H217   H     0.36227   0.56849   0.03405   0.00000  Uiso   1.00
N218   N     0.47827   0.48556   0.23543   0.00000  Uiso   1.00
N219   N     0.52173   0.51444   0.26458   0.00000  Uiso   1.00
O220   O     0.63102   0.57963   0.25358   0.00000  Uiso   1.00
O221   O     0.39075   0.57038   0.24424   0.00000  Uiso   1.00
O222   O     0.64823   0.50691   0.33380   0.00000  Uiso   1.00
O223   O     0.40796   0.49766   0.32446   0.00000  Uiso   1.00
O224   O     0.60925   0.42962   0.25577   0.00000  Uiso   1.00
O225   O     0.36898   0.42037   0.24643   0.00000  Uiso   1.00
O226   O     0.59204   0.50234   0.17554   0.00000  Uiso   1.00
O227   O     0.35177   0.49309   0.16620   0.00000  Uiso   1.00
O228   O     0.36725   0.37995   0.05208   0.00000  Uiso   1.00
Zn229  Zn    0.60453   0.50618   0.25624   0.00000  Uiso   1.00
Zn230  Zn    0.39547   0.49382   0.24377   0.00000  Uiso   1.00
C231   C     0.68157   0.59826   0.24863   0.00000  Uiso   1.00
C232   C     0.71928   0.50200   0.41667   0.00000  Uiso   1.00
C233   C     0.68933   0.65285   0.24790   0.00000  Uiso   1.00
C234   C     0.70190   0.50160   0.35537   0.00000  Uiso   1.00
C235   C     0.97742   0.34718   0.25231   0.00000  Uiso   1.00
C236   C     0.98512   0.40174   0.25143   0.00000  Uiso   1.00
C237   C     0.96414   0.49451   0.14450   0.00000  Uiso   1.00
C238   C     0.93232   0.42346   0.00032   0.00000  Uiso   1.00
C239   C     0.94362   0.48202   0.08398   0.00000  Uiso   1.00
C240   C     0.69219   0.53389   0.45069   0.00000  Uiso   1.00
C241   C     0.71675   0.54427   0.00759   0.00000  Uiso   1.00
C242   C     0.79823   0.49391   0.49552   0.00000  Uiso   1.00
C243   C     0.77015   0.52577   0.02974   0.00000  Uiso   1.00
C244   C     0.68996   0.42186   0.07184   0.00000  Uiso   1.00
C245   C     0.76846   0.47694   0.44073   0.00000  Uiso   1.00
C246   C     0.85500   0.47855   0.01351   0.00000  Uiso   1.00
C247   C     0.87681   0.43989   0.48147   0.00000  Uiso   1.00
C248   C     0.84277   0.41792   0.43109   0.00000  Uiso   1.00
C249   C     0.78926   0.43639   0.41069   0.00000  Uiso   1.00
C250   C     0.89117   0.50180   0.06180   0.00000  Uiso   1.00
C251   C     0.96615   0.44324   0.05229   0.00000  Uiso   1.00
H252   H     0.93482   0.66329   0.25653   0.00000  Uiso   1.00
H253   H     0.76412   0.41847   0.37130   0.00000  Uiso   1.00
H254   H     0.73193   0.33674   0.24370   0.00000  Uiso   1.00
H255   H     0.72394   0.44311   0.10275   0.00000  Uiso   1.00
H256   H     0.82323   0.45828   0.20803   0.00000  Uiso   1.00
H257   H     0.84343   0.54172   0.29196   0.00000  Uiso   1.00
H258   H     0.85810   0.38733   0.40673   0.00000  Uiso   1.00
H259   H     0.94863   0.39423   0.47496   0.00000  Uiso   1.00
H260   H     0.87812   0.53440   0.08481   0.00000  Uiso   1.00
H261   H     0.98667   0.55233   0.43284   0.00000  Uiso   1.00
H262   H     0.78757   0.53563   0.07402   0.00000  Uiso   1.00
H263   H     0.69561   0.56849   0.03405   0.00000  Uiso   1.00
N264   N     0.81160   0.48556   0.23543   0.00000  Uiso   1.00
N265   N     0.85507   0.51444   0.26458   0.00000  Uiso   1.00
O266   O     0.96435   0.57963   0.25358   0.00000  Uiso   1.00
O267   O     0.72408   0.57038   0.24424   0.00000  Uiso   1.00
O268   O     0.98157   0.50691   0.33380   0.00000  Uiso   1.00
O269   O     0.74130   0.49766   0.32446   0.00000  Uiso   1.00
O270   O     0.94258   0.42962   0.25577   0.00000  Uiso   1.00
O271   O     0.70231   0.42037   0.24643   0.00000  Uiso   1.00
O272   O     0.92537   0.50234   0.17554   0.00000  Uiso   1.00
O273   O     0.68510   0.49309   0.16620   0.00000  Uiso   1.00
O274   O     0.70058   0.37995   0.05208   0.00000  Uiso   1.00
Zn275  Zn    0.93786   0.50618   0.25624   0.00000  Uiso   1.00
Zn276  Zn    0.72881   0.49382   0.24377   0.00000  Uiso   1.00
C277   C     0.01490   0.93160   0.24863   0.00000  Uiso   1.00
C278   C     0.05261   0.83533   0.41667   0.00000  Uiso   1.00
C279   C     0.02266   0.98618   0.24790   0.00000  Uiso   1.00
C280   C     0.03523   0.83494   0.35537   0.00000  Uiso   1.00
C281   C     0.31075   0.68051   0.25231   0.00000  Uiso   1.00
C282   C     0.31846   0.73508   0.25143   0.00000  Uiso   1.00
C283   C     0.29747   0.82784   0.14450   0.00000  Uiso   1.00
C284   C     0.26566   0.75679   0.00032   0.00000  Uiso   1.00
C285   C     0.27695   0.81535   0.08398   0.00000  Uiso   1.00
C286   C     0.02552   0.86723   0.45069   0.00000  Uiso   1.00
C287   C     0.05008   0.87760   0.00759   0.00000  Uiso   1.00
C288   C     0.13156   0.82724   0.49552   0.00000  Uiso   1.00
C289   C     0.10348   0.85911   0.02974   0.00000  Uiso   1.00
C290   C     0.02329   0.75519   0.07184   0.00000  Uiso   1.00
C291   C     0.10179   0.81027   0.44073   0.00000  Uiso   1.00
C292   C     0.18833   0.81189   0.01351   0.00000  Uiso   1.00
C293   C     0.21014   0.77322   0.48147   0.00000  Uiso   1.00
C294   C     0.17611   0.75125   0.43109   0.00000  Uiso   1.00
C295   C     0.12259   0.76973   0.41069   0.00000  Uiso   1.00
C296   C     0.22450   0.83514   0.06180   0.00000  Uiso   1.00
C297   C     0.29948   0.77657   0.05229   0.00000  Uiso   1.00
H298   H     0.26815   0.99663   0.25653   0.00000  Uiso   1.00
H299   H     0.09745   0.75180   0.37130   0.00000  Uiso   1.00
H300   H     0.06527   0.67007   0.24370   0.00000  Uiso   1.00
H301   H     0.05727   0.77645   0.10275   0.00000  Uiso   1.00
H302   H     0.15656   0.79162   0.20803   0.00000  Uiso   1.00
H303   H     0.17676   0.87505   0.29196   0.00000  Uiso   1.00
H304   H     0.19143   0.72067   0.40673   0.00000  Uiso   1.00
H305   H     0.28196   0.72757   0.47496   0.00000  Uiso   1.00
H306   H     0.21145   0.86773   0.08481   0.00000  Uiso   1.00
H307   H     0.32000   0.88567   0.43284   0.00000  Uiso   1.00
H308   H     0.12091   0.86896   0.07402   0.00000  Uiso   1.00
H309   H     0.02894   0.90183   0.03405   0.00000  Uiso   1.00
N310   N     0.14493   0.81890   0.23543   0.00000  Uiso   1.00
N311   N     0.18840   0.84777   0.26458   0.00000  Uiso   1.00
O312   O     0.29769   0.91296   0.25358   0.00000  Uiso   1.00
O313   O     0.05742   0.90371   0.24424   0.00000  Uiso   1.00
O314   O     0.31490   0.84024   0.33380   0.00000  Uiso   1.00
O315   O     0.07463   0.83099   0.32446   0.00000  Uiso   1.00
O316   O     0.27592   0.76296   0.25577   0.00000  Uiso   1.00
O317   O     0.03565   0.75371   0.24643   0.00000  Uiso   1.00
O318   O     0.25870   0.83567   0.17554   0.00000  Uiso   1.00
O319   O     0.01843   0.82642   0.16620   0.00000  Uiso   1.00
O320   O     0.03391   0.71328   0.05208   0.00000  Uiso   1.00
Zn321  Zn    0.27119   0.83951   0.25624   0.00000  Uiso   1.00
Zn322  Zn    0.06214   0.82716   0.24377   0.00000  Uiso   1.00
C323   C     0.34823   0.93160   0.24863   0.00000  Uiso   1.00
C324   C     0.38595   0.83533   0.41667   0.00000  Uiso   1.00
C325   C     0.35600   0.98618   0.24790   0.00000  Uiso   1.00
C326   C     0.36856   0.83494   0.35537   0.00000  Uiso   1.00
C327   C     0.64409   0.68051   0.25231   0.00000  Uiso   1.00
C328   C     0.65179   0.73508   0.25143   0.00000  Uiso   1.00
C329   C     0.63080   0.82784   0.14450   0.00000  Uiso   1.00
C330   C     0.59899   0.75679   0.00032   0.00000  Uiso   1.00
C331   C     0.61029   0.81535   0.08398   0.00000  Uiso   1.00
C332   C     0.35886   0.86723   0.45069   0.00000  Uiso   1.00
C333   C     0.38341   0.87760   0.00759   0.00000  Uiso   1.00
C334   C     0.46490   0.82724   0.49552   0.00000  Uiso   1.00
C335   C     0.43681   0.85911   0.02974   0.00000  Uiso   1.00
C336   C     0.35663   0.75519   0.07184   0.00000  Uiso   1.00
C337   C     0.43512   0.81027   0.44073   0.00000  Uiso   1.00
C338   C     0.52166   0.81189   0.01351   0.00000  Uiso   1.00
C339   C     0.54348   0.77322   0.48147   0.00000  Uiso   1.00
C340   C     0.50944   0.75125   0.43109   0.00000  Uiso   1.00
C341   C     0.45592   0.76973   0.41069   0.00000  Uiso   1.00
C342   C     0.55783   0.83514   0.06180   0.00000  Uiso   1.00
C343   C     0.63282   0.77657   0.05229   0.00000  Uiso   1.00
H344   H     0.60149   0.99663   0.25653   0.00000  Uiso   1.00
H345   H     0.43078   0.75180   0.37130   0.00000  Uiso   1.00
H346   H     0.39860   0.67007   0.24370   0.00000  Uiso   1.00
H347   H     0.39060   0.77645   0.10275   0.00000  Uiso   1.00
H348   H     0.48989   0.79162   0.20803   0.00000  Uiso   1.00
H349   H     0.51009   0.87505   0.29196   0.00000  Uiso   1.00
H350   H     0.52477   0.72067   0.40673   0.00000  Uiso   1.00
H351   H     0.61529   0.72757   0.47496   0.00000  Uiso   1.00
H352   H     0.54479   0.86773   0.08481   0.00000  Uiso   1.00
H353   H     0.65333   0.88567   0.43284   0.00000  Uiso   1.00
H354   H     0.45424   0.86896   0.07402   0.00000  Uiso   1.00
H355   H     0.36227   0.90183   0.03405   0.00000  Uiso   1.00
N356   N     0.47827   0.81890   0.23543   0.00000  Uiso   1.00
N357   N     0.52173   0.84777   0.26458   0.00000  Uiso   1.00
O358   O     0.63102   0.91296   0.25358   0.00000  Uiso   1.00
O359   O     0.39075   0.90371   0.24424   0.00000  Uiso   1.00
O360   O     0.64823   0.84024   0.33380   0.00000  Uiso   1.00
O361   O     0.40796   0.83099   0.32446   0.00000  Uiso   1.00
O362   O     0.60925   0.76296   0.25577   0.00000  Uiso   1.00
O363   O     0.36898   0.75371   0.24643   0.00000  Uiso   1.00
O364   O     0.59204   0.83567   0.17554   0.00000  Uiso   1.00
O365   O     0.35177   0.82642   0.16620   0.00000  Uiso   1.00
O366   O     0.36725   0.71328   0.05208   0.00000  Uiso   1.00
Zn367  Zn    0.60453   0.83951   0.25624   0.00000  Uiso   1.00
Zn368  Zn    0.39547   0.82716   0.24377   0.00000  Uiso   1.00
C369   C     0.68157   0.93160   0.24863   0.00000  Uiso   1.00
C370   C     0.71928   0.83533   0.41667   0.00000  Uiso   1.00
C371   C     0.68933   0.98618   0.24790   0.00000  Uiso   1.00
C372   C     0.70190   0.83494   0.35537   0.00000  Uiso   1.00
C373   C     0.97742   0.68051   0.25231   0.00000  Uiso   1.00
C374   C     0.98512   0.73508   0.25143   0.00000  Uiso   1.00
C375   C     0.96414   0.82784   0.14450   0.00000  Uiso   1.00
C376   C     0.93232   0.75679   0.00032   0.00000  Uiso   1.00
C377   C     0.94362   0.81535   0.08398   0.00000  Uiso   1.00
C378   C     0.69219   0.86723   0.45069   0.00000  Uiso   1.00
C379   C     0.71675   0.87760   0.00759   0.00000  Uiso   1.00
C380   C     0.79823   0.82724   0.49552   0.00000  Uiso   1.00
C381   C     0.77015   0.85911   0.02974   0.00000  Uiso   1.00
C382   C     0.68996   0.75519   0.07184   0.00000  Uiso   1.00
C383   C     0.76846   0.81027   0.44073   0.00000  Uiso   1.00
C384   C     0.85500   0.81189   0.01351   0.00000  Uiso   1.00
C385   C     0.87681   0.77322   0.48147   0.00000  Uiso   1.00
C386   C     0.84277   0.75125   0.43109   0.00000  Uiso   1.00
C387   C     0.78926   0.76973   0.41069   0.00000  Uiso   1.00
C388   C     0.89117   0.83514   0.06180   0.00000  Uiso   1.00
C389   C     0.96615   0.77657   0.05229   0.00000  Uiso   1.00
H390   H     0.93482   0.99663   0.25653   0.00000  Uiso   1.00
H391   H     0.76412   0.75180   0.37130   0.00000  Uiso   1.00
H392   H     0.73193   0.67007   0.24370   0.00000  Uiso   1.00
H393   H     0.72394   0.77645   0.10275   0.00000  Uiso   1.00
H394   H     0.82323   0.79162   0.20803   0.00000  Uiso   1.00
H395   H     0.84343   0.87505   0.29196   0.00000  Uiso   1.00
H396   H     0.85810   0.72067   0.40673   0.00000  Uiso   1.00
H397   H     0.94863   0.72757   0.47496   0.00000  Uiso   1.00
H398   H     0.87812   0.86773   0.08481   0.00000  Uiso   1.00
H399   H     0.98667   0.88567   0.43284   0.00000  Uiso   1.00
H400   H     0.78757   0.86896   0.07402   0.00000  Uiso   1.00
H401   H     0.69561   0.90183   0.03405   0.00000  Uiso   1.00
N402   N     0.81160   0.81890   0.23543   0.00000  Uiso   1.00
N403   N     0.85507   0.84777   0.26458   0.00000  Uiso   1.00
O404   O     0.96435   0.91296   0.25358   0.00000  Uiso   1.00
O405   O     0.72408   0.90371   0.24424   0.00000  Uiso   1.00
O406   O     0.98157   0.84024   0.33380   0.00000  Uiso   1.00
O407   O     0.74130   0.83099   0.32446   0.00000  Uiso   1.00
O408   O     0.94258   0.76296   0.25577   0.00000  Uiso   1.00
O409   O     0.70231   0.75371   0.24643   0.00000  Uiso   1.00
O410   O     0.92537   0.83567   0.17554   0.00000  Uiso   1.00
O411   O     0.68510   0.82642   0.16620   0.00000  Uiso   1.00
O412   O     0.70058   0.71328   0.05208   0.00000  Uiso   1.00
Zn413  Zn    0.93786   0.83951   0.25624   0.00000  Uiso   1.00
Zn414  Zn    0.72881   0.82716   0.24377   0.00000  Uiso   1.00
C415   C     0.01490   0.26493   0.74863   0.00000  Uiso   1.00
C416   C     0.05261   0.16866   0.91667   0.00000  Uiso   1.00
C417   C     0.02266   0.31951   0.74790   0.00000  Uiso   1.00
C418   C     0.03523   0.16827   0.85537   0.00000  Uiso   1.00
C419   C     0.31075   0.01384   0.75231   0.00000  Uiso   1.00
C420   C     0.31846   0.06841   0.75143   0.00000  Uiso   1.00
C421   C     0.29747   0.16117   0.64450   0.00000  Uiso   1.00
C422   C     0.26566   0.09012   0.50032   0.00000  Uiso   1.00
C423   C     0.27695   0.14868   0.58398   0.00000  Uiso   1.00
C424   C     0.02552   0.20056   0.95069   0.00000  Uiso   1.00
C425   C     0.05008   0.21093   0.50759   0.00000  Uiso   1.00
C426   C     0.13156   0.16058   0.99552   0.00000  Uiso   1.00
C427   C     0.10348   0.19244   0.52974   0.00000  Uiso   1.00
C428   C     0.02329   0.08853   0.57184   0.00000  Uiso   1.00
C429   C     0.10179   0.14360   0.94073   0.00000  Uiso   1.00
C430   C     0.18833   0.14522   0.51351   0.00000  Uiso   1.00
C431   C     0.21014   0.10656   0.98147   0.00000  Uiso   1.00
C432   C     0.17611   0.08458   0.93109   0.00000  Uiso   1.00
C433   C     0.12259   0.10306   0.91069   0.00000  Uiso   1.00
C434   C     0.22450   0.16847   0.56180   0.00000  Uiso   1.00
C435   C     0.29948   0.10990   0.55229   0.00000  Uiso   1.00
H436   H     0.26815   0.32996   0.75653   0.00000  Uiso   1.00
H437   H     0.09745   0.08514   0.87130   0.00000  Uiso   1.00
H438   H     0.06527   0.00340   0.74370   0.00000  Uiso   1.00
H439   H     0.05727   0.10978   0.60275   0.00000  Uiso   1.00
H440   H     0.15656   0.12495   0.70803   0.00000  Uiso   1.00
H441   H     0.17676   0.20839   0.79196   0.00000  Uiso   1.00
H442   H     0.19143   0.05400   0.90673   0.00000  Uiso   1.00
H443   H     0.28196   0.06090   0.97496   0.00000  Uiso   1.00
H444   H     0.21145   0.20106   0.58481   0.00000  Uiso   1.00
H445   H     0.32000   0.21900   0.93284   0.00000  Uiso   1.00
H446   H     0.12091   0.20230   0.57402   0.00000  Uiso   1.00
H447   H     0.02894   0.23516   0.53405   0.00000  Uiso   1.00
N448   N     0.14493   0.15223   0.73543   0.00000  Uiso   1.00
N449   N     0.18840   0.18110   0.76458   0.00000  Uiso   1.00
O450   O     0.29769   0.24629   0.75358   0.00000  Uiso   1.00
O451   O     0.05742   0.23704   0.74424   0.00000  Uiso   1.00
O452   O     0.31490   0.17358   0.83380   0.00000  Uiso   1.00
O453   O     0.07463   0.16433   0.82446   0.00000  Uiso   1.00
O454   O     0.27592   0.09629   0.75577   0.00000  Uiso   1.00
O455   O     0.03565   0.08704   0.74643   0.00000  Uiso   1.00
O456   O     0.25870   0.16901   0.67554   0.00000  Uiso   1.00
O457   O     0.01843   0.15976   0.66620   0.00000  Uiso   1.00
O458   O     0.03391   0.04661   0.55208   0.00000  Uiso   1.00
Zn459  Zn    0.27119   0.17284   0.75624   0.00000  Uiso   1.00
Zn460  Zn    0.06214   0.16049   0.74377   0.00000  Uiso   1.00
C461   C     0.34823   0.26493   0.74863   0.00000  Uiso   1.00
C462   C     0.38595   0.16866   0.91667   0.00000  Uiso   1.00
C463   C     0.35600   0.31951   0.74790   0.00000  Uiso   1.00
C464   C     0.36856   0.16827   0.85537   0.00000  Uiso   1.00
C465   C     0.64409   0.01384   0.75231   0.00000  Uiso   1.00
C466   C     0.65179   0.06841   0.75143   0.00000  Uiso   1.00
C467   C     0.63080   0.16117   0.64450   0.00000  Uiso   1.00
C468   C     0.59899   0.09012   0.50032   0.00000  Uiso   1.00
C469   C     0.61029   0.14868   0.58398   0.00000  Uiso   1.00
C470   C     0.35886   0.20056   0.95069   0.00000  Uiso   1.00
C471   C     0.38341   0.21093   0.50759   0.00000  Uiso   1.00
C472   C     0.46490   0.16058   0.99552   0.00000  Uiso   1.00
C473   C     0.43681   0.19244   0.52974   0.00000  Uiso   1.00
C474   C     0.35663   0.08853   0.57184   0.00000  Uiso   1.00
C475   C     0.43512   0.14360   0.94073   0.00000  Uiso   1.00
C476   C     0.52166   0.14522   0.51351   0.00000  Uiso   1.00
C477   C     0.54348   0.10656   0.98147   0.00000  Uiso   1.00
C478   C     0.50944   0.08458   0.93109   0.00000  Uiso   1.00
C479   C     0.45592   0.10306   0.91069   0.00000  Uiso   1.00
C480   C     0.55783   0.16847   0.56180   0.00000  Uiso   1.00
C481   C     0.63282   0.10990   0.55229   0.00000  Uiso   1.00
H482   H     0.60149   0.32996   0.75653   0.00000  Uiso   1.00
H483   H     0.43078   0.08514   0.87130   0.00000  Uiso   1.00
H484   H     0.39860   0.00340   0.74370   0.00000  Uiso   1.00
H485   H     0.39060   0.10978   0.60275   0.00000  Uiso   1.00
H486   H     0.48989   0.12495   0.70803   0.00000  Uiso   1.00
H487   H     0.51009   0.20839   0.79196   0.00000  Uiso   1.00
H488   H     0.52477   0.05400   0.90673   0.00000  Uiso   1.00
H489   H     0.61529   0.06090   0.97496   0.00000  Uiso   1.00
H490   H     0.54479   0.20106   0.58481   0.00000  Uiso   1.00
H491   H     0.65333   0.21900   0.93284   0.00000  Uiso   1.00
H492   H     0.45424   0.20230   0.57402   0.00000  Uiso   1.00
H493   H     0.36227   0.23516   0.53405   0.00000  Uiso   1.00
N494   N     0.47827   0.15223   0.73543   0.00000  Uiso   1.00
N495   N     0.52173   0.18110   0.76458   0.00000  Uiso   1.00
O496   O     0.63102   0.24629   0.75358   0.00000  Uiso   1.00
O497   O     0.39075   0.23704   0.74424   0.00000  Uiso   1.00
O498   O     0.64823   0.17358   0.83380   0.00000  Uiso   1.00
O499   O     0.40796   0.16433   0.82446   0.00000  Uiso   1.00
O500   O     0.60925   0.09629   0.75577   0.00000  Uiso   1.00
O501   O     0.36898   0.08704   0.74643   0.00000  Uiso   1.00
O502   O     0.59204   0.16901   0.67554   0.00000  Uiso   1.00
O503   O     0.35177   0.15976   0.66620   0.00000  Uiso   1.00
O504   O     0.36725   0.04661   0.55208   0.00000  Uiso   1.00
Zn505  Zn    0.60453   0.17284   0.75624   0.00000  Uiso   1.00
Zn506  Zn    0.39547   0.16049   0.74377   0.00000  Uiso   1.00
C507   C     0.68157   0.26493   0.74863   0.00000  Uiso   1.00
C508   C     0.71928   0.16866   0.91667   0.00000  Uiso   1.00
C509   C     0.68933   0.31951   0.74790   0.00000  Uiso   1.00
C510   C     0.70190   0.16827   0.85537   0.00000  Uiso   1.00
C511   C     0.97742   0.01384   0.75231   0.00000  Uiso   1.00
C512   C     0.98512   0.06841   0.75143   0.00000  Uiso   1.00
C513   C     0.96414   0.16117   0.64450   0.00000  Uiso   1.00
C514   C     0.93232   0.09012   0.50032   0.00000  Uiso   1.00
C515   C     0.94362   0.14868   0.58398   0.00000  Uiso   1.00
C516   C     0.69219   0.20056   0.95069   0.00000  Uiso   1.00
C517   C     0.71675   0.21093   0.50759   0.00000  Uiso   1.00
C518   C     0.79823   0.16058   0.99552   0.00000  Uiso   1.00
C519   C     0.77015   0.19244   0.52974   0.00000  Uiso   1.00
C520   C     0.68996   0.08853   0.57184   0.00000  Uiso   1.00
C521   C     0.76846   0.14360   0.94073   0.00000  Uiso   1.00
C522   C     0.85500   0.14522   0.51351   0.00000  Uiso   1.00
C523   C     0.87681   0.10656   0.98147   0.00000  Uiso   1.00
C524   C     0.84277   0.08458   0.93109   0.00000  Uiso   1.00
C525   C     0.78926   0.10306   0.91069   0.00000  Uiso   1.00
C526   C     0.89117   0.16847   0.56180   0.00000  Uiso   1.00
C527   C     0.96615   0.10990   0.55229   0.00000  Uiso   1.00
H528   H     0.93482   0.32996   0.75653   0.00000  Uiso   1.00
H529   H     0.76412   0.08514   0.87130   0.00000  Uiso   1.00
H530   H     0.73193   0.00340   0.74370   0.00000  Uiso   1.00
H531   H     0.72394   0.10978   0.60275   0.00000  Uiso   1.00
H532   H     0.82323   0.12495   0.70803   0.00000  Uiso   1.00
H533   H     0.84343   0.20839   0.79196   0.00000  Uiso   1.00
H534   H     0.85810   0.05400   0.90673   0.00000  Uiso   1.00
H535   H     0.94863   0.06090   0.97496   0.00000  Uiso   1.00
H536   H     0.87812   0.20106   0.58481   0.00000  Uiso   1.00
H537   H     0.98667   0.21900   0.93284   0.00000  Uiso   1.00
H538   H     0.78757   0.20230   0.57402   0.00000  Uiso   1.00
H539   H     0.69561   0.23516   0.53405   0.00000  Uiso   1.00
N540   N     0.81160   0.15223   0.73543   0.00000  Uiso   1.00
N541   N     0.85507   0.18110   0.76458   0.00000  Uiso   1.00
O542   O     0.96435   0.24629   0.75358   0.00000  Uiso   1.00
O543   O     0.72408   0.23704   0.74424   0.00000  Uiso   1.00
O544   O     0.98157   0.17358   0.83380   0.00000  Uiso   1.00
O545   O     0.74130   0.16433   0.82446   0.00000  Uiso   1.00
O546   O     0.94258   0.09629   0.75577   0.00000  Uiso   1.00
O547   O     0.70231   0.08704   0.74643   0.00000  Uiso   1.00
O548   O     0.92537   0.16901   0.67554   0.00000  Uiso   1.00
O549   O     0.68510   0.15976   0.66620   0.00000  Uiso   1.00
O550   O     0.70058   0.04661   0.55208   0.00000  Uiso   1.00
Zn551  Zn    0.93786   0.17284   0.75624   0.00000  Uiso   1.00
Zn552  Zn    0.72881   0.16049   0.74377   0.00000  Uiso   1.00
C553   C     0.01490   0.59826   0.74863   0.00000  Uiso   1.00
C554   C     0.05261   0.50200   0.91667   0.00000  Uiso   1.00
C555   C     0.02266   0.65285   0.74790   0.00000  Uiso   1.00
C556   C     0.03523   0.50160   0.85537   0.00000  Uiso   1.00
C557   C     0.31075   0.34718   0.75231   0.00000  Uiso   1.00
C558   C     0.31846   0.40174   0.75143   0.00000  Uiso   1.00
C559   C     0.29747   0.49451   0.64450   0.00000  Uiso   1.00
C560   C     0.26566   0.42346   0.50032   0.00000  Uiso   1.00
C561   C     0.27695   0.48202   0.58398   0.00000  Uiso   1.00
C562   C     0.02552   0.53389   0.95069   0.00000  Uiso   1.00
C563   C     0.05008   0.54427   0.50759   0.00000  Uiso   1.00
C564   C     0.13156   0.49391   0.99552   0.00000  Uiso   1.00
C565   C     0.10348   0.52577   0.52974   0.00000  Uiso   1.00
C566   C     0.02329   0.42186   0.57184   0.00000  Uiso   1.00
C567   C     0.10179   0.47694   0.94073   0.00000  Uiso   1.00
C568   C     0.18833   0.47855   0.51351   0.00000  Uiso   1.00
C569   C     0.21014   0.43989   0.98147   0.00000  Uiso   1.00
C570   C     0.17611   0.41792   0.93109   0.00000  Uiso   1.00
C571   C     0.12259   0.43639   0.91069   0.00000  Uiso   1.00
C572   C     0.22450   0.50180   0.56180   0.00000  Uiso   1.00
C573   C     0.29948   0.44324   0.55229   0.00000  Uiso   1.00
H574   H     0.26815   0.66329   0.75653   0.00000  Uiso   1.00
H575   H     0.09745   0.41847   0.87130   0.00000  Uiso   1.00
H576   H     0.06527   0.33674   0.74370   0.00000  Uiso   1.00
H577   H     0.05727   0.44311   0.60275   0.00000  Uiso   1.00
H578   H     0.15656   0.45828   0.70803   0.00000  Uiso   1.00
H579   H     0.17676   0.54172   0.79196   0.00000  Uiso   1.00
H580   H     0.19143   0.38733   0.90673   0.00000  Uiso   1.00
H581   H     0.28196   0.39423   0.97496   0.00000  Uiso   1.00
H582   H     0.21145   0.53440   0.58481   0.00000  Uiso   1.00
H583   H     0.32000   0.55233   0.93284   0.00000  Uiso   1.00
H584   H     0.12091   0.53563   0.57402   0.00000  Uiso   1.00
H585   H     0.02894   0.56849   0.53405   0.00000  Uiso   1.00
N586   N     0.14493   0.48556   0.73543   0.00000  Uiso   1.00
N587   N     0.18840   0.51444   0.76458   0.00000  Uiso   1.00
O588   O     0.29769   0.57963   0.75358   0.00000  Uiso   1.00
O589   O     0.05742   0.57038   0.74424   0.00000  Uiso   1.00
O590   O     0.31490   0.50691   0.83380   0.00000  Uiso   1.00
O591   O     0.07463   0.49766   0.82446   0.00000  Uiso   1.00
O592   O     0.27592   0.42962   0.75577   0.00000  Uiso   1.00
O593   O     0.03565   0.42037   0.74643   0.00000  Uiso   1.00
O594   O     0.25870   0.50234   0.67554   0.00000  Uiso   1.00
O595   O     0.01843   0.49309   0.66620   0.00000  Uiso   1.00
O596   O     0.03391   0.37995   0.55208   0.00000  Uiso   1.00
Zn597  Zn    0.27119   0.50618   0.75624   0.00000  Uiso   1.00
Zn598  Zn    0.06214   0.49382   0.74377   0.00000  Uiso   1.00
C599   C     0.34823   0.59826   0.74863   0.00000  Uiso   1.00
C600   C     0.38595   0.50200   0.91667   0.00000  Uiso   1.00
C601   C     0.35600   0.65285   0.74790   0.00000  Uiso   1.00
C602   C     0.36856   0.50160   0.85537   0.00000  Uiso   1.00
C603   C     0.64409   0.34718   0.75231   0.00000  Uiso   1.00
C604   C     0.65179   0.40174   0.75143   0.00000  Uiso   1.00
C605   C     0.63080   0.49451   0.64450   0.00000  Uiso   1.00
C606   C     0.59899   0.42346   0.50032   0.00000  Uiso   1.00
C607   C     0.61029   0.48202   0.58398   0.00000  Uiso   1.00
C608   C     0.35886   0.53389   0.95069   0.00000  Uiso   1.00
C609   C     0.38341   0.54427   0.50759   0.00000  Uiso   1.00
C610   C     0.46490   0.49391   0.99552   0.00000  Uiso   1.00
C611   C     0.43681   0.52577   0.52974   0.00000  Uiso   1.00
C612   C     0.35663   0.42186   0.57184   0.00000  Uiso   1.00
C613   C     0.43512   0.47694   0.94073   0.00000  Uiso   1.00
C614   C     0.52166   0.47855   0.51351   0.00000  Uiso   1.00
C615   C     0.54348   0.43989   0.98147   0.00000  Uiso   1.00
C616   C     0.50944   0.41792   0.93109   0.00000  Uiso   1.00
C617   C     0.45592   0.43639   0.91069   0.00000  Uiso   1.00
C618   C     0.55783   0.50180   0.56180   0.00000  Uiso   1.00
C619   C     0.63282   0.44324   0.55229   0.00000  Uiso   1.00
H620   H     0.60149   0.66329   0.75653   0.00000  Uiso   1.00
H621   H     0.43078   0.41847   0.87130   0.00000  Uiso   1.00
H622   H     0.39860   0.33674   0.74370   0.00000  Uiso   1.00
H623   H     0.39060   0.44311   0.60275   0.00000  Uiso   1.00
H624   H     0.48989   0.45828   0.70803   0.00000  Uiso   1.00
H625   H     0.51009   0.54172   0.79196   0.00000  Uiso   1.00
H626   H     0.52477   0.38733   0.90673   0.00000  Uiso   1.00
H627   H     0.61529   0.39423   0.97496   0.00000  Uiso   1.00
H628   H     0.54479   0.53440   0.58481   0.00000  Uiso   1.00
H629   H     0.65333   0.55233   0.93284   0.00000  Uiso   1.00
H630   H     0.45424   0.53563   0.57402   0.00000  Uiso   1.00
H631   H     0.36227   0.56849   0.53405   0.00000  Uiso   1.00
N632   N     0.47827   0.48556   0.73543   0.00000  Uiso   1.00
N633   N     0.52173   0.51444   0.76458   0.00000  Uiso   1.00
O634   O     0.63102   0.57963   0.75358   0.00000  Uiso   1.00
O635   O     0.39075   0.57038   0.74424   0.00000  Uiso   1.00
O636   O     0.64823   0.50691   0.83380   0.00000  Uiso   1.00
O637   O     0.40796   0.49766   0.82446   0.00000  Uiso   1.00
O638   O     0.60925   0.42962   0.75577   0.00000  Uiso   1.00
O639   O     0.36898   0.42037   0.74643   0.00000  Uiso   1.00
O640   O     0.59204   0.50234   0.67554   0.00000  Uiso   1.00
O641   O     0.35177   0.49309   0.66620   0.00000  Uiso   1.00
O642   O     0.36725   0.37995   0.55208   0.00000  Uiso   1.00
Zn643  Zn    0.60453   0.50618   0.75624   0.00000  Uiso   1.00
Zn644  Zn    0.39547   0.49382   0.74377   0.00000  Uiso   1.00
C645   C     0.68157   0.59826   0.74863   0.00000  Uiso   1.00
C646   C     0.71928   0.50200   0.91667   0.00000  Uiso   1.00
C647   C     0.68933   0.65285   0.74790   0.00000  Uiso   1.00
C648   C     0.70190   0.50160   0.85537   0.00000  Uiso   1.00
C649   C     0.97742   0.34718   0.75231   0.00000  Uiso   1.00
C650   C     0.98512   0.40174   0.75143   0.00000  Uiso   1.00
C651   C     0.96414   0.49451   0.64450   0.00000  Uiso   1.00
C652   C     0.93232   0.42346   0.50032   0.00000  Uiso   1.00
C653   C     0.94362   0.48202   0.58398   0.00000  Uiso   1.00
C654   C     0.69219   0.53389   0.95069   0.00000  Uiso   1.00
C655   C     0.71675   0.54427   0.50759   0.00000  Uiso   1.00
C656   C     0.79823   0.49391   0.99552   0.00000  Uiso   1.00
C657   C     0.77015   0.52577   0.52974   0.00000  Uiso   1.00
C658   C     0.68996   0.42186   0.57184   0.00000  Uiso   1.00
C659   C     0.76846   0.47694   0.94073   0.00000  Uiso   1.00
C660   C     0.85500   0.47855   0.51351   0.00000  Uiso   1.00
C661   C     0.87681   0.43989   0.98147   0.00000  Uiso   1.00
C662   C     0.84277   0.41792   0.93109   0.00000  Uiso   1.00
C663   C     0.78926   0.43639   0.91069   0.00000  Uiso   1.00
C664   C     0.89117   0.50180   0.56180   0.00000  Uiso   1.00
C665   C     0.96615   0.44324   0.55229   0.00000  Uiso   1.00
H666   H     0.93482   0.66329   0.75653   0.00000  Uiso   1.00
H667   H     0.76412   0.41847   0.87130   0.00000  Uiso   1.00
H668   H     0.73193   0.33674   0.74370   0.00000  Uiso   1.00
H669   H     0.72394   0.44311   0.60275   0.00000  Uiso   1.00
H670   H     0.82323   0.45828   0.70803   0.00000  Uiso   1.00
H671   H     0.84343   0.54172   0.79196   0.00000  Uiso   1.00
H672   H     0.85810   0.38733   0.90673   0.00000  Uiso   1.00
H673   H     0.94863   0.39423   0.97496   0.00000  Uiso   1.00
H674   H     0.87812   0.53440   0.58481   0.00000  Uiso   1.00
H675   H     0.98667   0.55233   0.93284   0.00000  Uiso   1.00
H676   H     0.78757   0.53563   0.57402   0.00000  Uiso   1.00
H677   H     0.69561   0.56849   0.53405   0.00000  Uiso   1.00
N678   N     0.81160   0.48556   0.73543   0.00000  Uiso   1.00
N679   N     0.85507   0.51444   0.76458   0.00000  Uiso   1.00
O680   O     0.96435   0.57963   0.75358   0.00000  Uiso   1.00
O681   O     0.72408   0.57038   0.74424   0.00000  Uiso   1.00
O682   O     0.98157   0.50691   0.83380   0.00000  Uiso   1.00
O683   O     0.74130   0.49766   0.82446   0.00000  Uiso   1.00
O684   O     0.94258   0.42962   0.75577   0.00000  Uiso   1.00
O685   O     0.70231   0.42037   0.74643   0.00000  Uiso   1.00
O686   O     0.92537   0.50234   0.67554   0.00000  Uiso   1.00
O687   O     0.68510   0.49309   0.66620   0.00000  Uiso   1.00
O688   O     0.70058   0.37995   0.55208   0.00000  Uiso   1.00
Zn689  Zn    0.93786   0.50618   0.75624   0.00000  Uiso   1.00
Zn690  Zn    0.72881   0.49382   0.74377   0.00000  Uiso   1.00
C691   C     0.01490   0.93160   0.74863   0.00000  Uiso   1.00
C692   C     0.05261   0.83533   0.91667   0.00000  Uiso   1.00
C693   C     0.02266   0.98618   0.74790   0.00000  Uiso   1.00
C694   C     0.03523   0.83494   0.85537   0.00000  Uiso   1.00
C695   C     0.31075   0.68051   0.75231   0.00000  Uiso   1.00
C696   C     0.31846   0.73508   0.75143   0.00000  Uiso   1.00
C697   C     0.29747   0.82784   0.64450   0.00000  Uiso   1.00
C698   C     0.26566   0.75679   0.50032   0.00000  Uiso   1.00
C699   C     0.27695   0.81535   0.58398   0.00000  Uiso   1.00
C700   C     0.02552   0.86723   0.95069   0.00000  Uiso   1.00
C701   C     0.05008   0.87760   0.50759   0.00000  Uiso   1.00
C702   C     0.13156   0.82724   0.99552   0.00000  Uiso   1.00
C703   C     0.10348   0.85911   0.52974   0.00000  Uiso   1.00
C704   C     0.02329   0.75519   0.57184   0.00000  Uiso   1.00
C705   C     0.10179   0.81027   0.94073   0.00000  Uiso   1.00
C706   C     0.18833   0.81189   0.51351   0.00000  Uiso   1.00
C707   C     0.21014   0.77322   0.98147   0.00000  Uiso   1.00
C708   C     0.17611   0.75125   0.93109   0.00000  Uiso   1.00
C709   C     0.12259   0.76973   0.91069   0.00000  Uiso   1.00
C710   C     0.22450   0.83514   0.56180   0.00000  Uiso   1.00
C711   C     0.29948   0.77657   0.55229   0.00000  Uiso   1.00
H712   H     0.26815   0.99663   0.75653   0.00000  Uiso   1.00
H713   H     0.09745   0.75180   0.87130   0.00000  Uiso   1.00
H714   H     0.06527   0.67007   0.74370   0.00000  Uiso   1.00
H715   H     0.05727   0.77645   0.60275   0.00000  Uiso   1.00
H716   H     0.15656   0.79162   0.70803   0.00000  Uiso   1.00
H717   H     0.17676   0.87505   0.79196   0.00000  Uiso   1.00
H718   H     0.19143   0.72067   0.90673   0.00000  Uiso   1.00
H719   H     0.28196   0.72757   0.97496   0.00000  Uiso   1.00
H720   H     0.21145   0.86773   0.58481   0.00000  Uiso   1.00
H721   H     0.32000   0.88567   0.93284   0.00000  Uiso   1.00
H722   H     0.12091   0.86896   0.57402   0.00000  Uiso   1.00
H723   H     0.02894   0.90183   0.53405   0.00000  Uiso   1.00
N724   N     0.14493   0.81890   0.73543   0.00000  Uiso   1.00
N725   N     0.18840   0.84777   0.76458   0.00000  Uiso   1.00
O726   O     0.29769   0.91296   0.75358   0.00000  Uiso   1.00
O727   O     0.05742   0.90371   0.74424   0.00000  Uiso   1.00
O728   O     0.31490   0.84024   0.83380   0.00000  Uiso   1.00
O729   O     0.07463   0.83099   0.82446   0.00000  Uiso   1.00
O730   O     0.27592   0.76296   0.75577   0.00000  Uiso   1.00
O731   O     0.03565   0.75371   0.74643   0.00000  Uiso   1.00
O732   O     0.25870   0.83567   0.67554   0.00000  Uiso   1.00
O733   O     0.01843   0.82642   0.66620   0.00000  Uiso   1.00
O734   O     0.03391   0.71328   0.55208   0.00000  Uiso   1.00
Zn735  Zn    0.27119   0.83951   0.75624   0.00000  Uiso   1.00
Zn736  Zn    0.06214   0.82716   0.74377   0.00000  Uiso   1.00
C737   C     0.34823   0.93160   0.74863   0.00000  Uiso   1.00
C738   C     0.38595   0.83533   0.91667   0.00000  Uiso   1.00
C739   C     0.35600   0.98618   0.74790   0.00000  Uiso   1.00
C740   C     0.36856   0.83494   0.85537   0.00000  Uiso   1.00
C741   C     0.64409   0.68051   0.75231   0.00000  Uiso   1.00
C742   C     0.65179   0.73508   0.75143   0.00000  Uiso   1.00
C743   C     0.63080   0.82784   0.64450   0.00000  Uiso   1.00
C744   C     0.59899   0.75679   0.50032   0.00000  Uiso   1.00
C745   C     0.61029   0.81535   0.58398   0.00000  Uiso   1.00
C746   C     0.35886   0.86723   0.95069   0.00000  Uiso   1.00
C747   C     0.38341   0.87760   0.50759   0.00000  Uiso   1.00
C748   C     0.46490   0.82724   0.99552   0.00000  Uiso   1.00
C749   C     0.43681   0.85911   0.52974   0.00000  Uiso   1.00
C750   C     0.35663   0.75519   0.57184   0.00000  Uiso   1.00
C751   C     0.43512   0.81027   0.94073   0.00000  Uiso   1.00
C752   C     0.52166   0.81189   0.51351   0.00000  Uiso   1.00
C753   C     0.54348   0.77322   0.98147   0.00000  Uiso   1.00
C754   C     0.50944   0.75125   0.93109   0.00000  Uiso   1.00
C755   C     0.45592   0.76973   0.91069   0.00000  Uiso   1.00
C756   C     0.55783   0.83514   0.56180   0.00000  Uiso   1.00
C757   C     0.63282   0.77657   0.55229   0.00000  Uiso   1.00
H758   H     0.60149   0.99663   0.75653   0.00000  Uiso   1.00
H759   H     0.43078   0.75180   0.87130   0.00000  Uiso   1.00
H760   H     0.39860   0.67007   0.74370   0.00000  Uiso   1.00
H761   H     0.39060   0.77645   0.60275   0.00000  Uiso   1.00
H762   H     0.48989   0.79162   0.70803   0.00000  Uiso   1.00
H763   H     0.51009   0.87505   0.79196   0.00000  Uiso   1.00
H764   H     0.52477   0.72067   0.90673   0.00000  Uiso   1.00
H765   H     0.61529   0.72757   0.97496   0.00000  Uiso   1.00
H766   H     0.54479   0.86773   0.58481   0.00000  Uiso   1.00
H767   H     0.65333   0.88567   0.93284   0.00000  Uiso   1.00
H768   H     0.45424   0.86896   0.57402   0.00000  Uiso   1.00
H769   H     0.36227   0.90183   0.53405   0.00000  Uiso   1.00
N770   N     0.47827   0.81890   0.73543   0.00000  Uiso   1.00
N771   N     0.52173   0.84777   0.76458   0.00000  Uiso   1.00
O772   O     0.63102   0.91296   0.75358   0.00000  Uiso   1.00
O773   O     0.39075   0.90371   0.74424   0.00000  Uiso   1.00
O774   O     0.64823   0.84024   0.83380   0.00000  Uiso   1.00
O775   O     0.40796   0.83099   0.82446   0.00000  Uiso   1.00
O776   O     0.60925   0.76296   0.75577   0.00000  Uiso   1.00
O777   O     0.36898   0.75371   0.74643   0.00000  Uiso   1.00
O778   O     0.59204   0.83567   0.67554   0.00000  Uiso   1.00
O779   O     0.35177   0.82642   0.66620   0.00000  Uiso   1.00
O780   O     0.36725   0.71328   0.55208   0.00000  Uiso   1.00
Zn781  Zn    0.60453   0.83951   0.75624   0.00000  Uiso   1.00
Zn782  Zn    0.39547   0.82716   0.74377   0.00000  Uiso   1.00
C783   C     0.68157   0.93160   0.74863   0.00000  Uiso   1.00
C784   C     0.71928   0.83533   0.91667   0.00000  Uiso   1.00
C785   C     0.68933   0.98618   0.74790   0.00000  Uiso   1.00
C786   C     0.70190   0.83494   0.85537   0.00000  Uiso   1.00
C787   C     0.97742   0.68051   0.75231   0.00000  Uiso   1.00
C788   C     0.98512   0.73508   0.75143   0.00000  Uiso   1.00
C789   C     0.96414   0.82784   0.64450   0.00000  Uiso   1.00
C790   C     0.93232   0.75679   0.50032   0.00000  Uiso   1.00
C791   C     0.94362   0.81535   0.58398   0.00000  Uiso   1.00
C792   C     0.69219   0.86723   0.95069   0.00000  Uiso   1.00
C793   C     0.71675   0.87760   0.50759   0.00000  Uiso   1.00
C794   C     0.79823   0.82724   0.99552   0.00000  Uiso   1.00
C795   C     0.77015   0.85911   0.52974   0.00000  Uiso   1.00
C796   C     0.68996   0.75519   0.57184   0.00000  Uiso   1.00
C797   C     0.76846   0.81027   0.94073   0.00000  Uiso   1.00
C798   C     0.85500   0.81189   0.51351   0.00000  Uiso   1.00
C799   C     0.87681   0.77322   0.98147   0.00000  Uiso   1.00
C800   C     0.84277   0.75125   0.93109   0.00000  Uiso   1.00
C801   C     0.78926   0.76973   0.91069   0.00000  Uiso   1.00
C802   C     0.89117   0.83514   0.56180   0.00000  Uiso   1.00
C803   C     0.96615   0.77657   0.55229   0.00000  Uiso   1.00
H804   H     0.93482   0.99663   0.75653   0.00000  Uiso   1.00
H805   H     0.76412   0.75180   0.87130   0.00000  Uiso   1.00
H806   H     0.73193   0.67007   0.74370   0.00000  Uiso   1.00
H807   H     0.72394   0.77645   0.60275   0.00000  Uiso   1.00
H808   H     0.82323   0.79162   0.70803   0.00000  Uiso   1.00
H809   H     0.84343   0.87505   0.79196   0.00000  Uiso   1.00
H810   H     0.85810   0.72067   0.90673   0.00000  Uiso   1.00
H811   H     0.94863   0.72757   0.97496   0.00000  Uiso   1.00
H812   H     0.87812   0.86773   0.58481   0.00000  Uiso   1.00
H813   H     0.98667   0.88567   0.93284   0.00000  Uiso   1.00
H814   H     0.78757   0.86896   0.57402   0.00000  Uiso   1.00
H815   H     0.69561   0.90183   0.53405   0.00000  Uiso   1.00
N816   N     0.81160   0.81890   0.73543   0.00000  Uiso   1.00
N817   N     0.85507   0.84777   0.76458   0.00000  Uiso   1.00
O818   O     0.96435   0.91296   0.75358   0.00000  Uiso   1.00
O819   O     0.72408   0.90371   0.74424   0.00000  Uiso   1.00
O820   O     0.98157   0.84024   0.83380   0.00000  Uiso   1.00
O821   O     0.74130   0.83099   0.82446   0.00000  Uiso   1.00
O822   O     0.94258   0.76296   0.75577   0.00000  Uiso   1.00
O823   O     0.70231   0.75371   0.74643   0.00000  Uiso   1.00
O824   O     0.92537   0.83567   0.67554   0.00000  Uiso   1.00
O825   O     0.68510   0.82642   0.66620   0.00000  Uiso   1.00
O826   O     0.70058   0.71328   0.55208   0.00000  Uiso   1.00
Zn827  Zn    0.93786   0.83951   0.75624   0.00000  Uiso   1.00
Zn828  Zn    0.72881   0.82716   0.74377   0.00000  Uiso   1.00
loop_
_geom_bond_atom_site_label_1
_geom_bond_atom_site_label_2
_geom_bond_distance
_geom_bond_site_symmetry_2
_ccdc_geom_bond_type
C1     O37     1.289   .     A
C1     C3      1.403   .     S
C1     O128    1.275   1_455 S
C2     C4      1.453   .     S
C2     C15     1.404   .     A
C2     C10     1.402   .     A
C3     C235    1.339   1_455 S
C3     H162    1.088   .     S
C4     O39     1.299   .     A
C4     O130    1.288   1_455 S
C5     C6      1.403   .     S
C5     C325    1.339   1_545 S
C5     H298    1.088   1_545 S
C6     O40     1.289   .     A
C6     O87     1.275   .     S
C7     O42     1.303   .     A
C7     C9      1.459   .     S
C7     O89     1.287   .     S
C8     C21     1.402   .     A
C8     C431    1.399   1_554 S
C8     H443    1.085   1_554 S
C9     C21     1.422   .     A
C9     C20     1.388   .     A
C10    C425    1.388   .     S
C10    H123    1.083   1_455 S
C11    C13     1.392   .     A
C11    H33     1.083   .     S
C11    C424    1.388   1_554 S
C12    C15     1.406   .     A
C12    C427    1.419   .     S
C12    C430    1.412   .     S
C13    H32     1.079   .     S
C13    C426    1.419   1_554 S
C14    H25     1.080   .     S
C14    O44     1.221   .     D
C14    C113    1.488   1_455 S
C15    C19     1.412   .     A
C16    C20     1.387   .     A
C16    C426    1.412   1_554 S
C16    C431    1.416   1_554 S
C17    C18     1.392   .     A
C17    C422    1.399   .     S
C17    C430    1.416   .     S
C18    H28     1.084   .     S
C18    C19     1.385   .     A
C19    H23     1.082   .     S
C20    H30     1.080   .     S
C21    C60     1.488   .     S
H22    C143    1.088   .     S
H24    C279    1.088   1_545 S
H26    N34     1.029   .     S
H27    N35     1.029   .     S
H29    C422    1.085   .     S
H31    C56     1.083   .     S
N34    Zn46    2.017   .     S
N34    N35     1.288   .     D
N35    Zn45    2.017   .     S
O36    Zn45    1.951   .     S
O36    C47     1.275   .     S
O37    Zn46    1.979   .     S
O38    Zn45    1.951   .     S
O38    C50     1.288   .     S
O39    Zn46    1.905   .     S
O40    Zn45    1.979   .     S
O41    Zn46    1.951   .     S
O41    C98     1.275   1_455 S
O42    Zn45    1.905   .     S
O43    Zn46    1.951   .     S
O43    C99     1.287   1_455 S
C47    O83     1.289   .     A
C47    C49     1.403   .     S
C48    C50     1.453   .     S
C48    C61     1.404   .     A
C48    C56     1.402   .     A
C49    C143    1.339   .     S
C49    H208    1.088   .     S
C50    O85     1.299   .     A
C51    C52     1.403   .     S
C51    C371    1.339   1_545 S
C51    H344    1.088   1_545 S
C52    O86     1.289   .     A
C52    O133    1.275   .     S
C53    O88     1.303   .     A
C53    C55     1.459   .     S
C53    O135    1.287   .     S
C54    C67     1.402   .     A
C54    C477    1.399   1_554 S
C54    H489    1.085   1_554 S
C55    C67     1.422   .     A
C55    C66     1.388   .     A
C56    C471    1.388   .     S
C57    C59     1.392   .     A
C57    H79     1.083   .     S
C57    C470    1.388   1_554 S
C58    C61     1.406   .     A
C58    C473    1.419   .     S
C58    C476    1.412   .     S
C59    H78     1.079   .     S
C59    C472    1.419   1_554 S
C60    H71     1.080   .     S
C60    O90     1.221   .     D
C61    C65     1.412   .     A
C62    C66     1.387   .     A
C62    C472    1.412   1_554 S
C62    C477    1.416   1_554 S
C63    C64     1.392   .     A
C63    C468    1.399   .     S
C63    C476    1.416   .     S
C64    H74     1.084   .     S
C64    C65     1.385   .     A
C65    H69     1.082   .     S
C66    H76     1.080   .     S
C67    C106    1.488   .     S
H68    C189    1.088   .     S
H70    C325    1.088   1_545 S
H72    N80     1.029   .     S
H73    N81     1.029   .     S
H75    C468    1.085   .     S
H77    C102    1.083   .     S
N80    Zn92    2.017   .     S
N80    N81     1.288   .     D
N81    Zn91    2.017   .     S
O82    Zn91    1.951   .     S
O82    C93     1.275   .     S
O83    Zn92    1.979   .     S
O84    Zn91    1.951   .     S
O84    C96     1.288   .     S
O85    Zn92    1.905   .     S
O86    Zn91    1.979   .     S
O87    Zn92    1.951   .     S
O88    Zn91    1.905   .     S
O89    Zn92    1.951   .     S
C93    O129    1.289   .     A
C93    C95     1.403   .     S
C94    C96     1.453   .     S
C94    C107    1.404   .     A
C94    C102    1.402   .     A
C95    C189    1.339   .     S
C95    H254    1.088   .     S
C96    O131    1.299   .     A
C97    C98     1.403   .     S
C97    C279    1.339   1_645 S
C97    H390    1.088   1_545 S
C98    O132    1.289   .     A
C98    O41     1.275   1_655 S
C99    O134    1.303   .     A
C99    C101    1.459   .     S
C99    O43     1.287   1_655 S
C100   C113    1.402   .     A
C100   C523    1.399   1_554 S
C100   H535    1.085   1_554 S
C101   C113    1.422   .     A
C101   C112    1.388   .     A
C102   C517    1.388   .     S
C103   C105    1.392   .     A
C103   H125    1.083   .     S
C103   C516    1.388   1_554 S
C104   C107    1.406   .     A
C104   C519    1.419   .     S
C104   C522    1.412   .     S
C105   H124    1.079   .     S
C105   C518    1.419   1_554 S
C106   H117    1.080   .     S
C106   O136    1.221   .     D
C107   C111    1.412   .     A
C108   C112    1.387   .     A
C108   C518    1.412   1_554 S
C108   C523    1.416   1_554 S
C109   C110    1.392   .     A
C109   C514    1.399   .     S
C109   C522    1.416   .     S
C110   H120    1.084   .     S
C110   C111    1.385   .     A
C111   H115    1.082   .     S
C112   H122    1.080   .     S
C113   C14     1.488   1_655 S
H114   C235    1.088   .     S
H116   C371    1.088   1_545 S
H118   N126    1.029   .     S
H119   N127    1.029   .     S
H121   C514    1.085   .     S
H123   C10     1.083   1_655 S
N126   Zn138   2.017   .     S
N126   N127    1.288   .     D
N127   Zn137   2.017   .     S
O128   Zn137   1.951   .     S
O128   C1      1.275   1_655 S
O129   Zn138   1.979   .     S
O130   Zn137   1.951   .     S
O130   C4      1.288   1_655 S
O131   Zn138   1.905   .     S
O132   Zn137   1.979   .     S
O133   Zn138   1.951   .     S
O134   Zn137   1.905   .     S
O135   Zn138   1.951   .     S
C139   O175    1.289   .     A
C139   C141    1.403   .     S
C139   O266    1.275   1_455 S
C140   C142    1.453   .     S
C140   C153    1.404   .     A
C140   C148    1.402   .     A
C141   C373    1.339   1_455 S
C141   H300    1.088   .     S
C142   O177    1.299   .     A
C142   O268    1.288   1_455 S
C143   C144    1.403   .     S
C144   O178    1.289   .     A
C144   O225    1.275   .     S
C145   O180    1.303   .     A
C145   C147    1.459   .     S
C145   O227    1.287   .     S
C146   C159    1.402   .     A
C146   C569    1.399   1_554 S
C146   H581    1.085   1_554 S
C147   C159    1.422   .     A
C147   C158    1.388   .     A
C148   C563    1.388   .     S
C148   H261    1.083   1_455 S
C149   C151    1.392   .     A
C149   H171    1.083   .     S
C149   C562    1.388   1_554 S
C150   C153    1.406   .     A
C150   C565    1.419   .     S
C150   C568    1.412   .     S
C151   H170    1.079   .     S
C151   C564    1.419   1_554 S
C152   H163    1.080   .     S
C152   O182    1.221   .     D
C152   C251    1.488   1_455 S
C153   C157    1.412   .     A
C154   C158    1.387   .     A
C154   C564    1.412   1_554 S
C154   C569    1.416   1_554 S
C155   C156    1.392   .     A
C155   C560    1.399   .     S
C155   C568    1.416   .     S
C156   H166    1.084   .     S
C156   C157    1.385   .     A
C157   H161    1.082   .     S
C158   H168    1.080   .     S
C159   C198    1.488   .     S
H160   C281    1.088   .     S
H164   N172    1.029   .     S
H165   N173    1.029   .     S
H167   C560    1.085   .     S
H169   C194    1.083   .     S
N172   Zn184   2.017   .     S
N172   N173    1.288   .     D
N173   Zn183   2.017   .     S
O174   Zn183   1.951   .     S
O174   C185    1.275   .     S
O175   Zn184   1.979   .     S
O176   Zn183   1.951   .     S
O176   C188    1.288   .     S
O177   Zn184   1.905   .     S
O178   Zn183   1.979   .     S
O179   Zn184   1.951   .     S
O179   C236    1.275   1_455 S
O180   Zn183   1.905   .     S
O181   Zn184   1.951   .     S
O181   C237    1.287   1_455 S
C185   O221    1.289   .     A
C185   C187    1.403   .     S
C186   C188    1.453   .     S
C186   C199    1.404   .     A
C186   C194    1.402   .     A
C187   C281    1.339   .     S
C187   H346    1.088   .     S
C188   O223    1.299   .     A
C189   C190    1.403   .     S
C190   O224    1.289   .     A
C190   O271    1.275   .     S
C191   O226    1.303   .     A
C191   C193    1.459   .     S
C191   O273    1.287   .     S
C192   C205    1.402   .     A
C192   C615    1.399   1_554 S
C192   H627    1.085   1_554 S
C193   C205    1.422   .     A
C193   C204    1.388   .     A
C194   C609    1.388   .     S
C195   C197    1.392   .     A
C195   H217    1.083   .     S
C195   C608    1.388   1_554 S
C196   C199    1.406   .     A
C196   C611    1.419   .     S
C196   C614    1.412   .     S
C197   H216    1.079   .     S
C197   C610    1.419   1_554 S
C198   H209    1.080   .     S
C198   O228    1.221   .     D
C199   C203    1.412   .     A
C200   C204    1.387   .     A
C200   C610    1.412   1_554 S
C200   C615    1.416   1_554 S
C201   C202    1.392   .     A
C201   C606    1.399   .     S
C201   C614    1.416   .     S
C202   H212    1.084   .     S
C202   C203    1.385   .     A
C203   H207    1.082   .     S
C204   H214    1.080   .     S
C205   C244    1.488   .     S
H206   C327    1.088   .     S
H210   N218    1.029   .     S
H211   N219    1.029   .     S
H213   C606    1.085   .     S
H215   C240    1.083   .     S
N218   Zn230   2.017   .     S
N218   N219    1.288   .     D
N219   Zn229   2.017   .     S
O220   Zn229   1.951   .     S
O220   C231    1.275   .     S
O221   Zn230   1.979   .     S
O222   Zn229   1.951   .     S
O222   C234    1.288   .     S
O223   Zn230   1.905   .     S
O224   Zn229   1.979   .     S
O225   Zn230   1.951   .     S
O226   Zn229   1.905   .     S
O227   Zn230   1.951   .     S
C231   O267    1.289   .     A
C231   C233    1.403   .     S
C232   C234    1.453   .     S
C232   C245    1.404   .     A
C232   C240    1.402   .     A
C233   C327    1.339   .     S
C233   H392    1.088   .     S
C234   O269    1.299   .     A
C235   C236    1.403   .     S
C235   C3      1.339   1_655 S
C236   O270    1.289   .     A
C236   O179    1.275   1_655 S
C237   O272    1.303   .     A
C237   C239    1.459   .     S
C237   O181    1.287   1_655 S
C238   C251    1.402   .     A
C238   C661    1.399   1_554 S
C238   H673    1.085   1_554 S
C239   C251    1.422   .     A
C239   C250    1.388   .     A
C240   C655    1.388   .     S
C241   C243    1.392   .     A
C241   H263    1.083   .     S
C241   C654    1.388   1_554 S
C242   C245    1.406   .     A
C242   C657    1.419   .     S
C242   C660    1.412   .     S
C243   H262    1.079   .     S
C243   C656    1.419   1_554 S
C244   H255    1.080   .     S
C244   O274    1.221   .     D
C245   C249    1.412   .     A
C246   C250    1.387   .     A
C246   C656    1.412   1_554 S
C246   C661    1.416   1_554 S
C247   C248    1.392   .     A
C247   C652    1.399   .     S
C247   C660    1.416   .     S
C248   H258    1.084   .     S
C248   C249    1.385   .     A
C249   H253    1.082   .     S
C250   H260    1.080   .     S
C251   C152    1.488   1_655 S
H252   C373    1.088   .     S
H256   N264    1.029   .     S
H257   N265    1.029   .     S
H259   C652    1.085   .     S
H261   C148    1.083   1_655 S
N264   Zn276   2.017   .     S
N264   N265    1.288   .     D
N265   Zn275   2.017   .     S
O266   Zn275   1.951   .     S
O266   C139    1.275   1_655 S
O267   Zn276   1.979   .     S
O268   Zn275   1.951   .     S
O268   C142    1.288   1_655 S
O269   Zn276   1.905   .     S
O270   Zn275   1.979   .     S
O271   Zn276   1.951   .     S
O272   Zn275   1.905   .     S
O273   Zn276   1.951   .     S
C277   O313    1.289   .     A
C277   C279    1.403   .     S
C277   O404    1.275   1_455 S
C278   C280    1.453   .     S
C278   C291    1.404   .     A
C278   C286    1.402   .     A
C279   C97     1.339   1_465 S
C279   H24     1.088   1_565 S
C280   O315    1.299   .     A
C280   O406    1.288   1_455 S
C281   C282    1.403   .     S
C282   O316    1.289   .     A
C282   O363    1.275   .     S
C283   O318    1.303   .     A
C283   C285    1.459   .     S
C283   O365    1.287   .     S
C284   C297    1.402   .     A
C284   C707    1.399   1_554 S
C284   H719    1.085   1_554 S
C285   C297    1.422   .     A
C285   C296    1.388   .     A
C286   C701    1.388   .     S
C286   H399    1.083   1_455 S
C287   C289    1.392   .     A
C287   H309    1.083   .     S
C287   C700    1.388   1_554 S
C288   C291    1.406   .     A
C288   C703    1.419   .     S
C288   C706    1.412   .     S
C289   H308    1.079   .     S
C289   C702    1.419   1_554 S
C290   H301    1.080   .     S
C290   O320    1.221   .     D
C290   C389    1.488   1_455 S
C291   C295    1.412   .     A
C292   C296    1.387   .     A
C292   C702    1.412   1_554 S
C292   C707    1.416   1_554 S
C293   C294    1.392   .     A
C293   C698    1.399   .     S
C293   C706    1.416   .     S
C294   H304    1.084   .     S
C294   C295    1.385   .     A
C295   H299    1.082   .     S
C296   H306    1.080   .     S
C297   C336    1.488   .     S
H298   C5      1.088   1_565 S
H302   N310    1.029   .     S
H303   N311    1.029   .     S
H305   C698    1.085   .     S
H307   C332    1.083   .     S
N310   Zn322   2.017   .     S
N310   N311    1.288   .     D
N311   Zn321   2.017   .     S
O312   Zn321   1.951   .     S
O312   C323    1.275   .     S
O313   Zn322   1.979   .     S
O314   Zn321   1.951   .     S
O314   C326    1.288   .     S
O315   Zn322   1.905   .     S
O316   Zn321   1.979   .     S
O317   Zn322   1.951   .     S
O317   C374    1.275   1_455 S
O318   Zn321   1.905   .     S
O319   Zn322   1.951   .     S
O319   C375    1.287   1_455 S
C323   O359    1.289   .     A
C323   C325    1.403   .     S
C324   C326    1.453   .     S
C324   C337    1.404   .     A
C324   C332    1.402   .     A
C325   C5      1.339   1_565 S
C325   H70     1.088   1_565 S
C326   O361    1.299   .     A
C327   C328    1.403   .     S
C328   O362    1.289   .     A
C328   O409    1.275   .     S
C329   O364    1.303   .     A
C329   C331    1.459   .     S
C329   O411    1.287   .     S
C330   C343    1.402   .     A
C330   C753    1.399   1_554 S
C330   H765    1.085   1_554 S
C331   C343    1.422   .     A
C331   C342    1.388   .     A
C332   C747    1.388   .     S
C333   C335    1.392   .     A
C333   H355    1.083   .     S
C333   C746    1.388   1_554 S
C334   C337    1.406   .     A
C334   C749    1.419   .     S
C334   C752    1.412   .     S
C335   H354    1.079   .     S
C335   C748    1.419   1_554 S
C336   H347    1.080   .     S
C336   O366    1.221   .     D
C337   C341    1.412   .     A
C338   C342    1.387   .     A
C338   C748    1.412   1_554 S
C338   C753    1.416   1_554 S
C339   C340    1.392   .     A
C339   C744    1.399   .     S
C339   C752    1.416   .     S
C340   H350    1.084   .     S
C340   C341    1.385   .     A
C341   H345    1.082   .     S
C342   H352    1.080   .     S
C343   C382    1.488   .     S
H344   C51     1.088   1_565 S
H348   N356    1.029   .     S
H349   N357    1.029   .     S
H351   C744    1.085   .     S
H353   C378    1.083   .     S
N356   Zn368   2.017   .     S
N356   N357    1.288   .     D
N357   Zn367   2.017   .     S
O358   Zn367   1.951   .     S
O358   C369    1.275   .     S
O359   Zn368   1.979   .     S
O360   Zn367   1.951   .     S
O360   C372    1.288   .     S
O361   Zn368   1.905   .     S
O362   Zn367   1.979   .     S
O363   Zn368   1.951   .     S
O364   Zn367   1.905   .     S
O365   Zn368   1.951   .     S
C369   O405    1.289   .     A
C369   C371    1.403   .     S
C370   C372    1.453   .     S
C370   C383    1.404   .     A
C370   C378    1.402   .     A
C371   C51     1.339   1_565 S
C371   H116    1.088   1_565 S
C372   O407    1.299   .     A
C373   C374    1.403   .     S
C373   C141    1.339   1_655 S
C374   O408    1.289   .     A
C374   O317    1.275   1_655 S
C375   O410    1.303   .     A
C375   C377    1.459   .     S
C375   O319    1.287   1_655 S
C376   C389    1.402   .     A
C376   C799    1.399   1_554 S
C376   H811    1.085   1_554 S
C377   C389    1.422   .     A
C377   C388    1.388   .     A
C378   C793    1.388   .     S
C379   C381    1.392   .     A
C379   H401    1.083   .     S
C379   C792    1.388   1_554 S
C380   C383    1.406   .     A
C380   C795    1.419   .     S
C380   C798    1.412   .     S
C381   H400    1.079   .     S
C381   C794    1.419   1_554 S
C382   H393    1.080   .     S
C382   O412    1.221   .     D
C383   C387    1.412   .     A
C384   C388    1.387   .     A
C384   C794    1.412   1_554 S
C384   C799    1.416   1_554 S
C385   C386    1.392   .     A
C385   C790    1.399   .     S
C385   C798    1.416   .     S
C386   H396    1.084   .     S
C386   C387    1.385   .     A
C387   H391    1.082   .     S
C388   H398    1.080   .     S
C389   C290    1.488   1_655 S
H390   C97     1.088   1_565 S
H394   N402    1.029   .     S
H395   N403    1.029   .     S
H397   C790    1.085   .     S
H399   C286    1.083   1_655 S
N402   Zn414   2.017   .     S
N402   N403    1.288   .     D
N403   Zn413   2.017   .     S
O404   Zn413   1.951   .     S
O404   C277    1.275   1_655 S
O405   Zn414   1.979   .     S
O406   Zn413   1.951   .     S
O406   C280    1.288   1_655 S
O407   Zn414   1.905   .     S
O408   Zn413   1.979   .     S
O409   Zn414   1.951   .     S
O410   Zn413   1.905   .     S
O411   Zn414   1.951   .     S
C415   O451    1.289   .     A
C415   C417    1.403   .     S
C415   O542    1.275   1_455 S
C416   C418    1.453   .     S
C416   C429    1.404   .     A
C416   C424    1.402   .     A
C417   C649    1.339   1_455 S
C417   H576    1.088   .     S
C418   O453    1.299   .     A
C418   O544    1.288   1_455 S
C419   C420    1.403   .     S
C419   C739    1.339   1_545 S
C419   H712    1.088   1_545 S
C420   O454    1.289   .     A
C420   O501    1.275   .     S
C421   O456    1.303   .     A
C421   C423    1.459   .     S
C421   O503    1.287   .     S
C422   C435    1.402   .     A
C423   C435    1.422   .     A
C423   C434    1.388   .     A
C424   C11     1.388   1_556 S
C424   H537    1.083   1_455 S
C425   C427    1.392   .     A
C425   H447    1.083   .     S
C426   C429    1.406   .     A
C426   C13     1.419   1_556 S
C426   C16     1.412   1_556 S
C427   H446    1.079   .     S
C428   H439    1.080   .     S
C428   O458    1.221   .     D
C428   C527    1.488   1_455 S
C429   C433    1.412   .     A
C430   C434    1.387   .     A
C431   C432    1.392   .     A
C431   C8      1.399   1_556 S
C431   C16     1.416   1_556 S
C432   H442    1.084   .     S
C432   C433    1.385   .     A
C433   H437    1.082   .     S
C434   H444    1.080   .     S
C435   C474    1.488   .     S
H436   C557    1.088   .     S
H438   C693    1.088   1_545 S
H440   N448    1.029   .     S
H441   N449    1.029   .     S
H443   C8      1.085   1_556 S
H445   C470    1.083   .     S
N448   Zn460   2.017   .     S
N448   N449    1.288   .     D
N449   Zn459   2.017   .     S
O450   Zn459   1.951   .     S
O450   C461    1.275   .     S
O451   Zn460   1.979   .     S
O452   Zn459   1.951   .     S
O452   C464    1.288   .     S
O453   Zn460   1.905   .     S
O454   Zn459   1.979   .     S
O455   Zn460   1.951   .     S
O455   C512    1.275   1_455 S
O456   Zn459   1.905   .     S
O457   Zn460   1.951   .     S
O457   C513    1.287   1_455 S
C461   O497    1.289   .     A
C461   C463    1.403   .     S
C462   C464    1.453   .     S
C462   C475    1.404   .     A
C462   C470    1.402   .     A
C463   C557    1.339   .     S
C463   H622    1.088   .     S
C464   O499    1.299   .     A
C465   C466    1.403   .     S
C465   C785    1.339   1_545 S
C465   H758    1.088   1_545 S
C466   O500    1.289   .     A
C466   O547    1.275   .     S
C467   O502    1.303   .     A
C467   C469    1.459   .     S
C467   O549    1.287   .     S
C468   C481    1.402   .     A
C469   C481    1.422   .     A
C469   C480    1.388   .     A
C470   C57     1.388   1_556 S
C471   C473    1.392   .     A
C471   H493    1.083   .     S
C472   C475    1.406   .     A
C472   C59     1.419   1_556 S
C472   C62     1.412   1_556 S
C473   H492    1.079   .     S
C474   H485    1.080   .     S
C474   O504    1.221   .     D
C475   C479    1.412   .     A
C476   C480    1.387   .     A
C477   C478    1.392   .     A
C477   C54     1.399   1_556 S
C477   C62     1.416   1_556 S
C478   H488    1.084   .     S
C478   C479    1.385   .     A
C479   H483    1.082   .     S
C480   H490    1.080   .     S
C481   C520    1.488   .     S
H482   C603    1.088   .     S
H484   C739    1.088   1_545 S
H486   N494    1.029   .     S
H487   N495    1.029   .     S
H489   C54     1.085   1_556 S
H491   C516    1.083   .     S
N494   Zn506   2.017   .     S
N494   N495    1.288   .     D
N495   Zn505   2.017   .     S
O496   Zn505   1.951   .     S
O496   C507    1.275   .     S
O497   Zn506   1.979   .     S
O498   Zn505   1.951   .     S
O498   C510    1.288   .     S
O499   Zn506   1.905   .     S
O500   Zn505   1.979   .     S
O501   Zn506   1.951   .     S
O502   Zn505   1.905   .     S
O503   Zn506   1.951   .     S
C507   O543    1.289   .     A
C507   C509    1.403   .     S
C508   C510    1.453   .     S
C508   C521    1.404   .     A
C508   C516    1.402   .     A
C509   C603    1.339   .     S
C509   H668    1.088   .     S
C510   O545    1.299   .     A
C511   C512    1.403   .     S
C511   C693    1.339   1_645 S
C511   H804    1.088   1_545 S
C512   O546    1.289   .     A
C512   O455    1.275   1_655 S
C513   O548    1.303   .     A
C513   C515    1.459   .     S
C513   O457    1.287   1_655 S
C514   C527    1.402   .     A
C515   C527    1.422   .     A
C515   C526    1.388   .     A
C516   C103    1.388   1_556 S
C517   C519    1.392   .     A
C517   H539    1.083   .     S
C518   C521    1.406   .     A
C518   C105    1.419   1_556 S
C518   C108    1.412   1_556 S
C519   H538    1.079   .     S
C520   H531    1.080   .     S
C520   O550    1.221   .     D
C521   C525    1.412   .     A
C522   C526    1.387   .     A
C523   C524    1.392   .     A
C523   C100    1.399   1_556 S
C523   C108    1.416   1_556 S
C524   H534    1.084   .     S
C524   C525    1.385   .     A
C525   H529    1.082   .     S
C526   H536    1.080   .     S
C527   C428    1.488   1_655 S
H528   C649    1.088   .     S
H530   C785    1.088   1_545 S
H532   N540    1.029   .     S
H533   N541    1.029   .     S
H535   C100    1.085   1_556 S
H537   C424    1.083   1_655 S
N540   Zn552   2.017   .     S
N540   N541    1.288   .     D
N541   Zn551   2.017   .     S
O542   Zn551   1.951   .     S
O542   C415    1.275   1_655 S
O543   Zn552   1.979   .     S
O544   Zn551   1.951   .     S
O544   C418    1.288   1_655 S
O545   Zn552   1.905   .     S
O546   Zn551   1.979   .     S
O547   Zn552   1.951   .     S
O548   Zn551   1.905   .     S
O549   Zn552   1.951   .     S
C553   O589    1.289   .     A
C553   C555    1.403   .     S
C553   O680    1.275   1_455 S
C554   C556    1.453   .     S
C554   C567    1.404   .     A
C554   C562    1.402   .     A
C555   C787    1.339   1_455 S
C555   H714    1.088   .     S
C556   O591    1.299   .     A
C556   O682    1.288   1_455 S
C557   C558    1.403   .     S
C558   O592    1.289   .     A
C558   O639    1.275   .     S
C559   O594    1.303   .     A
C559   C561    1.459   .     S
C559   O641    1.287   .     S
C560   C573    1.402   .     A
C561   C573    1.422   .     A
C561   C572    1.388   .     A
C562   C149    1.388   1_556 S
C562   H675    1.083   1_455 S
C563   C565    1.392   .     A
C563   H585    1.083   .     S
C564   C567    1.406   .     A
C564   C151    1.419   1_556 S
C564   C154    1.412   1_556 S
C565   H584    1.079   .     S
C566   H577    1.080   .     S
C566   O596    1.221   .     D
C566   C665    1.488   1_455 S
C567   C571    1.412   .     A
C568   C572    1.387   .     A
C569   C570    1.392   .     A
C569   C146    1.399   1_556 S
C569   C154    1.416   1_556 S
C570   H580    1.084   .     S
C570   C571    1.385   .     A
C571   H575    1.082   .     S
C572   H582    1.080   .     S
C573   C612    1.488   .     S
H574   C695    1.088   .     S
H578   N586    1.029   .     S
H579   N587    1.029   .     S
H581   C146    1.085   1_556 S
H583   C608    1.083   .     S
N586   Zn598   2.017   .     S
N586   N587    1.288   .     D
N587   Zn597   2.017   .     S
O588   Zn597   1.951   .     S
O588   C599    1.275   .     S
O589   Zn598   1.979   .     S
O590   Zn597   1.951   .     S
O590   C602    1.288   .     S
O591   Zn598   1.905   .     S
O592   Zn597   1.979   .     S
O593   Zn598   1.951   .     S
O593   C650    1.275   1_455 S
O594   Zn597   1.905   .     S
O595   Zn598   1.951   .     S
O595   C651    1.287   1_455 S
C599   O635    1.289   .     A
C599   C601    1.403   .     S
C600   C602    1.453   .     S
C600   C613    1.404   .     A
C600   C608    1.402   .     A
C601   C695    1.339   .     S
C601   H760    1.088   .     S
C602   O637    1.299   .     A
C603   C604    1.403   .     S
C604   O638    1.289   .     A
C604   O685    1.275   .     S
C605   O640    1.303   .     A
C605   C607    1.459   .     S
C605   O687    1.287   .     S
C606   C619    1.402   .     A
C607   C619    1.422   .     A
C607   C618    1.388   .     A
C608   C195    1.388   1_556 S
C609   C611    1.392   .     A
C609   H631    1.083   .     S
C610   C613    1.406   .     A
C610   C197    1.419   1_556 S
C610   C200    1.412   1_556 S
C611   H630    1.079   .     S
C612   H623    1.080   .     S
C612   O642    1.221   .     D
C613   C617    1.412   .     A
C614   C618    1.387   .     A
C615   C616    1.392   .     A
C615   C192    1.399   1_556 S
C615   C200    1.416   1_556 S
C616   H626    1.084   .     S
C616   C617    1.385   .     A
C617   H621    1.082   .     S
C618   H628    1.080   .     S
C619   C658    1.488   .     S
H620   C741    1.088   .     S
H624   N632    1.029   .     S
H625   N633    1.029   .     S
H627   C192    1.085   1_556 S
H629   C654    1.083   .     S
N632   Zn644   2.017   .     S
N632   N633    1.288   .     D
N633   Zn643   2.017   .     S
O634   Zn643   1.951   .     S
O634   C645    1.275   .     S
O635   Zn644   1.979   .     S
O636   Zn643   1.951   .     S
O636   C648    1.288   .     S
O637   Zn644   1.905   .     S
O638   Zn643   1.979   .     S
O639   Zn644   1.951   .     S
O640   Zn643   1.905   .     S
O641   Zn644   1.951   .     S
C645   O681    1.289   .     A
C645   C647    1.403   .     S
C646   C648    1.453   .     S
C646   C659    1.404   .     A
C646   C654    1.402   .     A
C647   C741    1.339   .     S
C647   H806    1.088   .     S
C648   O683    1.299   .     A
C649   C650    1.403   .     S
C649   C417    1.339   1_655 S
C650   O684    1.289   .     A
C650   O593    1.275   1_655 S
C651   O686    1.303   .     A
C651   C653    1.459   .     S
C651   O595    1.287   1_655 S
C652   C665    1.402   .     A
C653   C665    1.422   .     A
C653   C664    1.388   .     A
C654   C241    1.388   1_556 S
C655   C657    1.392   .     A
C655   H677    1.083   .     S
C656   C659    1.406   .     A
C656   C243    1.419   1_556 S
C656   C246    1.412   1_556 S
C657   H676    1.079   .     S
C658   H669    1.080   .     S
C658   O688    1.221   .     D
C659   C663    1.412   .     A
C660   C664    1.387   .     A
C661   C662    1.392   .     A
C661   C238    1.399   1_556 S
C661   C246    1.416   1_556 S
C662   H672    1.084   .     S
C662   C663    1.385   .     A
C663   H667    1.082   .     S
C664   H674    1.080   .     S
C665   C566    1.488   1_655 S
H666   C787    1.088   .     S
H670   N678    1.029   .     S
H671   N679    1.029   .     S
H673   C238    1.085   1_556 S
H675   C562    1.083   1_655 S
N678   Zn690   2.017   .     S
N678   N679    1.288   .     D
N679   Zn689   2.017   .     S
O680   Zn689   1.951   .     S
O680   C553    1.275   1_655 S
O681   Zn690   1.979   .     S
O682   Zn689   1.951   .     S
O682   C556    1.288   1_655 S
O683   Zn690   1.905   .     S
O684   Zn689   1.979   .     S
O685   Zn690   1.951   .     S
O686   Zn689   1.905   .     S
O687   Zn690   1.951   .     S
C691   O727    1.289   .     A
C691   C693    1.403   .     S
C691   O818    1.275   1_455 S
C692   C694    1.453   .     S
C692   C705    1.404   .     A
C692   C700    1.402   .     A
C693   C511    1.339   1_465 S
C693   H438    1.088   1_565 S
C694   O729    1.299   .     A
C694   O820    1.288   1_455 S
C695   C696    1.403   .     S
C696   O730    1.289   .     A
C696   O777    1.275   .     S
C697   O732    1.303   .     A
C697   C699    1.459   .     S
C697   O779    1.287   .     S
C698   C711    1.402   .     A
C699   C711    1.422   .     A
C699   C710    1.388   .     A
C700   C287    1.388   1_556 S
C700   H813    1.083   1_455 S
C701   C703    1.392   .     A
C701   H723    1.083   .     S
C702   C705    1.406   .     A
C702   C289    1.419   1_556 S
C702   C292    1.412   1_556 S
C703   H722    1.079   .     S
C704   H715    1.080   .     S
C704   O734    1.221   .     D
C704   C803    1.488   1_455 S
C705   C709    1.412   .     A
C706   C710    1.387   .     A
C707   C708    1.392   .     A
C707   C284    1.399   1_556 S
C707   C292    1.416   1_556 S
C708   H718    1.084   .     S
C708   C709    1.385   .     A
C709   H713    1.082   .     S
C710   H720    1.080   .     S
C711   C750    1.488   .     S
H712   C419    1.088   1_565 S
H716   N724    1.029   .     S
H717   N725    1.029   .     S
H719   C284    1.085   1_556 S
H721   C746    1.083   .     S
N724   Zn736   2.017   .     S
N724   N725    1.288   .     D
N725   Zn735   2.017   .     S
O726   Zn735   1.951   .     S
O726   C737    1.275   .     S
O727   Zn736   1.979   .     S
O728   Zn735   1.951   .     S
O728   C740    1.288   .     S
O729   Zn736   1.905   .     S
O730   Zn735   1.979   .     S
O731   Zn736   1.951   .     S
O731   C788    1.275   1_455 S
O732   Zn735   1.905   .     S
O733   Zn736   1.951   .     S
O733   C789    1.287   1_455 S
C737   O773    1.289   .     A
C737   C739    1.403   .     S
C738   C740    1.453   .     S
C738   C751    1.404   .     A
C738   C746    1.402   .     A
C739   C419    1.339   1_565 S
C739   H484    1.088   1_565 S
C740   O775    1.299   .     A
C741   C742    1.403   .     S
C742   O776    1.289   .     A
C742   O823    1.275   .     S
C743   O778    1.303   .     A
C743   C745    1.459   .     S
C743   O825    1.287   .     S
C744   C757    1.402   .     A
C745   C757    1.422   .     A
C745   C756    1.388   .     A
C746   C333    1.388   1_556 S
C747   C749    1.392   .     A
C747   H769    1.083   .     S
C748   C751    1.406   .     A
C748   C335    1.419   1_556 S
C748   C338    1.412   1_556 S
C749   H768    1.079   .     S
C750   H761    1.080   .     S
C750   O780    1.221   .     D
C751   C755    1.412   .     A
C752   C756    1.387   .     A
C753   C754    1.392   .     A
C753   C330    1.399   1_556 S
C753   C338    1.416   1_556 S
C754   H764    1.084   .     S
C754   C755    1.385   .     A
C755   H759    1.082   .     S
C756   H766    1.080   .     S
C757   C796    1.488   .     S
H758   C465    1.088   1_565 S
H762   N770    1.029   .     S
H763   N771    1.029   .     S
H765   C330    1.085   1_556 S
H767   C792    1.083   .     S
N770   Zn782   2.017   .     S
N770   N771    1.288   .     D
N771   Zn781   2.017   .     S
O772   Zn781   1.951   .     S
O772   C783    1.275   .     S
O773   Zn782   1.979   .     S
O774   Zn781   1.951   .     S
O774   C786    1.288   .     S
O775   Zn782   1.905   .     S
O776   Zn781   1.979   .     S
O777   Zn782   1.951   .     S
O778   Zn781   1.905   .     S
O779   Zn782   1.951   .     S
C783   O819    1.289   .     A
C783   C785    1.403   .     S
C784   C786    1.453   .     S
C784   C797    1.404   .     A
C784   C792    1.402   .     A
C785   C465    1.339   1_565 S
C785   H530    1.088   1_565 S
C786   O821    1.299   .     A
C787   C788    1.403   .     S
C787   C555    1.339   1_655 S
C788   O822    1.289   .     A
C788   O731    1.275   1_655 S
C789   O824    1.303   .     A
C789   C791    1.459   .     S
C789   O733    1.287   1_655 S
C790   C803    1.402   .     A
C791   C803    1.422   .     A
C791   C802    1.388   .     A
C792   C379    1.388   1_556 S
C793   C795    1.392   .     A
C793   H815    1.083   .     S
C794   C797    1.406   .     A
C794   C381    1.419   1_556 S
C794   C384    1.412   1_556 S
C795   H814    1.079   .     S
C796   H807    1.080   .     S
C796   O826    1.221   .     D
C797   C801    1.412   .     A
C798   C802    1.387   .     A
C799   C800    1.392   .     A
C799   C376    1.399   1_556 S
C799   C384    1.416   1_556 S
C800   H810    1.084   .     S
C800   C801    1.385   .     A
C801   H805    1.082   .     S
C802   H812    1.080   .     S
C803   C704    1.488   1_655 S
H804   C511    1.088   1_565 S
H808   N816    1.029   .     S
H809   N817    1.029   .     S
H811   C376    1.085   1_556 S
H813   C700    1.083   1_655 S
N816   Zn828   2.017   .     S
N816   N817    1.288   .     D
N817   Zn827   2.017   .     S
O818   Zn827   1.951   .     S
O818   C691    1.275   1_655 S
O819   Zn828   1.979   .     S
O820   Zn827   1.951   .     S
O820   C694    1.288   1_655 S
O821   Zn828   1.905   .     S
O822   Zn827   1.979   .     S
O823   Zn828   1.951   .     S
O824   Zn827   1.905   .     S
O825   Zn828   1.951   .     S
