data_str_m3_o1_o10_pcu_sym.136
_audit_creation_date              2020-01-03
_audit_creation_method            'Materials Studio'
_symmetry_space_group_name_H-M    'P1'
_symmetry_Int_Tables_number       1
_symmetry_cell_setting            triclinic
loop_
_symmetry_equiv_pos_as_xyz
  x,y,z
_cell_length_a                    25.7456
_cell_length_b                    31.9691
_cell_length_c                    29.7908
_cell_angle_alpha                 88.9527
_cell_angle_beta                  98.0976
_cell_angle_gamma                 91.5711
loop_
_atom_site_label
_atom_site_type_symbol
_atom_site_fract_x
_atom_site_fract_y
_atom_site_fract_z
_atom_site_U_iso_or_equiv
_atom_site_adp_type
_atom_site_occupancy
C1     C     0.16636   0.08675   0.16690   0.00000  Uiso   1.00
C2     C     0.16697   0.24658   0.16644   0.00000  Uiso   1.00
C3     C     0.06719   0.16663   0.15485   0.00000  Uiso   1.00
C4     C     0.26614   0.16671   0.17848   0.00000  Uiso   1.00
C5     C     0.01220   0.16674   0.14847   0.00000  Uiso   1.00
C6     C     0.32114   0.16659   0.18486   0.00000  Uiso   1.00
C7     C     0.13964   0.02152   0.12963   0.00000  Uiso   1.00
C8     C     0.19370   0.31182   0.20370   0.00000  Uiso   1.00
C9     C     0.14015   0.31196   0.12924   0.00000  Uiso   1.00
C10    C     0.19319   0.02138   0.20409   0.00000  Uiso   1.00
C11    C     0.16728   0.29077   0.16621   0.00000  Uiso   1.00
C12    C     0.16605   0.04257   0.16713   0.00000  Uiso   1.00
C13    C     0.19756   0.19493   0.02628   0.00000  Uiso   1.00
C14    C     0.13577   0.13841   0.30706   0.00000  Uiso   1.00
C15    C     0.19737   0.19435   0.31193   0.00000  Uiso   1.00
C16    C     0.13596   0.13899   0.02140   0.00000  Uiso   1.00
H17    H     0.32525   0.16698   0.11386   0.00000  Uiso   1.00
H18    H     0.00809   0.16635   0.21947   0.00000  Uiso   1.00
H19    H     0.11833   0.03819   0.10111   0.00000  Uiso   1.00
H20    H     0.21501   0.29514   0.23223   0.00000  Uiso   1.00
H21    H     0.11865   0.29538   0.10080   0.00000  Uiso   1.00
H22    H     0.21468   0.03795   0.23254   0.00000  Uiso   1.00
N23    N     0.16665   0.16666   0.28573   0.00000  Uiso   1.00
N24    N     0.16668   0.16668   0.04760   0.00000  Uiso   1.00
O25    O     0.16666   0.10558   0.20487   0.00000  Uiso   1.00
O26    O     0.16667   0.22775   0.12846   0.00000  Uiso   1.00
O27    O     0.16666   0.10559   0.12843   0.00000  Uiso   1.00
O28    O     0.16667   0.22774   0.20490   0.00000  Uiso   1.00
O29    O     0.09058   0.16666   0.19595   0.00000  Uiso   1.00
O30    O     0.24275   0.16667   0.13739   0.00000  Uiso   1.00
O31    O     0.09058   0.16667   0.11950   0.00000  Uiso   1.00
O32    O     0.24275   0.16666   0.21383   0.00000  Uiso   1.00
Zn33   Zn    0.16667   0.16666   0.21771   0.00000  Uiso   1.00
Zn34   Zn    0.16667   0.16667   0.11563   0.00000  Uiso   1.00
C35    C     0.23300   0.22765   0.05160   0.00000  Uiso   1.00
C36    C     0.21285   0.27169   0.04042   0.00000  Uiso   1.00
H37    H     0.21644   0.28048   0.00473   0.00000  Uiso   1.00
H38    H     0.17107   0.27335   0.04542   0.00000  Uiso   1.00
H39    H     0.23629   0.29461   0.06300   0.00000  Uiso   1.00
H40    H     0.23748   0.22297   0.08830   0.00000  Uiso   1.00
H41    H     0.27313   0.22556   0.04219   0.00000  Uiso   1.00
C42    C     0.10033   0.10568   0.28174   0.00000  Uiso   1.00
C43    C     0.12048   0.06165   0.29291   0.00000  Uiso   1.00
H44    H     0.16226   0.05998   0.28791   0.00000  Uiso   1.00
H45    H     0.11689   0.05286   0.32860   0.00000  Uiso   1.00
H46    H     0.09704   0.03872   0.27033   0.00000  Uiso   1.00
H47    H     0.06021   0.10778   0.29115   0.00000  Uiso   1.00
H48    H     0.09585   0.11036   0.24503   0.00000  Uiso   1.00
H49    H     0.22199   0.21621   0.29574   0.00000  Uiso   1.00
H50    H     0.11134   0.11713   0.03760   0.00000  Uiso   1.00
C51    C     0.49970   0.08675   0.16690   0.00000  Uiso   1.00
C52    C     0.50031   0.24658   0.16644   0.00000  Uiso   1.00
C53    C     0.40053   0.16663   0.15485   0.00000  Uiso   1.00
C54    C     0.59947   0.16671   0.17848   0.00000  Uiso   1.00
C55    C     0.34553   0.16674   0.14847   0.00000  Uiso   1.00
C56    C     0.65447   0.16659   0.18486   0.00000  Uiso   1.00
C57    C     0.47297   0.02152   0.12963   0.00000  Uiso   1.00
C58    C     0.52703   0.31182   0.20370   0.00000  Uiso   1.00
C59    C     0.47348   0.31196   0.12924   0.00000  Uiso   1.00
C60    C     0.52652   0.02138   0.20409   0.00000  Uiso   1.00
C61    C     0.50062   0.29077   0.16621   0.00000  Uiso   1.00
C62    C     0.49938   0.04257   0.16713   0.00000  Uiso   1.00
C63    C     0.53090   0.19493   0.02628   0.00000  Uiso   1.00
C64    C     0.46910   0.13841   0.30706   0.00000  Uiso   1.00
C65    C     0.53071   0.19435   0.31193   0.00000  Uiso   1.00
C66    C     0.46929   0.13899   0.02140   0.00000  Uiso   1.00
H67    H     0.65858   0.16698   0.11386   0.00000  Uiso   1.00
H68    H     0.34142   0.16635   0.21947   0.00000  Uiso   1.00
H69    H     0.45166   0.03819   0.10111   0.00000  Uiso   1.00
H70    H     0.54834   0.29514   0.23223   0.00000  Uiso   1.00
H71    H     0.45198   0.29538   0.10080   0.00000  Uiso   1.00
H72    H     0.54802   0.03795   0.23254   0.00000  Uiso   1.00
N73    N     0.49999   0.16666   0.28573   0.00000  Uiso   1.00
N74    N     0.50001   0.16668   0.04760   0.00000  Uiso   1.00
O75    O     0.50000   0.10558   0.20487   0.00000  Uiso   1.00
O76    O     0.50000   0.22775   0.12846   0.00000  Uiso   1.00
O77    O     0.50000   0.10559   0.12843   0.00000  Uiso   1.00
O78    O     0.50000   0.22774   0.20490   0.00000  Uiso   1.00
O79    O     0.42392   0.16666   0.19595   0.00000  Uiso   1.00
O80    O     0.57608   0.16667   0.13739   0.00000  Uiso   1.00
O81    O     0.42392   0.16667   0.11950   0.00000  Uiso   1.00
O82    O     0.57608   0.16666   0.21383   0.00000  Uiso   1.00
Zn83   Zn    0.50000   0.16666   0.21771   0.00000  Uiso   1.00
Zn84   Zn    0.50000   0.16667   0.11563   0.00000  Uiso   1.00
C85    C     0.56634   0.22765   0.05160   0.00000  Uiso   1.00
C86    C     0.54619   0.27169   0.04042   0.00000  Uiso   1.00
H87    H     0.54977   0.28048   0.00473   0.00000  Uiso   1.00
H88    H     0.50441   0.27335   0.04542   0.00000  Uiso   1.00
H89    H     0.56963   0.29461   0.06300   0.00000  Uiso   1.00
H90    H     0.57082   0.22297   0.08830   0.00000  Uiso   1.00
H91    H     0.60646   0.22556   0.04219   0.00000  Uiso   1.00
C92    C     0.43366   0.10568   0.28174   0.00000  Uiso   1.00
C93    C     0.45381   0.06165   0.29291   0.00000  Uiso   1.00
H94    H     0.49559   0.05998   0.28791   0.00000  Uiso   1.00
H95    H     0.45022   0.05286   0.32860   0.00000  Uiso   1.00
H96    H     0.43037   0.03872   0.27033   0.00000  Uiso   1.00
H97    H     0.39354   0.10778   0.29115   0.00000  Uiso   1.00
H98    H     0.42919   0.11036   0.24503   0.00000  Uiso   1.00
H99    H     0.55532   0.21621   0.29574   0.00000  Uiso   1.00
H100   H     0.44468   0.11713   0.03760   0.00000  Uiso   1.00
C101   C     0.83303   0.08675   0.16690   0.00000  Uiso   1.00
C102   C     0.83364   0.24658   0.16644   0.00000  Uiso   1.00
C103   C     0.73386   0.16663   0.15485   0.00000  Uiso   1.00
C104   C     0.93281   0.16671   0.17848   0.00000  Uiso   1.00
C105   C     0.67886   0.16674   0.14847   0.00000  Uiso   1.00
C106   C     0.98780   0.16659   0.18486   0.00000  Uiso   1.00
C107   C     0.80631   0.02152   0.12963   0.00000  Uiso   1.00
C108   C     0.86036   0.31182   0.20370   0.00000  Uiso   1.00
C109   C     0.80681   0.31196   0.12924   0.00000  Uiso   1.00
C110   C     0.85986   0.02138   0.20409   0.00000  Uiso   1.00
C111   C     0.83395   0.29077   0.16621   0.00000  Uiso   1.00
C112   C     0.83272   0.04257   0.16713   0.00000  Uiso   1.00
C113   C     0.86423   0.19493   0.02628   0.00000  Uiso   1.00
C114   C     0.80244   0.13841   0.30706   0.00000  Uiso   1.00
C115   C     0.86404   0.19435   0.31193   0.00000  Uiso   1.00
C116   C     0.80263   0.13899   0.02140   0.00000  Uiso   1.00
H117   H     0.99191   0.16698   0.11386   0.00000  Uiso   1.00
H118   H     0.67475   0.16635   0.21947   0.00000  Uiso   1.00
H119   H     0.78499   0.03819   0.10111   0.00000  Uiso   1.00
H120   H     0.88168   0.29514   0.23223   0.00000  Uiso   1.00
H121   H     0.78532   0.29538   0.10080   0.00000  Uiso   1.00
H122   H     0.88135   0.03795   0.23254   0.00000  Uiso   1.00
N123   N     0.83332   0.16666   0.28573   0.00000  Uiso   1.00
N124   N     0.83335   0.16668   0.04760   0.00000  Uiso   1.00
O125   O     0.83333   0.10558   0.20487   0.00000  Uiso   1.00
O126   O     0.83334   0.22775   0.12846   0.00000  Uiso   1.00
O127   O     0.83333   0.10559   0.12843   0.00000  Uiso   1.00
O128   O     0.83334   0.22774   0.20490   0.00000  Uiso   1.00
O129   O     0.75725   0.16666   0.19595   0.00000  Uiso   1.00
O130   O     0.90942   0.16667   0.13739   0.00000  Uiso   1.00
O131   O     0.75725   0.16667   0.11950   0.00000  Uiso   1.00
O132   O     0.90942   0.16666   0.21383   0.00000  Uiso   1.00
Zn133  Zn    0.83333   0.16666   0.21771   0.00000  Uiso   1.00
Zn134  Zn    0.83333   0.16667   0.11563   0.00000  Uiso   1.00
C135   C     0.89967   0.22765   0.05160   0.00000  Uiso   1.00
C136   C     0.87952   0.27169   0.04042   0.00000  Uiso   1.00
H137   H     0.88311   0.28048   0.00473   0.00000  Uiso   1.00
H138   H     0.83774   0.27335   0.04542   0.00000  Uiso   1.00
H139   H     0.90296   0.29461   0.06300   0.00000  Uiso   1.00
H140   H     0.90415   0.22297   0.08830   0.00000  Uiso   1.00
H141   H     0.93979   0.22556   0.04219   0.00000  Uiso   1.00
C142   C     0.76700   0.10568   0.28174   0.00000  Uiso   1.00
C143   C     0.78715   0.06165   0.29291   0.00000  Uiso   1.00
H144   H     0.82892   0.05998   0.28791   0.00000  Uiso   1.00
H145   H     0.78356   0.05286   0.32860   0.00000  Uiso   1.00
H146   H     0.76370   0.03872   0.27033   0.00000  Uiso   1.00
H147   H     0.72687   0.10778   0.29115   0.00000  Uiso   1.00
H148   H     0.76252   0.11036   0.24503   0.00000  Uiso   1.00
H149   H     0.88866   0.21621   0.29574   0.00000  Uiso   1.00
H150   H     0.77801   0.11713   0.03760   0.00000  Uiso   1.00
C151   C     0.16636   0.42008   0.16690   0.00000  Uiso   1.00
C152   C     0.16697   0.57992   0.16644   0.00000  Uiso   1.00
C153   C     0.06719   0.49996   0.15485   0.00000  Uiso   1.00
C154   C     0.26614   0.50004   0.17848   0.00000  Uiso   1.00
C155   C     0.01220   0.50007   0.14847   0.00000  Uiso   1.00
C156   C     0.32114   0.49993   0.18486   0.00000  Uiso   1.00
C157   C     0.13964   0.35485   0.12963   0.00000  Uiso   1.00
C158   C     0.19370   0.64515   0.20370   0.00000  Uiso   1.00
C159   C     0.14015   0.64529   0.12924   0.00000  Uiso   1.00
C160   C     0.19319   0.35471   0.20409   0.00000  Uiso   1.00
C161   C     0.16728   0.62410   0.16621   0.00000  Uiso   1.00
C162   C     0.16605   0.37590   0.16713   0.00000  Uiso   1.00
C163   C     0.19756   0.52826   0.02628   0.00000  Uiso   1.00
C164   C     0.13577   0.47174   0.30706   0.00000  Uiso   1.00
C165   C     0.19737   0.52768   0.31193   0.00000  Uiso   1.00
C166   C     0.13596   0.47232   0.02140   0.00000  Uiso   1.00
H167   H     0.32525   0.50031   0.11386   0.00000  Uiso   1.00
H168   H     0.00809   0.49969   0.21947   0.00000  Uiso   1.00
H169   H     0.11833   0.37153   0.10111   0.00000  Uiso   1.00
H170   H     0.21501   0.62847   0.23223   0.00000  Uiso   1.00
H171   H     0.11865   0.62872   0.10080   0.00000  Uiso   1.00
H172   H     0.21468   0.37128   0.23254   0.00000  Uiso   1.00
N173   N     0.16665   0.49999   0.28573   0.00000  Uiso   1.00
N174   N     0.16668   0.50001   0.04760   0.00000  Uiso   1.00
O175   O     0.16666   0.43892   0.20487   0.00000  Uiso   1.00
O176   O     0.16667   0.56108   0.12846   0.00000  Uiso   1.00
O177   O     0.16666   0.43893   0.12843   0.00000  Uiso   1.00
O178   O     0.16667   0.56107   0.20490   0.00000  Uiso   1.00
O179   O     0.09058   0.50000   0.19595   0.00000  Uiso   1.00
O180   O     0.24275   0.50000   0.13739   0.00000  Uiso   1.00
O181   O     0.09058   0.50000   0.11950   0.00000  Uiso   1.00
O182   O     0.24275   0.50000   0.21383   0.00000  Uiso   1.00
Zn183  Zn    0.16667   0.49999   0.21771   0.00000  Uiso   1.00
Zn184  Zn    0.16667   0.50001   0.11563   0.00000  Uiso   1.00
C185   C     0.23300   0.56098   0.05160   0.00000  Uiso   1.00
C186   C     0.21285   0.60502   0.04042   0.00000  Uiso   1.00
H187   H     0.21644   0.61381   0.00473   0.00000  Uiso   1.00
H188   H     0.17107   0.60668   0.04542   0.00000  Uiso   1.00
H189   H     0.23629   0.62795   0.06300   0.00000  Uiso   1.00
H190   H     0.23748   0.55631   0.08830   0.00000  Uiso   1.00
H191   H     0.27313   0.55889   0.04219   0.00000  Uiso   1.00
C192   C     0.10033   0.43902   0.28174   0.00000  Uiso   1.00
C193   C     0.12048   0.39498   0.29291   0.00000  Uiso   1.00
H194   H     0.16226   0.39331   0.28791   0.00000  Uiso   1.00
H195   H     0.11689   0.38619   0.32860   0.00000  Uiso   1.00
H196   H     0.09704   0.37205   0.27033   0.00000  Uiso   1.00
H197   H     0.06021   0.44111   0.29115   0.00000  Uiso   1.00
H198   H     0.09585   0.44369   0.24503   0.00000  Uiso   1.00
H199   H     0.22199   0.54954   0.29574   0.00000  Uiso   1.00
H200   H     0.11134   0.45046   0.03760   0.00000  Uiso   1.00
C201   C     0.49970   0.42008   0.16690   0.00000  Uiso   1.00
C202   C     0.50031   0.57992   0.16644   0.00000  Uiso   1.00
C203   C     0.40053   0.49996   0.15485   0.00000  Uiso   1.00
C204   C     0.59947   0.50004   0.17848   0.00000  Uiso   1.00
C205   C     0.34553   0.50007   0.14847   0.00000  Uiso   1.00
C206   C     0.65447   0.49993   0.18486   0.00000  Uiso   1.00
C207   C     0.47297   0.35485   0.12963   0.00000  Uiso   1.00
C208   C     0.52703   0.64515   0.20370   0.00000  Uiso   1.00
C209   C     0.47348   0.64529   0.12924   0.00000  Uiso   1.00
C210   C     0.52652   0.35471   0.20409   0.00000  Uiso   1.00
C211   C     0.50062   0.62410   0.16621   0.00000  Uiso   1.00
C212   C     0.49938   0.37590   0.16713   0.00000  Uiso   1.00
C213   C     0.53090   0.52826   0.02628   0.00000  Uiso   1.00
C214   C     0.46910   0.47174   0.30706   0.00000  Uiso   1.00
C215   C     0.53071   0.52768   0.31193   0.00000  Uiso   1.00
C216   C     0.46929   0.47232   0.02140   0.00000  Uiso   1.00
H217   H     0.65858   0.50031   0.11386   0.00000  Uiso   1.00
H218   H     0.34142   0.49969   0.21947   0.00000  Uiso   1.00
H219   H     0.45166   0.37153   0.10111   0.00000  Uiso   1.00
H220   H     0.54834   0.62847   0.23223   0.00000  Uiso   1.00
H221   H     0.45198   0.62872   0.10080   0.00000  Uiso   1.00
H222   H     0.54802   0.37128   0.23254   0.00000  Uiso   1.00
N223   N     0.49999   0.49999   0.28573   0.00000  Uiso   1.00
N224   N     0.50001   0.50001   0.04760   0.00000  Uiso   1.00
O225   O     0.50000   0.43892   0.20487   0.00000  Uiso   1.00
O226   O     0.50000   0.56108   0.12846   0.00000  Uiso   1.00
O227   O     0.50000   0.43893   0.12843   0.00000  Uiso   1.00
O228   O     0.50000   0.56107   0.20490   0.00000  Uiso   1.00
O229   O     0.42392   0.50000   0.19595   0.00000  Uiso   1.00
O230   O     0.57608   0.50000   0.13739   0.00000  Uiso   1.00
O231   O     0.42392   0.50000   0.11950   0.00000  Uiso   1.00
O232   O     0.57608   0.50000   0.21383   0.00000  Uiso   1.00
Zn233  Zn    0.50000   0.49999   0.21771   0.00000  Uiso   1.00
Zn234  Zn    0.50000   0.50001   0.11563   0.00000  Uiso   1.00
C235   C     0.56634   0.56098   0.05160   0.00000  Uiso   1.00
C236   C     0.54619   0.60502   0.04042   0.00000  Uiso   1.00
H237   H     0.54977   0.61381   0.00473   0.00000  Uiso   1.00
H238   H     0.50441   0.60668   0.04542   0.00000  Uiso   1.00
H239   H     0.56963   0.62795   0.06300   0.00000  Uiso   1.00
H240   H     0.57082   0.55631   0.08830   0.00000  Uiso   1.00
H241   H     0.60646   0.55889   0.04219   0.00000  Uiso   1.00
C242   C     0.43366   0.43902   0.28174   0.00000  Uiso   1.00
C243   C     0.45381   0.39498   0.29291   0.00000  Uiso   1.00
H244   H     0.49559   0.39331   0.28791   0.00000  Uiso   1.00
H245   H     0.45022   0.38619   0.32860   0.00000  Uiso   1.00
H246   H     0.43037   0.37205   0.27033   0.00000  Uiso   1.00
H247   H     0.39354   0.44111   0.29115   0.00000  Uiso   1.00
H248   H     0.42919   0.44369   0.24503   0.00000  Uiso   1.00
H249   H     0.55532   0.54954   0.29574   0.00000  Uiso   1.00
H250   H     0.44468   0.45046   0.03760   0.00000  Uiso   1.00
C251   C     0.83303   0.42008   0.16690   0.00000  Uiso   1.00
C252   C     0.83364   0.57992   0.16644   0.00000  Uiso   1.00
C253   C     0.73386   0.49996   0.15485   0.00000  Uiso   1.00
C254   C     0.93281   0.50004   0.17848   0.00000  Uiso   1.00
C255   C     0.67886   0.50007   0.14847   0.00000  Uiso   1.00
C256   C     0.98780   0.49993   0.18486   0.00000  Uiso   1.00
C257   C     0.80631   0.35485   0.12963   0.00000  Uiso   1.00
C258   C     0.86036   0.64515   0.20370   0.00000  Uiso   1.00
C259   C     0.80681   0.64529   0.12924   0.00000  Uiso   1.00
C260   C     0.85986   0.35471   0.20409   0.00000  Uiso   1.00
C261   C     0.83395   0.62410   0.16621   0.00000  Uiso   1.00
C262   C     0.83272   0.37590   0.16713   0.00000  Uiso   1.00
C263   C     0.86423   0.52826   0.02628   0.00000  Uiso   1.00
C264   C     0.80244   0.47174   0.30706   0.00000  Uiso   1.00
C265   C     0.86404   0.52768   0.31193   0.00000  Uiso   1.00
C266   C     0.80263   0.47232   0.02140   0.00000  Uiso   1.00
H267   H     0.99191   0.50031   0.11386   0.00000  Uiso   1.00
H268   H     0.67475   0.49969   0.21947   0.00000  Uiso   1.00
H269   H     0.78499   0.37153   0.10111   0.00000  Uiso   1.00
H270   H     0.88168   0.62847   0.23223   0.00000  Uiso   1.00
H271   H     0.78532   0.62872   0.10080   0.00000  Uiso   1.00
H272   H     0.88135   0.37128   0.23254   0.00000  Uiso   1.00
N273   N     0.83332   0.49999   0.28573   0.00000  Uiso   1.00
N274   N     0.83335   0.50001   0.04760   0.00000  Uiso   1.00
O275   O     0.83333   0.43892   0.20487   0.00000  Uiso   1.00
O276   O     0.83334   0.56108   0.12846   0.00000  Uiso   1.00
O277   O     0.83333   0.43893   0.12843   0.00000  Uiso   1.00
O278   O     0.83334   0.56107   0.20490   0.00000  Uiso   1.00
O279   O     0.75725   0.50000   0.19595   0.00000  Uiso   1.00
O280   O     0.90942   0.50000   0.13739   0.00000  Uiso   1.00
O281   O     0.75725   0.50000   0.11950   0.00000  Uiso   1.00
O282   O     0.90942   0.50000   0.21383   0.00000  Uiso   1.00
Zn283  Zn    0.83333   0.49999   0.21771   0.00000  Uiso   1.00
Zn284  Zn    0.83333   0.50001   0.11563   0.00000  Uiso   1.00
C285   C     0.89967   0.56098   0.05160   0.00000  Uiso   1.00
C286   C     0.87952   0.60502   0.04042   0.00000  Uiso   1.00
H287   H     0.88311   0.61381   0.00473   0.00000  Uiso   1.00
H288   H     0.83774   0.60668   0.04542   0.00000  Uiso   1.00
H289   H     0.90296   0.62795   0.06300   0.00000  Uiso   1.00
H290   H     0.90415   0.55631   0.08830   0.00000  Uiso   1.00
H291   H     0.93979   0.55889   0.04219   0.00000  Uiso   1.00
C292   C     0.76700   0.43902   0.28174   0.00000  Uiso   1.00
C293   C     0.78715   0.39498   0.29291   0.00000  Uiso   1.00
H294   H     0.82892   0.39331   0.28791   0.00000  Uiso   1.00
H295   H     0.78356   0.38619   0.32860   0.00000  Uiso   1.00
H296   H     0.76370   0.37205   0.27033   0.00000  Uiso   1.00
H297   H     0.72687   0.44111   0.29115   0.00000  Uiso   1.00
H298   H     0.76252   0.44369   0.24503   0.00000  Uiso   1.00
H299   H     0.88866   0.54954   0.29574   0.00000  Uiso   1.00
H300   H     0.77801   0.45046   0.03760   0.00000  Uiso   1.00
C301   C     0.16636   0.75342   0.16690   0.00000  Uiso   1.00
C302   C     0.16697   0.91325   0.16644   0.00000  Uiso   1.00
C303   C     0.06719   0.83329   0.15485   0.00000  Uiso   1.00
C304   C     0.26614   0.83337   0.17848   0.00000  Uiso   1.00
C305   C     0.01220   0.83341   0.14847   0.00000  Uiso   1.00
C306   C     0.32114   0.83326   0.18486   0.00000  Uiso   1.00
C307   C     0.13964   0.68818   0.12963   0.00000  Uiso   1.00
C308   C     0.19370   0.97848   0.20370   0.00000  Uiso   1.00
C309   C     0.14015   0.97862   0.12924   0.00000  Uiso   1.00
C310   C     0.19319   0.68804   0.20409   0.00000  Uiso   1.00
C311   C     0.16728   0.95743   0.16621   0.00000  Uiso   1.00
C312   C     0.16605   0.70923   0.16713   0.00000  Uiso   1.00
C313   C     0.19756   0.86159   0.02628   0.00000  Uiso   1.00
C314   C     0.13577   0.80507   0.30706   0.00000  Uiso   1.00
C315   C     0.19737   0.86101   0.31193   0.00000  Uiso   1.00
C316   C     0.13596   0.80565   0.02140   0.00000  Uiso   1.00
H317   H     0.32525   0.83365   0.11386   0.00000  Uiso   1.00
H318   H     0.00809   0.83302   0.21947   0.00000  Uiso   1.00
H319   H     0.11833   0.70486   0.10111   0.00000  Uiso   1.00
H320   H     0.21501   0.96181   0.23223   0.00000  Uiso   1.00
H321   H     0.11865   0.96205   0.10080   0.00000  Uiso   1.00
H322   H     0.21468   0.70462   0.23254   0.00000  Uiso   1.00
N323   N     0.16665   0.83332   0.28573   0.00000  Uiso   1.00
N324   N     0.16668   0.83334   0.04760   0.00000  Uiso   1.00
O325   O     0.16666   0.77225   0.20487   0.00000  Uiso   1.00
O326   O     0.16667   0.89442   0.12846   0.00000  Uiso   1.00
O327   O     0.16666   0.77226   0.12843   0.00000  Uiso   1.00
O328   O     0.16667   0.89441   0.20490   0.00000  Uiso   1.00
O329   O     0.09058   0.83333   0.19595   0.00000  Uiso   1.00
O330   O     0.24275   0.83334   0.13739   0.00000  Uiso   1.00
O331   O     0.09058   0.83334   0.11950   0.00000  Uiso   1.00
O332   O     0.24275   0.83333   0.21383   0.00000  Uiso   1.00
Zn333  Zn    0.16667   0.83333   0.21771   0.00000  Uiso   1.00
Zn334  Zn    0.16667   0.83334   0.11563   0.00000  Uiso   1.00
C335   C     0.23300   0.89431   0.05160   0.00000  Uiso   1.00
C336   C     0.21285   0.93835   0.04042   0.00000  Uiso   1.00
H337   H     0.21644   0.94714   0.00473   0.00000  Uiso   1.00
H338   H     0.17107   0.94002   0.04542   0.00000  Uiso   1.00
H339   H     0.23629   0.96128   0.06300   0.00000  Uiso   1.00
H340   H     0.23748   0.88964   0.08830   0.00000  Uiso   1.00
H341   H     0.27313   0.89222   0.04219   0.00000  Uiso   1.00
C342   C     0.10033   0.77235   0.28174   0.00000  Uiso   1.00
C343   C     0.12048   0.72831   0.29291   0.00000  Uiso   1.00
H344   H     0.16226   0.72665   0.28791   0.00000  Uiso   1.00
H345   H     0.11689   0.71953   0.32860   0.00000  Uiso   1.00
H346   H     0.09704   0.70539   0.27033   0.00000  Uiso   1.00
H347   H     0.06021   0.77444   0.29115   0.00000  Uiso   1.00
H348   H     0.09585   0.77702   0.24503   0.00000  Uiso   1.00
H349   H     0.22199   0.88287   0.29574   0.00000  Uiso   1.00
H350   H     0.11134   0.78379   0.03760   0.00000  Uiso   1.00
C351   C     0.49970   0.75342   0.16690   0.00000  Uiso   1.00
C352   C     0.50031   0.91325   0.16644   0.00000  Uiso   1.00
C353   C     0.40053   0.83329   0.15485   0.00000  Uiso   1.00
C354   C     0.59947   0.83337   0.17848   0.00000  Uiso   1.00
C355   C     0.34553   0.83341   0.14847   0.00000  Uiso   1.00
C356   C     0.65447   0.83326   0.18486   0.00000  Uiso   1.00
C357   C     0.47297   0.68818   0.12963   0.00000  Uiso   1.00
C358   C     0.52703   0.97848   0.20370   0.00000  Uiso   1.00
C359   C     0.47348   0.97862   0.12924   0.00000  Uiso   1.00
C360   C     0.52652   0.68804   0.20409   0.00000  Uiso   1.00
C361   C     0.50062   0.95743   0.16621   0.00000  Uiso   1.00
C362   C     0.49938   0.70923   0.16713   0.00000  Uiso   1.00
C363   C     0.53090   0.86159   0.02628   0.00000  Uiso   1.00
C364   C     0.46910   0.80507   0.30706   0.00000  Uiso   1.00
C365   C     0.53071   0.86101   0.31193   0.00000  Uiso   1.00
C366   C     0.46929   0.80565   0.02140   0.00000  Uiso   1.00
H367   H     0.65858   0.83365   0.11386   0.00000  Uiso   1.00
H368   H     0.34142   0.83302   0.21947   0.00000  Uiso   1.00
H369   H     0.45166   0.70486   0.10111   0.00000  Uiso   1.00
H370   H     0.54834   0.96181   0.23223   0.00000  Uiso   1.00
H371   H     0.45198   0.96205   0.10080   0.00000  Uiso   1.00
H372   H     0.54802   0.70462   0.23254   0.00000  Uiso   1.00
N373   N     0.49999   0.83332   0.28573   0.00000  Uiso   1.00
N374   N     0.50001   0.83334   0.04760   0.00000  Uiso   1.00
O375   O     0.50000   0.77225   0.20487   0.00000  Uiso   1.00
O376   O     0.50000   0.89442   0.12846   0.00000  Uiso   1.00
O377   O     0.50000   0.77226   0.12843   0.00000  Uiso   1.00
O378   O     0.50000   0.89441   0.20490   0.00000  Uiso   1.00
O379   O     0.42392   0.83333   0.19595   0.00000  Uiso   1.00
O380   O     0.57608   0.83334   0.13739   0.00000  Uiso   1.00
O381   O     0.42392   0.83334   0.11950   0.00000  Uiso   1.00
O382   O     0.57608   0.83333   0.21383   0.00000  Uiso   1.00
Zn383  Zn    0.50000   0.83333   0.21771   0.00000  Uiso   1.00
Zn384  Zn    0.50000   0.83334   0.11563   0.00000  Uiso   1.00
C385   C     0.56634   0.89431   0.05160   0.00000  Uiso   1.00
C386   C     0.54619   0.93835   0.04042   0.00000  Uiso   1.00
H387   H     0.54977   0.94714   0.00473   0.00000  Uiso   1.00
H388   H     0.50441   0.94002   0.04542   0.00000  Uiso   1.00
H389   H     0.56963   0.96128   0.06300   0.00000  Uiso   1.00
H390   H     0.57082   0.88964   0.08830   0.00000  Uiso   1.00
H391   H     0.60646   0.89222   0.04219   0.00000  Uiso   1.00
C392   C     0.43366   0.77235   0.28174   0.00000  Uiso   1.00
C393   C     0.45381   0.72831   0.29291   0.00000  Uiso   1.00
H394   H     0.49559   0.72665   0.28791   0.00000  Uiso   1.00
H395   H     0.45022   0.71953   0.32860   0.00000  Uiso   1.00
H396   H     0.43037   0.70539   0.27033   0.00000  Uiso   1.00
H397   H     0.39354   0.77444   0.29115   0.00000  Uiso   1.00
H398   H     0.42919   0.77702   0.24503   0.00000  Uiso   1.00
H399   H     0.55532   0.88287   0.29574   0.00000  Uiso   1.00
H400   H     0.44468   0.78379   0.03760   0.00000  Uiso   1.00
C401   C     0.83303   0.75342   0.16690   0.00000  Uiso   1.00
C402   C     0.83364   0.91325   0.16644   0.00000  Uiso   1.00
C403   C     0.73386   0.83329   0.15485   0.00000  Uiso   1.00
C404   C     0.93281   0.83337   0.17848   0.00000  Uiso   1.00
C405   C     0.67886   0.83341   0.14847   0.00000  Uiso   1.00
C406   C     0.98780   0.83326   0.18486   0.00000  Uiso   1.00
C407   C     0.80631   0.68818   0.12963   0.00000  Uiso   1.00
C408   C     0.86036   0.97848   0.20370   0.00000  Uiso   1.00
C409   C     0.80681   0.97862   0.12924   0.00000  Uiso   1.00
C410   C     0.85986   0.68804   0.20409   0.00000  Uiso   1.00
C411   C     0.83395   0.95743   0.16621   0.00000  Uiso   1.00
C412   C     0.83272   0.70923   0.16713   0.00000  Uiso   1.00
C413   C     0.86423   0.86159   0.02628   0.00000  Uiso   1.00
C414   C     0.80244   0.80507   0.30706   0.00000  Uiso   1.00
C415   C     0.86404   0.86101   0.31193   0.00000  Uiso   1.00
C416   C     0.80263   0.80565   0.02140   0.00000  Uiso   1.00
H417   H     0.99191   0.83365   0.11386   0.00000  Uiso   1.00
H418   H     0.67475   0.83302   0.21947   0.00000  Uiso   1.00
H419   H     0.78499   0.70486   0.10111   0.00000  Uiso   1.00
H420   H     0.88168   0.96181   0.23223   0.00000  Uiso   1.00
H421   H     0.78532   0.96205   0.10080   0.00000  Uiso   1.00
H422   H     0.88135   0.70462   0.23254   0.00000  Uiso   1.00
N423   N     0.83332   0.83332   0.28573   0.00000  Uiso   1.00
N424   N     0.83335   0.83334   0.04760   0.00000  Uiso   1.00
O425   O     0.83333   0.77225   0.20487   0.00000  Uiso   1.00
O426   O     0.83334   0.89442   0.12846   0.00000  Uiso   1.00
O427   O     0.83333   0.77226   0.12843   0.00000  Uiso   1.00
O428   O     0.83334   0.89441   0.20490   0.00000  Uiso   1.00
O429   O     0.75725   0.83333   0.19595   0.00000  Uiso   1.00
O430   O     0.90942   0.83334   0.13739   0.00000  Uiso   1.00
O431   O     0.75725   0.83334   0.11950   0.00000  Uiso   1.00
O432   O     0.90942   0.83333   0.21383   0.00000  Uiso   1.00
Zn433  Zn    0.83333   0.83333   0.21771   0.00000  Uiso   1.00
Zn434  Zn    0.83333   0.83334   0.11563   0.00000  Uiso   1.00
C435   C     0.89967   0.89431   0.05160   0.00000  Uiso   1.00
C436   C     0.87952   0.93835   0.04042   0.00000  Uiso   1.00
H437   H     0.88311   0.94714   0.00473   0.00000  Uiso   1.00
H438   H     0.83774   0.94002   0.04542   0.00000  Uiso   1.00
H439   H     0.90296   0.96128   0.06300   0.00000  Uiso   1.00
H440   H     0.90415   0.88964   0.08830   0.00000  Uiso   1.00
H441   H     0.93979   0.89222   0.04219   0.00000  Uiso   1.00
C442   C     0.76700   0.77235   0.28174   0.00000  Uiso   1.00
C443   C     0.78715   0.72831   0.29291   0.00000  Uiso   1.00
H444   H     0.82892   0.72665   0.28791   0.00000  Uiso   1.00
H445   H     0.78356   0.71953   0.32860   0.00000  Uiso   1.00
H446   H     0.76370   0.70539   0.27033   0.00000  Uiso   1.00
H447   H     0.72687   0.77444   0.29115   0.00000  Uiso   1.00
H448   H     0.76252   0.77702   0.24503   0.00000  Uiso   1.00
H449   H     0.88866   0.88287   0.29574   0.00000  Uiso   1.00
H450   H     0.77801   0.78379   0.03760   0.00000  Uiso   1.00
C451   C     0.16636   0.08675   0.50023   0.00000  Uiso   1.00
C452   C     0.16697   0.24658   0.49977   0.00000  Uiso   1.00
C453   C     0.06719   0.16663   0.48818   0.00000  Uiso   1.00
C454   C     0.26614   0.16671   0.51182   0.00000  Uiso   1.00
C455   C     0.01220   0.16674   0.48181   0.00000  Uiso   1.00
C456   C     0.32114   0.16659   0.51819   0.00000  Uiso   1.00
C457   C     0.13964   0.02152   0.46296   0.00000  Uiso   1.00
C458   C     0.19370   0.31182   0.53704   0.00000  Uiso   1.00
C459   C     0.14015   0.31196   0.46257   0.00000  Uiso   1.00
C460   C     0.19319   0.02138   0.53743   0.00000  Uiso   1.00
C461   C     0.16728   0.29077   0.49954   0.00000  Uiso   1.00
C462   C     0.16605   0.04257   0.50046   0.00000  Uiso   1.00
C463   C     0.19756   0.19493   0.35961   0.00000  Uiso   1.00
C464   C     0.13577   0.13841   0.64039   0.00000  Uiso   1.00
C465   C     0.19737   0.19435   0.64526   0.00000  Uiso   1.00
C466   C     0.13596   0.13899   0.35474   0.00000  Uiso   1.00
H467   H     0.32525   0.16698   0.44719   0.00000  Uiso   1.00
H468   H     0.00809   0.16635   0.55281   0.00000  Uiso   1.00
H469   H     0.11833   0.03819   0.43444   0.00000  Uiso   1.00
H470   H     0.21501   0.29514   0.56556   0.00000  Uiso   1.00
H471   H     0.11865   0.29538   0.43413   0.00000  Uiso   1.00
H472   H     0.21468   0.03795   0.56587   0.00000  Uiso   1.00
N473   N     0.16665   0.16666   0.61907   0.00000  Uiso   1.00
N474   N     0.16668   0.16668   0.38093   0.00000  Uiso   1.00
O475   O     0.16666   0.10558   0.53821   0.00000  Uiso   1.00
O476   O     0.16667   0.22775   0.46179   0.00000  Uiso   1.00
O477   O     0.16666   0.10559   0.46176   0.00000  Uiso   1.00
O478   O     0.16667   0.22774   0.53824   0.00000  Uiso   1.00
O479   O     0.09058   0.16666   0.52928   0.00000  Uiso   1.00
O480   O     0.24275   0.16667   0.47072   0.00000  Uiso   1.00
O481   O     0.09058   0.16667   0.45284   0.00000  Uiso   1.00
O482   O     0.24275   0.16666   0.54716   0.00000  Uiso   1.00
Zn483  Zn    0.16667   0.16666   0.55104   0.00000  Uiso   1.00
Zn484  Zn    0.16667   0.16667   0.44896   0.00000  Uiso   1.00
C485   C     0.23300   0.22765   0.38493   0.00000  Uiso   1.00
C486   C     0.21285   0.27169   0.37375   0.00000  Uiso   1.00
H487   H     0.21644   0.28048   0.33807   0.00000  Uiso   1.00
H488   H     0.17107   0.27335   0.37876   0.00000  Uiso   1.00
H489   H     0.23629   0.29461   0.39634   0.00000  Uiso   1.00
H490   H     0.23748   0.22297   0.42163   0.00000  Uiso   1.00
H491   H     0.27313   0.22556   0.37552   0.00000  Uiso   1.00
C492   C     0.10033   0.10568   0.61507   0.00000  Uiso   1.00
C493   C     0.12048   0.06165   0.62625   0.00000  Uiso   1.00
H494   H     0.16226   0.05998   0.62125   0.00000  Uiso   1.00
H495   H     0.11689   0.05286   0.66193   0.00000  Uiso   1.00
H496   H     0.09704   0.03872   0.60366   0.00000  Uiso   1.00
H497   H     0.06021   0.10778   0.62448   0.00000  Uiso   1.00
H498   H     0.09585   0.11036   0.57837   0.00000  Uiso   1.00
H499   H     0.22199   0.21621   0.62907   0.00000  Uiso   1.00
H500   H     0.11134   0.11713   0.37093   0.00000  Uiso   1.00
C501   C     0.49970   0.08675   0.50023   0.00000  Uiso   1.00
C502   C     0.50031   0.24658   0.49977   0.00000  Uiso   1.00
C503   C     0.40053   0.16663   0.48818   0.00000  Uiso   1.00
C504   C     0.59947   0.16671   0.51182   0.00000  Uiso   1.00
C505   C     0.34553   0.16674   0.48181   0.00000  Uiso   1.00
C506   C     0.65447   0.16659   0.51819   0.00000  Uiso   1.00
C507   C     0.47297   0.02152   0.46296   0.00000  Uiso   1.00
C508   C     0.52703   0.31182   0.53704   0.00000  Uiso   1.00
C509   C     0.47348   0.31196   0.46257   0.00000  Uiso   1.00
C510   C     0.52652   0.02138   0.53743   0.00000  Uiso   1.00
C511   C     0.50062   0.29077   0.49954   0.00000  Uiso   1.00
C512   C     0.49938   0.04257   0.50046   0.00000  Uiso   1.00
C513   C     0.53090   0.19493   0.35961   0.00000  Uiso   1.00
C514   C     0.46910   0.13841   0.64039   0.00000  Uiso   1.00
C515   C     0.53071   0.19435   0.64526   0.00000  Uiso   1.00
C516   C     0.46929   0.13899   0.35474   0.00000  Uiso   1.00
H517   H     0.65858   0.16698   0.44719   0.00000  Uiso   1.00
H518   H     0.34142   0.16635   0.55281   0.00000  Uiso   1.00
H519   H     0.45166   0.03819   0.43444   0.00000  Uiso   1.00
H520   H     0.54834   0.29514   0.56556   0.00000  Uiso   1.00
H521   H     0.45198   0.29538   0.43413   0.00000  Uiso   1.00
H522   H     0.54802   0.03795   0.56587   0.00000  Uiso   1.00
N523   N     0.49999   0.16666   0.61907   0.00000  Uiso   1.00
N524   N     0.50001   0.16668   0.38093   0.00000  Uiso   1.00
O525   O     0.50000   0.10558   0.53821   0.00000  Uiso   1.00
O526   O     0.50000   0.22775   0.46179   0.00000  Uiso   1.00
O527   O     0.50000   0.10559   0.46176   0.00000  Uiso   1.00
O528   O     0.50000   0.22774   0.53824   0.00000  Uiso   1.00
O529   O     0.42392   0.16666   0.52928   0.00000  Uiso   1.00
O530   O     0.57608   0.16667   0.47072   0.00000  Uiso   1.00
O531   O     0.42392   0.16667   0.45284   0.00000  Uiso   1.00
O532   O     0.57608   0.16666   0.54716   0.00000  Uiso   1.00
Zn533  Zn    0.50000   0.16666   0.55104   0.00000  Uiso   1.00
Zn534  Zn    0.50000   0.16667   0.44896   0.00000  Uiso   1.00
C535   C     0.56634   0.22765   0.38493   0.00000  Uiso   1.00
C536   C     0.54619   0.27169   0.37375   0.00000  Uiso   1.00
H537   H     0.54977   0.28048   0.33807   0.00000  Uiso   1.00
H538   H     0.50441   0.27335   0.37876   0.00000  Uiso   1.00
H539   H     0.56963   0.29461   0.39634   0.00000  Uiso   1.00
H540   H     0.57082   0.22297   0.42163   0.00000  Uiso   1.00
H541   H     0.60646   0.22556   0.37552   0.00000  Uiso   1.00
C542   C     0.43366   0.10568   0.61507   0.00000  Uiso   1.00
C543   C     0.45381   0.06165   0.62625   0.00000  Uiso   1.00
H544   H     0.49559   0.05998   0.62125   0.00000  Uiso   1.00
H545   H     0.45022   0.05286   0.66193   0.00000  Uiso   1.00
H546   H     0.43037   0.03872   0.60366   0.00000  Uiso   1.00
H547   H     0.39354   0.10778   0.62448   0.00000  Uiso   1.00
H548   H     0.42919   0.11036   0.57837   0.00000  Uiso   1.00
H549   H     0.55532   0.21621   0.62907   0.00000  Uiso   1.00
H550   H     0.44468   0.11713   0.37093   0.00000  Uiso   1.00
C551   C     0.83303   0.08675   0.50023   0.00000  Uiso   1.00
C552   C     0.83364   0.24658   0.49977   0.00000  Uiso   1.00
C553   C     0.73386   0.16663   0.48818   0.00000  Uiso   1.00
C554   C     0.93281   0.16671   0.51182   0.00000  Uiso   1.00
C555   C     0.67886   0.16674   0.48181   0.00000  Uiso   1.00
C556   C     0.98780   0.16659   0.51819   0.00000  Uiso   1.00
C557   C     0.80631   0.02152   0.46296   0.00000  Uiso   1.00
C558   C     0.86036   0.31182   0.53704   0.00000  Uiso   1.00
C559   C     0.80681   0.31196   0.46257   0.00000  Uiso   1.00
C560   C     0.85986   0.02138   0.53743   0.00000  Uiso   1.00
C561   C     0.83395   0.29077   0.49954   0.00000  Uiso   1.00
C562   C     0.83272   0.04257   0.50046   0.00000  Uiso   1.00
C563   C     0.86423   0.19493   0.35961   0.00000  Uiso   1.00
C564   C     0.80244   0.13841   0.64039   0.00000  Uiso   1.00
C565   C     0.86404   0.19435   0.64526   0.00000  Uiso   1.00
C566   C     0.80263   0.13899   0.35474   0.00000  Uiso   1.00
H567   H     0.99191   0.16698   0.44719   0.00000  Uiso   1.00
H568   H     0.67475   0.16635   0.55281   0.00000  Uiso   1.00
H569   H     0.78499   0.03819   0.43444   0.00000  Uiso   1.00
H570   H     0.88168   0.29514   0.56556   0.00000  Uiso   1.00
H571   H     0.78532   0.29538   0.43413   0.00000  Uiso   1.00
H572   H     0.88135   0.03795   0.56587   0.00000  Uiso   1.00
N573   N     0.83332   0.16666   0.61907   0.00000  Uiso   1.00
N574   N     0.83335   0.16668   0.38093   0.00000  Uiso   1.00
O575   O     0.83333   0.10558   0.53821   0.00000  Uiso   1.00
O576   O     0.83334   0.22775   0.46179   0.00000  Uiso   1.00
O577   O     0.83333   0.10559   0.46176   0.00000  Uiso   1.00
O578   O     0.83334   0.22774   0.53824   0.00000  Uiso   1.00
O579   O     0.75725   0.16666   0.52928   0.00000  Uiso   1.00
O580   O     0.90942   0.16667   0.47072   0.00000  Uiso   1.00
O581   O     0.75725   0.16667   0.45284   0.00000  Uiso   1.00
O582   O     0.90942   0.16666   0.54716   0.00000  Uiso   1.00
Zn583  Zn    0.83333   0.16666   0.55104   0.00000  Uiso   1.00
Zn584  Zn    0.83333   0.16667   0.44896   0.00000  Uiso   1.00
C585   C     0.89967   0.22765   0.38493   0.00000  Uiso   1.00
C586   C     0.87952   0.27169   0.37375   0.00000  Uiso   1.00
H587   H     0.88311   0.28048   0.33807   0.00000  Uiso   1.00
H588   H     0.83774   0.27335   0.37876   0.00000  Uiso   1.00
H589   H     0.90296   0.29461   0.39634   0.00000  Uiso   1.00
H590   H     0.90415   0.22297   0.42163   0.00000  Uiso   1.00
H591   H     0.93979   0.22556   0.37552   0.00000  Uiso   1.00
C592   C     0.76700   0.10568   0.61507   0.00000  Uiso   1.00
C593   C     0.78715   0.06165   0.62625   0.00000  Uiso   1.00
H594   H     0.82892   0.05998   0.62125   0.00000  Uiso   1.00
H595   H     0.78356   0.05286   0.66193   0.00000  Uiso   1.00
H596   H     0.76370   0.03872   0.60366   0.00000  Uiso   1.00
H597   H     0.72687   0.10778   0.62448   0.00000  Uiso   1.00
H598   H     0.76252   0.11036   0.57837   0.00000  Uiso   1.00
H599   H     0.88866   0.21621   0.62907   0.00000  Uiso   1.00
H600   H     0.77801   0.11713   0.37093   0.00000  Uiso   1.00
C601   C     0.16636   0.42008   0.50023   0.00000  Uiso   1.00
C602   C     0.16697   0.57992   0.49977   0.00000  Uiso   1.00
C603   C     0.06719   0.49996   0.48818   0.00000  Uiso   1.00
C604   C     0.26614   0.50004   0.51182   0.00000  Uiso   1.00
C605   C     0.01220   0.50007   0.48181   0.00000  Uiso   1.00
C606   C     0.32114   0.49993   0.51819   0.00000  Uiso   1.00
C607   C     0.13964   0.35485   0.46296   0.00000  Uiso   1.00
C608   C     0.19370   0.64515   0.53704   0.00000  Uiso   1.00
C609   C     0.14015   0.64529   0.46257   0.00000  Uiso   1.00
C610   C     0.19319   0.35471   0.53743   0.00000  Uiso   1.00
C611   C     0.16728   0.62410   0.49954   0.00000  Uiso   1.00
C612   C     0.16605   0.37590   0.50046   0.00000  Uiso   1.00
C613   C     0.19756   0.52826   0.35961   0.00000  Uiso   1.00
C614   C     0.13577   0.47174   0.64039   0.00000  Uiso   1.00
C615   C     0.19737   0.52768   0.64526   0.00000  Uiso   1.00
C616   C     0.13596   0.47232   0.35474   0.00000  Uiso   1.00
H617   H     0.32525   0.50031   0.44719   0.00000  Uiso   1.00
H618   H     0.00809   0.49969   0.55281   0.00000  Uiso   1.00
H619   H     0.11833   0.37153   0.43444   0.00000  Uiso   1.00
H620   H     0.21501   0.62847   0.56556   0.00000  Uiso   1.00
H621   H     0.11865   0.62872   0.43413   0.00000  Uiso   1.00
H622   H     0.21468   0.37128   0.56587   0.00000  Uiso   1.00
N623   N     0.16665   0.49999   0.61907   0.00000  Uiso   1.00
N624   N     0.16668   0.50001   0.38093   0.00000  Uiso   1.00
O625   O     0.16666   0.43892   0.53821   0.00000  Uiso   1.00
O626   O     0.16667   0.56108   0.46179   0.00000  Uiso   1.00
O627   O     0.16666   0.43893   0.46176   0.00000  Uiso   1.00
O628   O     0.16667   0.56107   0.53824   0.00000  Uiso   1.00
O629   O     0.09058   0.50000   0.52928   0.00000  Uiso   1.00
O630   O     0.24275   0.50000   0.47072   0.00000  Uiso   1.00
O631   O     0.09058   0.50000   0.45284   0.00000  Uiso   1.00
O632   O     0.24275   0.50000   0.54716   0.00000  Uiso   1.00
Zn633  Zn    0.16667   0.49999   0.55104   0.00000  Uiso   1.00
Zn634  Zn    0.16667   0.50001   0.44896   0.00000  Uiso   1.00
C635   C     0.23300   0.56098   0.38493   0.00000  Uiso   1.00
C636   C     0.21285   0.60502   0.37375   0.00000  Uiso   1.00
H637   H     0.21644   0.61381   0.33807   0.00000  Uiso   1.00
H638   H     0.17107   0.60668   0.37876   0.00000  Uiso   1.00
H639   H     0.23629   0.62795   0.39634   0.00000  Uiso   1.00
H640   H     0.23748   0.55631   0.42163   0.00000  Uiso   1.00
H641   H     0.27313   0.55889   0.37552   0.00000  Uiso   1.00
C642   C     0.10033   0.43902   0.61507   0.00000  Uiso   1.00
C643   C     0.12048   0.39498   0.62625   0.00000  Uiso   1.00
H644   H     0.16226   0.39331   0.62125   0.00000  Uiso   1.00
H645   H     0.11689   0.38619   0.66193   0.00000  Uiso   1.00
H646   H     0.09704   0.37205   0.60366   0.00000  Uiso   1.00
H647   H     0.06021   0.44111   0.62448   0.00000  Uiso   1.00
H648   H     0.09585   0.44369   0.57837   0.00000  Uiso   1.00
H649   H     0.22199   0.54954   0.62907   0.00000  Uiso   1.00
H650   H     0.11134   0.45046   0.37093   0.00000  Uiso   1.00
C651   C     0.49970   0.42008   0.50023   0.00000  Uiso   1.00
C652   C     0.50031   0.57992   0.49977   0.00000  Uiso   1.00
C653   C     0.40053   0.49996   0.48818   0.00000  Uiso   1.00
C654   C     0.59947   0.50004   0.51182   0.00000  Uiso   1.00
C655   C     0.34553   0.50007   0.48181   0.00000  Uiso   1.00
C656   C     0.65447   0.49993   0.51819   0.00000  Uiso   1.00
C657   C     0.47297   0.35485   0.46296   0.00000  Uiso   1.00
C658   C     0.52703   0.64515   0.53704   0.00000  Uiso   1.00
C659   C     0.47348   0.64529   0.46257   0.00000  Uiso   1.00
C660   C     0.52652   0.35471   0.53743   0.00000  Uiso   1.00
C661   C     0.50062   0.62410   0.49954   0.00000  Uiso   1.00
C662   C     0.49938   0.37590   0.50046   0.00000  Uiso   1.00
C663   C     0.53090   0.52826   0.35961   0.00000  Uiso   1.00
C664   C     0.46910   0.47174   0.64039   0.00000  Uiso   1.00
C665   C     0.53071   0.52768   0.64526   0.00000  Uiso   1.00
C666   C     0.46929   0.47232   0.35474   0.00000  Uiso   1.00
H667   H     0.65858   0.50031   0.44719   0.00000  Uiso   1.00
H668   H     0.34142   0.49969   0.55281   0.00000  Uiso   1.00
H669   H     0.45166   0.37153   0.43444   0.00000  Uiso   1.00
H670   H     0.54834   0.62847   0.56556   0.00000  Uiso   1.00
H671   H     0.45198   0.62872   0.43413   0.00000  Uiso   1.00
H672   H     0.54802   0.37128   0.56587   0.00000  Uiso   1.00
N673   N     0.49999   0.49999   0.61907   0.00000  Uiso   1.00
N674   N     0.50001   0.50001   0.38093   0.00000  Uiso   1.00
O675   O     0.50000   0.43892   0.53821   0.00000  Uiso   1.00
O676   O     0.50000   0.56108   0.46179   0.00000  Uiso   1.00
O677   O     0.50000   0.43893   0.46176   0.00000  Uiso   1.00
O678   O     0.50000   0.56107   0.53824   0.00000  Uiso   1.00
O679   O     0.42392   0.50000   0.52928   0.00000  Uiso   1.00
O680   O     0.57608   0.50000   0.47072   0.00000  Uiso   1.00
O681   O     0.42392   0.50000   0.45284   0.00000  Uiso   1.00
O682   O     0.57608   0.50000   0.54716   0.00000  Uiso   1.00
Zn683  Zn    0.50000   0.49999   0.55104   0.00000  Uiso   1.00
Zn684  Zn    0.50000   0.50001   0.44896   0.00000  Uiso   1.00
C685   C     0.56634   0.56098   0.38493   0.00000  Uiso   1.00
C686   C     0.54619   0.60502   0.37375   0.00000  Uiso   1.00
H687   H     0.54977   0.61381   0.33807   0.00000  Uiso   1.00
H688   H     0.50441   0.60668   0.37876   0.00000  Uiso   1.00
H689   H     0.56963   0.62795   0.39634   0.00000  Uiso   1.00
H690   H     0.57082   0.55631   0.42163   0.00000  Uiso   1.00
H691   H     0.60646   0.55889   0.37552   0.00000  Uiso   1.00
C692   C     0.43366   0.43902   0.61507   0.00000  Uiso   1.00
C693   C     0.45381   0.39498   0.62625   0.00000  Uiso   1.00
H694   H     0.49559   0.39331   0.62125   0.00000  Uiso   1.00
H695   H     0.45022   0.38619   0.66193   0.00000  Uiso   1.00
H696   H     0.43037   0.37205   0.60366   0.00000  Uiso   1.00
H697   H     0.39354   0.44111   0.62448   0.00000  Uiso   1.00
H698   H     0.42919   0.44369   0.57837   0.00000  Uiso   1.00
H699   H     0.55532   0.54954   0.62907   0.00000  Uiso   1.00
H700   H     0.44468   0.45046   0.37093   0.00000  Uiso   1.00
C701   C     0.83303   0.42008   0.50023   0.00000  Uiso   1.00
C702   C     0.83364   0.57992   0.49977   0.00000  Uiso   1.00
C703   C     0.73386   0.49996   0.48818   0.00000  Uiso   1.00
C704   C     0.93281   0.50004   0.51182   0.00000  Uiso   1.00
C705   C     0.67886   0.50007   0.48181   0.00000  Uiso   1.00
C706   C     0.98780   0.49993   0.51819   0.00000  Uiso   1.00
C707   C     0.80631   0.35485   0.46296   0.00000  Uiso   1.00
C708   C     0.86036   0.64515   0.53704   0.00000  Uiso   1.00
C709   C     0.80681   0.64529   0.46257   0.00000  Uiso   1.00
C710   C     0.85986   0.35471   0.53743   0.00000  Uiso   1.00
C711   C     0.83395   0.62410   0.49954   0.00000  Uiso   1.00
C712   C     0.83272   0.37590   0.50046   0.00000  Uiso   1.00
C713   C     0.86423   0.52826   0.35961   0.00000  Uiso   1.00
C714   C     0.80244   0.47174   0.64039   0.00000  Uiso   1.00
C715   C     0.86404   0.52768   0.64526   0.00000  Uiso   1.00
C716   C     0.80263   0.47232   0.35474   0.00000  Uiso   1.00
H717   H     0.99191   0.50031   0.44719   0.00000  Uiso   1.00
H718   H     0.67475   0.49969   0.55281   0.00000  Uiso   1.00
H719   H     0.78499   0.37153   0.43444   0.00000  Uiso   1.00
H720   H     0.88168   0.62847   0.56556   0.00000  Uiso   1.00
H721   H     0.78532   0.62872   0.43413   0.00000  Uiso   1.00
H722   H     0.88135   0.37128   0.56587   0.00000  Uiso   1.00
N723   N     0.83332   0.49999   0.61907   0.00000  Uiso   1.00
N724   N     0.83335   0.50001   0.38093   0.00000  Uiso   1.00
O725   O     0.83333   0.43892   0.53821   0.00000  Uiso   1.00
O726   O     0.83334   0.56108   0.46179   0.00000  Uiso   1.00
O727   O     0.83333   0.43893   0.46176   0.00000  Uiso   1.00
O728   O     0.83334   0.56107   0.53824   0.00000  Uiso   1.00
O729   O     0.75725   0.50000   0.52928   0.00000  Uiso   1.00
O730   O     0.90942   0.50000   0.47072   0.00000  Uiso   1.00
O731   O     0.75725   0.50000   0.45284   0.00000  Uiso   1.00
O732   O     0.90942   0.50000   0.54716   0.00000  Uiso   1.00
Zn733  Zn    0.83333   0.49999   0.55104   0.00000  Uiso   1.00
Zn734  Zn    0.83333   0.50001   0.44896   0.00000  Uiso   1.00
C735   C     0.89967   0.56098   0.38493   0.00000  Uiso   1.00
C736   C     0.87952   0.60502   0.37375   0.00000  Uiso   1.00
H737   H     0.88311   0.61381   0.33807   0.00000  Uiso   1.00
H738   H     0.83774   0.60668   0.37876   0.00000  Uiso   1.00
H739   H     0.90296   0.62795   0.39634   0.00000  Uiso   1.00
H740   H     0.90415   0.55631   0.42163   0.00000  Uiso   1.00
H741   H     0.93979   0.55889   0.37552   0.00000  Uiso   1.00
C742   C     0.76700   0.43902   0.61507   0.00000  Uiso   1.00
C743   C     0.78715   0.39498   0.62625   0.00000  Uiso   1.00
H744   H     0.82892   0.39331   0.62125   0.00000  Uiso   1.00
H745   H     0.78356   0.38619   0.66193   0.00000  Uiso   1.00
H746   H     0.76370   0.37205   0.60366   0.00000  Uiso   1.00
H747   H     0.72687   0.44111   0.62448   0.00000  Uiso   1.00
H748   H     0.76252   0.44369   0.57837   0.00000  Uiso   1.00
H749   H     0.88866   0.54954   0.62907   0.00000  Uiso   1.00
H750   H     0.77801   0.45046   0.37093   0.00000  Uiso   1.00
C751   C     0.16636   0.75342   0.50023   0.00000  Uiso   1.00
C752   C     0.16697   0.91325   0.49977   0.00000  Uiso   1.00
C753   C     0.06719   0.83329   0.48818   0.00000  Uiso   1.00
C754   C     0.26614   0.83337   0.51182   0.00000  Uiso   1.00
C755   C     0.01220   0.83341   0.48181   0.00000  Uiso   1.00
C756   C     0.32114   0.83326   0.51819   0.00000  Uiso   1.00
C757   C     0.13964   0.68818   0.46296   0.00000  Uiso   1.00
C758   C     0.19370   0.97848   0.53704   0.00000  Uiso   1.00
C759   C     0.14015   0.97862   0.46257   0.00000  Uiso   1.00
C760   C     0.19319   0.68804   0.53743   0.00000  Uiso   1.00
C761   C     0.16728   0.95743   0.49954   0.00000  Uiso   1.00
C762   C     0.16605   0.70923   0.50046   0.00000  Uiso   1.00
C763   C     0.19756   0.86159   0.35961   0.00000  Uiso   1.00
C764   C     0.13577   0.80507   0.64039   0.00000  Uiso   1.00
C765   C     0.19737   0.86101   0.64526   0.00000  Uiso   1.00
C766   C     0.13596   0.80565   0.35474   0.00000  Uiso   1.00
H767   H     0.32525   0.83365   0.44719   0.00000  Uiso   1.00
H768   H     0.00809   0.83302   0.55281   0.00000  Uiso   1.00
H769   H     0.11833   0.70486   0.43444   0.00000  Uiso   1.00
H770   H     0.21501   0.96181   0.56556   0.00000  Uiso   1.00
H771   H     0.11865   0.96205   0.43413   0.00000  Uiso   1.00
H772   H     0.21468   0.70462   0.56587   0.00000  Uiso   1.00
N773   N     0.16665   0.83332   0.61907   0.00000  Uiso   1.00
N774   N     0.16668   0.83334   0.38093   0.00000  Uiso   1.00
O775   O     0.16666   0.77225   0.53821   0.00000  Uiso   1.00
O776   O     0.16667   0.89442   0.46179   0.00000  Uiso   1.00
O777   O     0.16666   0.77226   0.46176   0.00000  Uiso   1.00
O778   O     0.16667   0.89441   0.53824   0.00000  Uiso   1.00
O779   O     0.09058   0.83333   0.52928   0.00000  Uiso   1.00
O780   O     0.24275   0.83334   0.47072   0.00000  Uiso   1.00
O781   O     0.09058   0.83334   0.45284   0.00000  Uiso   1.00
O782   O     0.24275   0.83333   0.54716   0.00000  Uiso   1.00
Zn783  Zn    0.16667   0.83333   0.55104   0.00000  Uiso   1.00
Zn784  Zn    0.16667   0.83334   0.44896   0.00000  Uiso   1.00
C785   C     0.23300   0.89431   0.38493   0.00000  Uiso   1.00
C786   C     0.21285   0.93835   0.37375   0.00000  Uiso   1.00
H787   H     0.21644   0.94714   0.33807   0.00000  Uiso   1.00
H788   H     0.17107   0.94002   0.37876   0.00000  Uiso   1.00
H789   H     0.23629   0.96128   0.39634   0.00000  Uiso   1.00
H790   H     0.23748   0.88964   0.42163   0.00000  Uiso   1.00
H791   H     0.27313   0.89222   0.37552   0.00000  Uiso   1.00
C792   C     0.10033   0.77235   0.61507   0.00000  Uiso   1.00
C793   C     0.12048   0.72831   0.62625   0.00000  Uiso   1.00
H794   H     0.16226   0.72665   0.62125   0.00000  Uiso   1.00
H795   H     0.11689   0.71953   0.66193   0.00000  Uiso   1.00
H796   H     0.09704   0.70539   0.60366   0.00000  Uiso   1.00
H797   H     0.06021   0.77444   0.62448   0.00000  Uiso   1.00
H798   H     0.09585   0.77702   0.57837   0.00000  Uiso   1.00
H799   H     0.22199   0.88287   0.62907   0.00000  Uiso   1.00
H800   H     0.11134   0.78379   0.37093   0.00000  Uiso   1.00
C801   C     0.49970   0.75342   0.50023   0.00000  Uiso   1.00
C802   C     0.50031   0.91325   0.49977   0.00000  Uiso   1.00
C803   C     0.40053   0.83329   0.48818   0.00000  Uiso   1.00
C804   C     0.59947   0.83337   0.51182   0.00000  Uiso   1.00
C805   C     0.34553   0.83341   0.48181   0.00000  Uiso   1.00
C806   C     0.65447   0.83326   0.51819   0.00000  Uiso   1.00
C807   C     0.47297   0.68818   0.46296   0.00000  Uiso   1.00
C808   C     0.52703   0.97848   0.53704   0.00000  Uiso   1.00
C809   C     0.47348   0.97862   0.46257   0.00000  Uiso   1.00
C810   C     0.52652   0.68804   0.53743   0.00000  Uiso   1.00
C811   C     0.50062   0.95743   0.49954   0.00000  Uiso   1.00
C812   C     0.49938   0.70923   0.50046   0.00000  Uiso   1.00
C813   C     0.53090   0.86159   0.35961   0.00000  Uiso   1.00
C814   C     0.46910   0.80507   0.64039   0.00000  Uiso   1.00
C815   C     0.53071   0.86101   0.64526   0.00000  Uiso   1.00
C816   C     0.46929   0.80565   0.35474   0.00000  Uiso   1.00
H817   H     0.65858   0.83365   0.44719   0.00000  Uiso   1.00
H818   H     0.34142   0.83302   0.55281   0.00000  Uiso   1.00
H819   H     0.45166   0.70486   0.43444   0.00000  Uiso   1.00
H820   H     0.54834   0.96181   0.56556   0.00000  Uiso   1.00
H821   H     0.45198   0.96205   0.43413   0.00000  Uiso   1.00
H822   H     0.54802   0.70462   0.56587   0.00000  Uiso   1.00
N823   N     0.49999   0.83332   0.61907   0.00000  Uiso   1.00
N824   N     0.50001   0.83334   0.38093   0.00000  Uiso   1.00
O825   O     0.50000   0.77225   0.53821   0.00000  Uiso   1.00
O826   O     0.50000   0.89442   0.46179   0.00000  Uiso   1.00
O827   O     0.50000   0.77226   0.46176   0.00000  Uiso   1.00
O828   O     0.50000   0.89441   0.53824   0.00000  Uiso   1.00
O829   O     0.42392   0.83333   0.52928   0.00000  Uiso   1.00
O830   O     0.57608   0.83334   0.47072   0.00000  Uiso   1.00
O831   O     0.42392   0.83334   0.45284   0.00000  Uiso   1.00
O832   O     0.57608   0.83333   0.54716   0.00000  Uiso   1.00
Zn833  Zn    0.50000   0.83333   0.55104   0.00000  Uiso   1.00
Zn834  Zn    0.50000   0.83334   0.44896   0.00000  Uiso   1.00
C835   C     0.56634   0.89431   0.38493   0.00000  Uiso   1.00
C836   C     0.54619   0.93835   0.37375   0.00000  Uiso   1.00
H837   H     0.54977   0.94714   0.33807   0.00000  Uiso   1.00
H838   H     0.50441   0.94002   0.37876   0.00000  Uiso   1.00
H839   H     0.56963   0.96128   0.39634   0.00000  Uiso   1.00
H840   H     0.57082   0.88964   0.42163   0.00000  Uiso   1.00
H841   H     0.60646   0.89222   0.37552   0.00000  Uiso   1.00
C842   C     0.43366   0.77235   0.61507   0.00000  Uiso   1.00
C843   C     0.45381   0.72831   0.62625   0.00000  Uiso   1.00
H844   H     0.49559   0.72665   0.62125   0.00000  Uiso   1.00
H845   H     0.45022   0.71953   0.66193   0.00000  Uiso   1.00
H846   H     0.43037   0.70539   0.60366   0.00000  Uiso   1.00
H847   H     0.39354   0.77444   0.62448   0.00000  Uiso   1.00
H848   H     0.42919   0.77702   0.57837   0.00000  Uiso   1.00
H849   H     0.55532   0.88287   0.62907   0.00000  Uiso   1.00
H850   H     0.44468   0.78379   0.37093   0.00000  Uiso   1.00
C851   C     0.83303   0.75342   0.50023   0.00000  Uiso   1.00
C852   C     0.83364   0.91325   0.49977   0.00000  Uiso   1.00
C853   C     0.73386   0.83329   0.48818   0.00000  Uiso   1.00
C854   C     0.93281   0.83337   0.51182   0.00000  Uiso   1.00
C855   C     0.67886   0.83341   0.48181   0.00000  Uiso   1.00
C856   C     0.98780   0.83326   0.51819   0.00000  Uiso   1.00
C857   C     0.80631   0.68818   0.46296   0.00000  Uiso   1.00
C858   C     0.86036   0.97848   0.53704   0.00000  Uiso   1.00
C859   C     0.80681   0.97862   0.46257   0.00000  Uiso   1.00
C860   C     0.85986   0.68804   0.53743   0.00000  Uiso   1.00
C861   C     0.83395   0.95743   0.49954   0.00000  Uiso   1.00
C862   C     0.83272   0.70923   0.50046   0.00000  Uiso   1.00
C863   C     0.86423   0.86159   0.35961   0.00000  Uiso   1.00
C864   C     0.80244   0.80507   0.64039   0.00000  Uiso   1.00
C865   C     0.86404   0.86101   0.64526   0.00000  Uiso   1.00
C866   C     0.80263   0.80565   0.35474   0.00000  Uiso   1.00
H867   H     0.99191   0.83365   0.44719   0.00000  Uiso   1.00
H868   H     0.67475   0.83302   0.55281   0.00000  Uiso   1.00
H869   H     0.78499   0.70486   0.43444   0.00000  Uiso   1.00
H870   H     0.88168   0.96181   0.56556   0.00000  Uiso   1.00
H871   H     0.78532   0.96205   0.43413   0.00000  Uiso   1.00
H872   H     0.88135   0.70462   0.56587   0.00000  Uiso   1.00
N873   N     0.83332   0.83332   0.61907   0.00000  Uiso   1.00
N874   N     0.83335   0.83334   0.38093   0.00000  Uiso   1.00
O875   O     0.83333   0.77225   0.53821   0.00000  Uiso   1.00
O876   O     0.83334   0.89442   0.46179   0.00000  Uiso   1.00
O877   O     0.83333   0.77226   0.46176   0.00000  Uiso   1.00
O878   O     0.83334   0.89441   0.53824   0.00000  Uiso   1.00
O879   O     0.75725   0.83333   0.52928   0.00000  Uiso   1.00
O880   O     0.90942   0.83334   0.47072   0.00000  Uiso   1.00
O881   O     0.75725   0.83334   0.45284   0.00000  Uiso   1.00
O882   O     0.90942   0.83333   0.54716   0.00000  Uiso   1.00
Zn883  Zn    0.83333   0.83333   0.55104   0.00000  Uiso   1.00
Zn884  Zn    0.83333   0.83334   0.44896   0.00000  Uiso   1.00
C885   C     0.89967   0.89431   0.38493   0.00000  Uiso   1.00
C886   C     0.87952   0.93835   0.37375   0.00000  Uiso   1.00
H887   H     0.88311   0.94714   0.33807   0.00000  Uiso   1.00
H888   H     0.83774   0.94002   0.37876   0.00000  Uiso   1.00
H889   H     0.90296   0.96128   0.39634   0.00000  Uiso   1.00
H890   H     0.90415   0.88964   0.42163   0.00000  Uiso   1.00
H891   H     0.93979   0.89222   0.37552   0.00000  Uiso   1.00
C892   C     0.76700   0.77235   0.61507   0.00000  Uiso   1.00
C893   C     0.78715   0.72831   0.62625   0.00000  Uiso   1.00
H894   H     0.82892   0.72665   0.62125   0.00000  Uiso   1.00
H895   H     0.78356   0.71953   0.66193   0.00000  Uiso   1.00
H896   H     0.76370   0.70539   0.60366   0.00000  Uiso   1.00
H897   H     0.72687   0.77444   0.62448   0.00000  Uiso   1.00
H898   H     0.76252   0.77702   0.57837   0.00000  Uiso   1.00
H899   H     0.88866   0.88287   0.62907   0.00000  Uiso   1.00
H900   H     0.77801   0.78379   0.37093   0.00000  Uiso   1.00
C901   C     0.16636   0.08675   0.83356   0.00000  Uiso   1.00
C902   C     0.16697   0.24658   0.83310   0.00000  Uiso   1.00
C903   C     0.06719   0.16663   0.82152   0.00000  Uiso   1.00
C904   C     0.26614   0.16671   0.84515   0.00000  Uiso   1.00
C905   C     0.01220   0.16674   0.81514   0.00000  Uiso   1.00
C906   C     0.32114   0.16659   0.85153   0.00000  Uiso   1.00
C907   C     0.13964   0.02152   0.79630   0.00000  Uiso   1.00
C908   C     0.19370   0.31182   0.87037   0.00000  Uiso   1.00
C909   C     0.14015   0.31196   0.79591   0.00000  Uiso   1.00
C910   C     0.19319   0.02138   0.87076   0.00000  Uiso   1.00
C911   C     0.16728   0.29077   0.83287   0.00000  Uiso   1.00
C912   C     0.16605   0.04257   0.83379   0.00000  Uiso   1.00
C913   C     0.19756   0.19493   0.69294   0.00000  Uiso   1.00
C914   C     0.13577   0.13841   0.97372   0.00000  Uiso   1.00
C915   C     0.19737   0.19435   0.97860   0.00000  Uiso   1.00
C916   C     0.13596   0.13899   0.68807   0.00000  Uiso   1.00
H917   H     0.32525   0.16698   0.78053   0.00000  Uiso   1.00
H918   H     0.00809   0.16635   0.88614   0.00000  Uiso   1.00
H919   H     0.11833   0.03819   0.76777   0.00000  Uiso   1.00
H920   H     0.21501   0.29514   0.89889   0.00000  Uiso   1.00
H921   H     0.11865   0.29538   0.76746   0.00000  Uiso   1.00
H922   H     0.21468   0.03795   0.89921   0.00000  Uiso   1.00
N923   N     0.16665   0.16666   0.95240   0.00000  Uiso   1.00
N924   N     0.16668   0.16668   0.71427   0.00000  Uiso   1.00
O925   O     0.16666   0.10558   0.87154   0.00000  Uiso   1.00
O926   O     0.16667   0.22775   0.79513   0.00000  Uiso   1.00
O927   O     0.16666   0.10559   0.79510   0.00000  Uiso   1.00
O928   O     0.16667   0.22774   0.87157   0.00000  Uiso   1.00
O929   O     0.09058   0.16666   0.86261   0.00000  Uiso   1.00
O930   O     0.24275   0.16667   0.80405   0.00000  Uiso   1.00
O931   O     0.09058   0.16667   0.78617   0.00000  Uiso   1.00
O932   O     0.24275   0.16666   0.88050   0.00000  Uiso   1.00
Zn933  Zn    0.16667   0.16666   0.88437   0.00000  Uiso   1.00
Zn934  Zn    0.16667   0.16667   0.78229   0.00000  Uiso   1.00
C935   C     0.23300   0.22765   0.71826   0.00000  Uiso   1.00
C936   C     0.21285   0.27169   0.70709   0.00000  Uiso   1.00
H937   H     0.21644   0.28048   0.67140   0.00000  Uiso   1.00
H938   H     0.17107   0.27335   0.71209   0.00000  Uiso   1.00
H939   H     0.23629   0.29461   0.72967   0.00000  Uiso   1.00
H940   H     0.23748   0.22297   0.75497   0.00000  Uiso   1.00
H941   H     0.27313   0.22556   0.70885   0.00000  Uiso   1.00
C942   C     0.10033   0.10568   0.94840   0.00000  Uiso   1.00
C943   C     0.12048   0.06165   0.95958   0.00000  Uiso   1.00
H944   H     0.16226   0.05998   0.95458   0.00000  Uiso   1.00
H945   H     0.11689   0.05286   0.99527   0.00000  Uiso   1.00
H946   H     0.09704   0.03872   0.93700   0.00000  Uiso   1.00
H947   H     0.06021   0.10778   0.95781   0.00000  Uiso   1.00
H948   H     0.09585   0.11036   0.91170   0.00000  Uiso   1.00
H949   H     0.22199   0.21621   0.96240   0.00000  Uiso   1.00
H950   H     0.11134   0.11713   0.70426   0.00000  Uiso   1.00
C951   C     0.49970   0.08675   0.83356   0.00000  Uiso   1.00
C952   C     0.50031   0.24658   0.83310   0.00000  Uiso   1.00
C953   C     0.40053   0.16663   0.82152   0.00000  Uiso   1.00
C954   C     0.59947   0.16671   0.84515   0.00000  Uiso   1.00
C955   C     0.34553   0.16674   0.81514   0.00000  Uiso   1.00
C956   C     0.65447   0.16659   0.85153   0.00000  Uiso   1.00
C957   C     0.47297   0.02152   0.79630   0.00000  Uiso   1.00
C958   C     0.52703   0.31182   0.87037   0.00000  Uiso   1.00
C959   C     0.47348   0.31196   0.79591   0.00000  Uiso   1.00
C960   C     0.52652   0.02138   0.87076   0.00000  Uiso   1.00
C961   C     0.50062   0.29077   0.83287   0.00000  Uiso   1.00
C962   C     0.49938   0.04257   0.83379   0.00000  Uiso   1.00
C963   C     0.53090   0.19493   0.69294   0.00000  Uiso   1.00
C964   C     0.46910   0.13841   0.97372   0.00000  Uiso   1.00
C965   C     0.53071   0.19435   0.97860   0.00000  Uiso   1.00
C966   C     0.46929   0.13899   0.68807   0.00000  Uiso   1.00
H967   H     0.65858   0.16698   0.78053   0.00000  Uiso   1.00
H968   H     0.34142   0.16635   0.88614   0.00000  Uiso   1.00
H969   H     0.45166   0.03819   0.76777   0.00000  Uiso   1.00
H970   H     0.54834   0.29514   0.89889   0.00000  Uiso   1.00
H971   H     0.45198   0.29538   0.76746   0.00000  Uiso   1.00
H972   H     0.54802   0.03795   0.89921   0.00000  Uiso   1.00
N973   N     0.49999   0.16666   0.95240   0.00000  Uiso   1.00
N974   N     0.50001   0.16668   0.71427   0.00000  Uiso   1.00
O975   O     0.50000   0.10558   0.87154   0.00000  Uiso   1.00
O976   O     0.50000   0.22775   0.79513   0.00000  Uiso   1.00
O977   O     0.50000   0.10559   0.79510   0.00000  Uiso   1.00
O978   O     0.50000   0.22774   0.87157   0.00000  Uiso   1.00
O979   O     0.42392   0.16666   0.86261   0.00000  Uiso   1.00
O980   O     0.57608   0.16667   0.80405   0.00000  Uiso   1.00
O981   O     0.42392   0.16667   0.78617   0.00000  Uiso   1.00
O982   O     0.57608   0.16666   0.88050   0.00000  Uiso   1.00
Zn983  Zn    0.50000   0.16666   0.88437   0.00000  Uiso   1.00
Zn984  Zn    0.50000   0.16667   0.78229   0.00000  Uiso   1.00
C985   C     0.56634   0.22765   0.71826   0.00000  Uiso   1.00
C986   C     0.54619   0.27169   0.70709   0.00000  Uiso   1.00
H987   H     0.54977   0.28048   0.67140   0.00000  Uiso   1.00
H988   H     0.50441   0.27335   0.71209   0.00000  Uiso   1.00
H989   H     0.56963   0.29461   0.72967   0.00000  Uiso   1.00
H990   H     0.57082   0.22297   0.75497   0.00000  Uiso   1.00
H991   H     0.60646   0.22556   0.70885   0.00000  Uiso   1.00
C992   C     0.43366   0.10568   0.94840   0.00000  Uiso   1.00
C993   C     0.45381   0.06165   0.95958   0.00000  Uiso   1.00
H994   H     0.49559   0.05998   0.95458   0.00000  Uiso   1.00
H995   H     0.45022   0.05286   0.99527   0.00000  Uiso   1.00
H996   H     0.43037   0.03872   0.93700   0.00000  Uiso   1.00
H997   H     0.39354   0.10778   0.95781   0.00000  Uiso   1.00
H998   H     0.42919   0.11036   0.91170   0.00000  Uiso   1.00
H999   H     0.55532   0.21621   0.96240   0.00000  Uiso   1.00
H1000  H     0.44468   0.11713   0.70426   0.00000  Uiso   1.00
C1001  C     0.83303   0.08675   0.83356   0.00000  Uiso   1.00
C1002  C     0.83364   0.24658   0.83310   0.00000  Uiso   1.00
C1003  C     0.73386   0.16663   0.82152   0.00000  Uiso   1.00
C1004  C     0.93281   0.16671   0.84515   0.00000  Uiso   1.00
C1005  C     0.67886   0.16674   0.81514   0.00000  Uiso   1.00
C1006  C     0.98780   0.16659   0.85153   0.00000  Uiso   1.00
C1007  C     0.80631   0.02152   0.79630   0.00000  Uiso   1.00
C1008  C     0.86036   0.31182   0.87037   0.00000  Uiso   1.00
C1009  C     0.80681   0.31196   0.79591   0.00000  Uiso   1.00
C1010  C     0.85986   0.02138   0.87076   0.00000  Uiso   1.00
C1011  C     0.83395   0.29077   0.83287   0.00000  Uiso   1.00
C1012  C     0.83272   0.04257   0.83379   0.00000  Uiso   1.00
C1013  C     0.86423   0.19493   0.69294   0.00000  Uiso   1.00
C1014  C     0.80244   0.13841   0.97372   0.00000  Uiso   1.00
C1015  C     0.86404   0.19435   0.97860   0.00000  Uiso   1.00
C1016  C     0.80263   0.13899   0.68807   0.00000  Uiso   1.00
H1017  H     0.99191   0.16698   0.78053   0.00000  Uiso   1.00
H1018  H     0.67475   0.16635   0.88614   0.00000  Uiso   1.00
H1019  H     0.78499   0.03819   0.76777   0.00000  Uiso   1.00
H1020  H     0.88168   0.29514   0.89889   0.00000  Uiso   1.00
H1021  H     0.78532   0.29538   0.76746   0.00000  Uiso   1.00
H1022  H     0.88135   0.03795   0.89921   0.00000  Uiso   1.00
N1023  N     0.83332   0.16666   0.95240   0.00000  Uiso   1.00
N1024  N     0.83335   0.16668   0.71427   0.00000  Uiso   1.00
O1025  O     0.83333   0.10558   0.87154   0.00000  Uiso   1.00
O1026  O     0.83334   0.22775   0.79513   0.00000  Uiso   1.00
O1027  O     0.83333   0.10559   0.79510   0.00000  Uiso   1.00
O1028  O     0.83334   0.22774   0.87157   0.00000  Uiso   1.00
O1029  O     0.75725   0.16666   0.86261   0.00000  Uiso   1.00
O1030  O     0.90942   0.16667   0.80405   0.00000  Uiso   1.00
O1031  O     0.75725   0.16667   0.78617   0.00000  Uiso   1.00
O1032  O     0.90942   0.16666   0.88050   0.00000  Uiso   1.00
Zn1033 Zn    0.83333   0.16666   0.88437   0.00000  Uiso   1.00
Zn1034 Zn    0.83333   0.16667   0.78229   0.00000  Uiso   1.00
C1035  C     0.89967   0.22765   0.71826   0.00000  Uiso   1.00
C1036  C     0.87952   0.27169   0.70709   0.00000  Uiso   1.00
H1037  H     0.88311   0.28048   0.67140   0.00000  Uiso   1.00
H1038  H     0.83774   0.27335   0.71209   0.00000  Uiso   1.00
H1039  H     0.90296   0.29461   0.72967   0.00000  Uiso   1.00
H1040  H     0.90415   0.22297   0.75497   0.00000  Uiso   1.00
H1041  H     0.93979   0.22556   0.70885   0.00000  Uiso   1.00
C1042  C     0.76700   0.10568   0.94840   0.00000  Uiso   1.00
C1043  C     0.78715   0.06165   0.95958   0.00000  Uiso   1.00
H1044  H     0.82892   0.05998   0.95458   0.00000  Uiso   1.00
H1045  H     0.78356   0.05286   0.99527   0.00000  Uiso   1.00
H1046  H     0.76370   0.03872   0.93700   0.00000  Uiso   1.00
H1047  H     0.72687   0.10778   0.95781   0.00000  Uiso   1.00
H1048  H     0.76252   0.11036   0.91170   0.00000  Uiso   1.00
H1049  H     0.88866   0.21621   0.96240   0.00000  Uiso   1.00
H1050  H     0.77801   0.11713   0.70426   0.00000  Uiso   1.00
C1051  C     0.16636   0.42008   0.83356   0.00000  Uiso   1.00
C1052  C     0.16697   0.57992   0.83310   0.00000  Uiso   1.00
C1053  C     0.06719   0.49996   0.82152   0.00000  Uiso   1.00
C1054  C     0.26614   0.50004   0.84515   0.00000  Uiso   1.00
C1055  C     0.01220   0.50007   0.81514   0.00000  Uiso   1.00
C1056  C     0.32114   0.49993   0.85153   0.00000  Uiso   1.00
C1057  C     0.13964   0.35485   0.79630   0.00000  Uiso   1.00
C1058  C     0.19370   0.64515   0.87037   0.00000  Uiso   1.00
C1059  C     0.14015   0.64529   0.79591   0.00000  Uiso   1.00
C1060  C     0.19319   0.35471   0.87076   0.00000  Uiso   1.00
C1061  C     0.16728   0.62410   0.83287   0.00000  Uiso   1.00
C1062  C     0.16605   0.37590   0.83379   0.00000  Uiso   1.00
C1063  C     0.19756   0.52826   0.69294   0.00000  Uiso   1.00
C1064  C     0.13577   0.47174   0.97372   0.00000  Uiso   1.00
C1065  C     0.19737   0.52768   0.97860   0.00000  Uiso   1.00
C1066  C     0.13596   0.47232   0.68807   0.00000  Uiso   1.00
H1067  H     0.32525   0.50031   0.78053   0.00000  Uiso   1.00
H1068  H     0.00809   0.49969   0.88614   0.00000  Uiso   1.00
H1069  H     0.11833   0.37153   0.76777   0.00000  Uiso   1.00
H1070  H     0.21501   0.62847   0.89889   0.00000  Uiso   1.00
H1071  H     0.11865   0.62872   0.76746   0.00000  Uiso   1.00
H1072  H     0.21468   0.37128   0.89921   0.00000  Uiso   1.00
N1073  N     0.16665   0.49999   0.95240   0.00000  Uiso   1.00
N1074  N     0.16668   0.50001   0.71427   0.00000  Uiso   1.00
O1075  O     0.16666   0.43892   0.87154   0.00000  Uiso   1.00
O1076  O     0.16667   0.56108   0.79513   0.00000  Uiso   1.00
O1077  O     0.16666   0.43893   0.79510   0.00000  Uiso   1.00
O1078  O     0.16667   0.56107   0.87157   0.00000  Uiso   1.00
O1079  O     0.09058   0.50000   0.86261   0.00000  Uiso   1.00
O1080  O     0.24275   0.50000   0.80405   0.00000  Uiso   1.00
O1081  O     0.09058   0.50000   0.78617   0.00000  Uiso   1.00
O1082  O     0.24275   0.50000   0.88050   0.00000  Uiso   1.00
Zn1083 Zn    0.16667   0.49999   0.88437   0.00000  Uiso   1.00
Zn1084 Zn    0.16667   0.50001   0.78229   0.00000  Uiso   1.00
C1085  C     0.23300   0.56098   0.71826   0.00000  Uiso   1.00
C1086  C     0.21285   0.60502   0.70709   0.00000  Uiso   1.00
H1087  H     0.21644   0.61381   0.67140   0.00000  Uiso   1.00
H1088  H     0.17107   0.60668   0.71209   0.00000  Uiso   1.00
H1089  H     0.23629   0.62795   0.72967   0.00000  Uiso   1.00
H1090  H     0.23748   0.55631   0.75497   0.00000  Uiso   1.00
H1091  H     0.27313   0.55889   0.70885   0.00000  Uiso   1.00
C1092  C     0.10033   0.43902   0.94840   0.00000  Uiso   1.00
C1093  C     0.12048   0.39498   0.95958   0.00000  Uiso   1.00
H1094  H     0.16226   0.39331   0.95458   0.00000  Uiso   1.00
H1095  H     0.11689   0.38619   0.99527   0.00000  Uiso   1.00
H1096  H     0.09704   0.37205   0.93700   0.00000  Uiso   1.00
H1097  H     0.06021   0.44111   0.95781   0.00000  Uiso   1.00
H1098  H     0.09585   0.44369   0.91170   0.00000  Uiso   1.00
H1099  H     0.22199   0.54954   0.96240   0.00000  Uiso   1.00
H1100  H     0.11134   0.45046   0.70426   0.00000  Uiso   1.00
C1101  C     0.49970   0.42008   0.83356   0.00000  Uiso   1.00
C1102  C     0.50031   0.57992   0.83310   0.00000  Uiso   1.00
C1103  C     0.40053   0.49996   0.82152   0.00000  Uiso   1.00
C1104  C     0.59947   0.50004   0.84515   0.00000  Uiso   1.00
C1105  C     0.34553   0.50007   0.81514   0.00000  Uiso   1.00
C1106  C     0.65447   0.49993   0.85153   0.00000  Uiso   1.00
C1107  C     0.47297   0.35485   0.79630   0.00000  Uiso   1.00
C1108  C     0.52703   0.64515   0.87037   0.00000  Uiso   1.00
C1109  C     0.47348   0.64529   0.79591   0.00000  Uiso   1.00
C1110  C     0.52652   0.35471   0.87076   0.00000  Uiso   1.00
C1111  C     0.50062   0.62410   0.83287   0.00000  Uiso   1.00
C1112  C     0.49938   0.37590   0.83379   0.00000  Uiso   1.00
C1113  C     0.53090   0.52826   0.69294   0.00000  Uiso   1.00
C1114  C     0.46910   0.47174   0.97372   0.00000  Uiso   1.00
C1115  C     0.53071   0.52768   0.97860   0.00000  Uiso   1.00
C1116  C     0.46929   0.47232   0.68807   0.00000  Uiso   1.00
H1117  H     0.65858   0.50031   0.78053   0.00000  Uiso   1.00
H1118  H     0.34142   0.49969   0.88614   0.00000  Uiso   1.00
H1119  H     0.45166   0.37153   0.76777   0.00000  Uiso   1.00
H1120  H     0.54834   0.62847   0.89889   0.00000  Uiso   1.00
H1121  H     0.45198   0.62872   0.76746   0.00000  Uiso   1.00
H1122  H     0.54802   0.37128   0.89921   0.00000  Uiso   1.00
N1123  N     0.49999   0.49999   0.95240   0.00000  Uiso   1.00
N1124  N     0.50001   0.50001   0.71427   0.00000  Uiso   1.00
O1125  O     0.50000   0.43892   0.87154   0.00000  Uiso   1.00
O1126  O     0.50000   0.56108   0.79513   0.00000  Uiso   1.00
O1127  O     0.50000   0.43893   0.79510   0.00000  Uiso   1.00
O1128  O     0.50000   0.56107   0.87157   0.00000  Uiso   1.00
O1129  O     0.42392   0.50000   0.86261   0.00000  Uiso   1.00
O1130  O     0.57608   0.50000   0.80405   0.00000  Uiso   1.00
O1131  O     0.42392   0.50000   0.78617   0.00000  Uiso   1.00
O1132  O     0.57608   0.50000   0.88050   0.00000  Uiso   1.00
Zn1133 Zn    0.50000   0.49999   0.88437   0.00000  Uiso   1.00
Zn1134 Zn    0.50000   0.50001   0.78229   0.00000  Uiso   1.00
C1135  C     0.56634   0.56098   0.71826   0.00000  Uiso   1.00
C1136  C     0.54619   0.60502   0.70709   0.00000  Uiso   1.00
H1137  H     0.54977   0.61381   0.67140   0.00000  Uiso   1.00
H1138  H     0.50441   0.60668   0.71209   0.00000  Uiso   1.00
H1139  H     0.56963   0.62795   0.72967   0.00000  Uiso   1.00
H1140  H     0.57082   0.55631   0.75497   0.00000  Uiso   1.00
H1141  H     0.60646   0.55889   0.70885   0.00000  Uiso   1.00
C1142  C     0.43366   0.43902   0.94840   0.00000  Uiso   1.00
C1143  C     0.45381   0.39498   0.95958   0.00000  Uiso   1.00
H1144  H     0.49559   0.39331   0.95458   0.00000  Uiso   1.00
H1145  H     0.45022   0.38619   0.99527   0.00000  Uiso   1.00
H1146  H     0.43037   0.37205   0.93700   0.00000  Uiso   1.00
H1147  H     0.39354   0.44111   0.95781   0.00000  Uiso   1.00
H1148  H     0.42919   0.44369   0.91170   0.00000  Uiso   1.00
H1149  H     0.55532   0.54954   0.96240   0.00000  Uiso   1.00
H1150  H     0.44468   0.45046   0.70426   0.00000  Uiso   1.00
C1151  C     0.83303   0.42008   0.83356   0.00000  Uiso   1.00
C1152  C     0.83364   0.57992   0.83310   0.00000  Uiso   1.00
C1153  C     0.73386   0.49996   0.82152   0.00000  Uiso   1.00
C1154  C     0.93281   0.50004   0.84515   0.00000  Uiso   1.00
C1155  C     0.67886   0.50007   0.81514   0.00000  Uiso   1.00
C1156  C     0.98780   0.49993   0.85153   0.00000  Uiso   1.00
C1157  C     0.80631   0.35485   0.79630   0.00000  Uiso   1.00
C1158  C     0.86036   0.64515   0.87037   0.00000  Uiso   1.00
C1159  C     0.80681   0.64529   0.79591   0.00000  Uiso   1.00
C1160  C     0.85986   0.35471   0.87076   0.00000  Uiso   1.00
C1161  C     0.83395   0.62410   0.83287   0.00000  Uiso   1.00
C1162  C     0.83272   0.37590   0.83379   0.00000  Uiso   1.00
C1163  C     0.86423   0.52826   0.69294   0.00000  Uiso   1.00
C1164  C     0.80244   0.47174   0.97372   0.00000  Uiso   1.00
C1165  C     0.86404   0.52768   0.97860   0.00000  Uiso   1.00
C1166  C     0.80263   0.47232   0.68807   0.00000  Uiso   1.00
H1167  H     0.99191   0.50031   0.78053   0.00000  Uiso   1.00
H1168  H     0.67475   0.49969   0.88614   0.00000  Uiso   1.00
H1169  H     0.78499   0.37153   0.76777   0.00000  Uiso   1.00
H1170  H     0.88168   0.62847   0.89889   0.00000  Uiso   1.00
H1171  H     0.78532   0.62872   0.76746   0.00000  Uiso   1.00
H1172  H     0.88135   0.37128   0.89921   0.00000  Uiso   1.00
N1173  N     0.83332   0.49999   0.95240   0.00000  Uiso   1.00
N1174  N     0.83335   0.50001   0.71427   0.00000  Uiso   1.00
O1175  O     0.83333   0.43892   0.87154   0.00000  Uiso   1.00
O1176  O     0.83334   0.56108   0.79513   0.00000  Uiso   1.00
O1177  O     0.83333   0.43893   0.79510   0.00000  Uiso   1.00
O1178  O     0.83334   0.56107   0.87157   0.00000  Uiso   1.00
O1179  O     0.75725   0.50000   0.86261   0.00000  Uiso   1.00
O1180  O     0.90942   0.50000   0.80405   0.00000  Uiso   1.00
O1181  O     0.75725   0.50000   0.78617   0.00000  Uiso   1.00
O1182  O     0.90942   0.50000   0.88050   0.00000  Uiso   1.00
Zn1183 Zn    0.83333   0.49999   0.88437   0.00000  Uiso   1.00
Zn1184 Zn    0.83333   0.50001   0.78229   0.00000  Uiso   1.00
C1185  C     0.89967   0.56098   0.71826   0.00000  Uiso   1.00
C1186  C     0.87952   0.60502   0.70709   0.00000  Uiso   1.00
H1187  H     0.88311   0.61381   0.67140   0.00000  Uiso   1.00
H1188  H     0.83774   0.60668   0.71209   0.00000  Uiso   1.00
H1189  H     0.90296   0.62795   0.72967   0.00000  Uiso   1.00
H1190  H     0.90415   0.55631   0.75497   0.00000  Uiso   1.00
H1191  H     0.93979   0.55889   0.70885   0.00000  Uiso   1.00
C1192  C     0.76700   0.43902   0.94840   0.00000  Uiso   1.00
C1193  C     0.78715   0.39498   0.95958   0.00000  Uiso   1.00
H1194  H     0.82892   0.39331   0.95458   0.00000  Uiso   1.00
H1195  H     0.78356   0.38619   0.99527   0.00000  Uiso   1.00
H1196  H     0.76370   0.37205   0.93700   0.00000  Uiso   1.00
H1197  H     0.72687   0.44111   0.95781   0.00000  Uiso   1.00
H1198  H     0.76252   0.44369   0.91170   0.00000  Uiso   1.00
H1199  H     0.88866   0.54954   0.96240   0.00000  Uiso   1.00
H1200  H     0.77801   0.45046   0.70426   0.00000  Uiso   1.00
C1201  C     0.16636   0.75342   0.83356   0.00000  Uiso   1.00
C1202  C     0.16697   0.91325   0.83310   0.00000  Uiso   1.00
C1203  C     0.06719   0.83329   0.82152   0.00000  Uiso   1.00
C1204  C     0.26614   0.83337   0.84515   0.00000  Uiso   1.00
C1205  C     0.01220   0.83341   0.81514   0.00000  Uiso   1.00
C1206  C     0.32114   0.83326   0.85153   0.00000  Uiso   1.00
C1207  C     0.13964   0.68818   0.79630   0.00000  Uiso   1.00
C1208  C     0.19370   0.97848   0.87037   0.00000  Uiso   1.00
C1209  C     0.14015   0.97862   0.79591   0.00000  Uiso   1.00
C1210  C     0.19319   0.68804   0.87076   0.00000  Uiso   1.00
C1211  C     0.16728   0.95743   0.83287   0.00000  Uiso   1.00
C1212  C     0.16605   0.70923   0.83379   0.00000  Uiso   1.00
C1213  C     0.19756   0.86159   0.69294   0.00000  Uiso   1.00
C1214  C     0.13577   0.80507   0.97372   0.00000  Uiso   1.00
C1215  C     0.19737   0.86101   0.97860   0.00000  Uiso   1.00
C1216  C     0.13596   0.80565   0.68807   0.00000  Uiso   1.00
H1217  H     0.32525   0.83365   0.78053   0.00000  Uiso   1.00
H1218  H     0.00809   0.83302   0.88614   0.00000  Uiso   1.00
H1219  H     0.11833   0.70486   0.76777   0.00000  Uiso   1.00
H1220  H     0.21501   0.96181   0.89889   0.00000  Uiso   1.00
H1221  H     0.11865   0.96205   0.76746   0.00000  Uiso   1.00
H1222  H     0.21468   0.70462   0.89921   0.00000  Uiso   1.00
N1223  N     0.16665   0.83332   0.95240   0.00000  Uiso   1.00
N1224  N     0.16668   0.83334   0.71427   0.00000  Uiso   1.00
O1225  O     0.16666   0.77225   0.87154   0.00000  Uiso   1.00
O1226  O     0.16667   0.89442   0.79513   0.00000  Uiso   1.00
O1227  O     0.16666   0.77226   0.79510   0.00000  Uiso   1.00
O1228  O     0.16667   0.89441   0.87157   0.00000  Uiso   1.00
O1229  O     0.09058   0.83333   0.86261   0.00000  Uiso   1.00
O1230  O     0.24275   0.83334   0.80405   0.00000  Uiso   1.00
O1231  O     0.09058   0.83334   0.78617   0.00000  Uiso   1.00
O1232  O     0.24275   0.83333   0.88050   0.00000  Uiso   1.00
Zn1233 Zn    0.16667   0.83333   0.88437   0.00000  Uiso   1.00
Zn1234 Zn    0.16667   0.83334   0.78229   0.00000  Uiso   1.00
C1235  C     0.23300   0.89431   0.71826   0.00000  Uiso   1.00
C1236  C     0.21285   0.93835   0.70709   0.00000  Uiso   1.00
H1237  H     0.21644   0.94714   0.67140   0.00000  Uiso   1.00
H1238  H     0.17107   0.94002   0.71209   0.00000  Uiso   1.00
H1239  H     0.23629   0.96128   0.72967   0.00000  Uiso   1.00
H1240  H     0.23748   0.88964   0.75497   0.00000  Uiso   1.00
H1241  H     0.27313   0.89222   0.70885   0.00000  Uiso   1.00
C1242  C     0.10033   0.77235   0.94840   0.00000  Uiso   1.00
C1243  C     0.12048   0.72831   0.95958   0.00000  Uiso   1.00
H1244  H     0.16226   0.72665   0.95458   0.00000  Uiso   1.00
H1245  H     0.11689   0.71953   0.99527   0.00000  Uiso   1.00
H1246  H     0.09704   0.70539   0.93700   0.00000  Uiso   1.00
H1247  H     0.06021   0.77444   0.95781   0.00000  Uiso   1.00
H1248  H     0.09585   0.77702   0.91170   0.00000  Uiso   1.00
H1249  H     0.22199   0.88287   0.96240   0.00000  Uiso   1.00
H1250  H     0.11134   0.78379   0.70426   0.00000  Uiso   1.00
C1251  C     0.49970   0.75342   0.83356   0.00000  Uiso   1.00
C1252  C     0.50031   0.91325   0.83310   0.00000  Uiso   1.00
C1253  C     0.40053   0.83329   0.82152   0.00000  Uiso   1.00
C1254  C     0.59947   0.83337   0.84515   0.00000  Uiso   1.00
C1255  C     0.34553   0.83341   0.81514   0.00000  Uiso   1.00
C1256  C     0.65447   0.83326   0.85153   0.00000  Uiso   1.00
C1257  C     0.47297   0.68818   0.79630   0.00000  Uiso   1.00
C1258  C     0.52703   0.97848   0.87037   0.00000  Uiso   1.00
C1259  C     0.47348   0.97862   0.79591   0.00000  Uiso   1.00
C1260  C     0.52652   0.68804   0.87076   0.00000  Uiso   1.00
C1261  C     0.50062   0.95743   0.83287   0.00000  Uiso   1.00
C1262  C     0.49938   0.70923   0.83379   0.00000  Uiso   1.00
C1263  C     0.53090   0.86159   0.69294   0.00000  Uiso   1.00
C1264  C     0.46910   0.80507   0.97372   0.00000  Uiso   1.00
C1265  C     0.53071   0.86101   0.97860   0.00000  Uiso   1.00
C1266  C     0.46929   0.80565   0.68807   0.00000  Uiso   1.00
H1267  H     0.65858   0.83365   0.78053   0.00000  Uiso   1.00
H1268  H     0.34142   0.83302   0.88614   0.00000  Uiso   1.00
H1269  H     0.45166   0.70486   0.76777   0.00000  Uiso   1.00
H1270  H     0.54834   0.96181   0.89889   0.00000  Uiso   1.00
H1271  H     0.45198   0.96205   0.76746   0.00000  Uiso   1.00
H1272  H     0.54802   0.70462   0.89921   0.00000  Uiso   1.00
N1273  N     0.49999   0.83332   0.95240   0.00000  Uiso   1.00
N1274  N     0.50001   0.83334   0.71427   0.00000  Uiso   1.00
O1275  O     0.50000   0.77225   0.87154   0.00000  Uiso   1.00
O1276  O     0.50000   0.89442   0.79513   0.00000  Uiso   1.00
O1277  O     0.50000   0.77226   0.79510   0.00000  Uiso   1.00
O1278  O     0.50000   0.89441   0.87157   0.00000  Uiso   1.00
O1279  O     0.42392   0.83333   0.86261   0.00000  Uiso   1.00
O1280  O     0.57608   0.83334   0.80405   0.00000  Uiso   1.00
O1281  O     0.42392   0.83334   0.78617   0.00000  Uiso   1.00
O1282  O     0.57608   0.83333   0.88050   0.00000  Uiso   1.00
Zn1283 Zn    0.50000   0.83333   0.88437   0.00000  Uiso   1.00
Zn1284 Zn    0.50000   0.83334   0.78229   0.00000  Uiso   1.00
C1285  C     0.56634   0.89431   0.71826   0.00000  Uiso   1.00
C1286  C     0.54619   0.93835   0.70709   0.00000  Uiso   1.00
H1287  H     0.54977   0.94714   0.67140   0.00000  Uiso   1.00
H1288  H     0.50441   0.94002   0.71209   0.00000  Uiso   1.00
H1289  H     0.56963   0.96128   0.72967   0.00000  Uiso   1.00
H1290  H     0.57082   0.88964   0.75497   0.00000  Uiso   1.00
H1291  H     0.60646   0.89222   0.70885   0.00000  Uiso   1.00
C1292  C     0.43366   0.77235   0.94840   0.00000  Uiso   1.00
C1293  C     0.45381   0.72831   0.95958   0.00000  Uiso   1.00
H1294  H     0.49559   0.72665   0.95458   0.00000  Uiso   1.00
H1295  H     0.45022   0.71953   0.99527   0.00000  Uiso   1.00
H1296  H     0.43037   0.70539   0.93700   0.00000  Uiso   1.00
H1297  H     0.39354   0.77444   0.95781   0.00000  Uiso   1.00
H1298  H     0.42919   0.77702   0.91170   0.00000  Uiso   1.00
H1299  H     0.55532   0.88287   0.96240   0.00000  Uiso   1.00
H1300  H     0.44468   0.78379   0.70426   0.00000  Uiso   1.00
C1301  C     0.83303   0.75342   0.83356   0.00000  Uiso   1.00
C1302  C     0.83364   0.91325   0.83310   0.00000  Uiso   1.00
C1303  C     0.73386   0.83329   0.82152   0.00000  Uiso   1.00
C1304  C     0.93281   0.83337   0.84515   0.00000  Uiso   1.00
C1305  C     0.67886   0.83341   0.81514   0.00000  Uiso   1.00
C1306  C     0.98780   0.83326   0.85153   0.00000  Uiso   1.00
C1307  C     0.80631   0.68818   0.79630   0.00000  Uiso   1.00
C1308  C     0.86036   0.97848   0.87037   0.00000  Uiso   1.00
C1309  C     0.80681   0.97862   0.79591   0.00000  Uiso   1.00
C1310  C     0.85986   0.68804   0.87076   0.00000  Uiso   1.00
C1311  C     0.83395   0.95743   0.83287   0.00000  Uiso   1.00
C1312  C     0.83272   0.70923   0.83379   0.00000  Uiso   1.00
C1313  C     0.86423   0.86159   0.69294   0.00000  Uiso   1.00
C1314  C     0.80244   0.80507   0.97372   0.00000  Uiso   1.00
C1315  C     0.86404   0.86101   0.97860   0.00000  Uiso   1.00
C1316  C     0.80263   0.80565   0.68807   0.00000  Uiso   1.00
H1317  H     0.99191   0.83365   0.78053   0.00000  Uiso   1.00
H1318  H     0.67475   0.83302   0.88614   0.00000  Uiso   1.00
H1319  H     0.78499   0.70486   0.76777   0.00000  Uiso   1.00
H1320  H     0.88168   0.96181   0.89889   0.00000  Uiso   1.00
H1321  H     0.78532   0.96205   0.76746   0.00000  Uiso   1.00
H1322  H     0.88135   0.70462   0.89921   0.00000  Uiso   1.00
N1323  N     0.83332   0.83332   0.95240   0.00000  Uiso   1.00
N1324  N     0.83335   0.83334   0.71427   0.00000  Uiso   1.00
O1325  O     0.83333   0.77225   0.87154   0.00000  Uiso   1.00
O1326  O     0.83334   0.89442   0.79513   0.00000  Uiso   1.00
O1327  O     0.83333   0.77226   0.79510   0.00000  Uiso   1.00
O1328  O     0.83334   0.89441   0.87157   0.00000  Uiso   1.00
O1329  O     0.75725   0.83333   0.86261   0.00000  Uiso   1.00
O1330  O     0.90942   0.83334   0.80405   0.00000  Uiso   1.00
O1331  O     0.75725   0.83334   0.78617   0.00000  Uiso   1.00
O1332  O     0.90942   0.83333   0.88050   0.00000  Uiso   1.00
Zn1333 Zn    0.83333   0.83333   0.88437   0.00000  Uiso   1.00
Zn1334 Zn    0.83333   0.83334   0.78229   0.00000  Uiso   1.00
C1335  C     0.89967   0.89431   0.71826   0.00000  Uiso   1.00
C1336  C     0.87952   0.93835   0.70709   0.00000  Uiso   1.00
H1337  H     0.88311   0.94714   0.67140   0.00000  Uiso   1.00
H1338  H     0.83774   0.94002   0.71209   0.00000  Uiso   1.00
H1339  H     0.90296   0.96128   0.72967   0.00000  Uiso   1.00
H1340  H     0.90415   0.88964   0.75497   0.00000  Uiso   1.00
H1341  H     0.93979   0.89222   0.70885   0.00000  Uiso   1.00
C1342  C     0.76700   0.77235   0.94840   0.00000  Uiso   1.00
C1343  C     0.78715   0.72831   0.95958   0.00000  Uiso   1.00
H1344  H     0.82892   0.72665   0.95458   0.00000  Uiso   1.00
H1345  H     0.78356   0.71953   0.99527   0.00000  Uiso   1.00
H1346  H     0.76370   0.70539   0.93700   0.00000  Uiso   1.00
H1347  H     0.72687   0.77444   0.95781   0.00000  Uiso   1.00
H1348  H     0.76252   0.77702   0.91170   0.00000  Uiso   1.00
H1349  H     0.88866   0.88287   0.96240   0.00000  Uiso   1.00
H1350  H     0.77801   0.78379   0.70426   0.00000  Uiso   1.00
loop_
_geom_bond_atom_site_label_1
_geom_bond_atom_site_label_2
_geom_bond_distance
_geom_bond_site_symmetry_2
_ccdc_geom_bond_type
C1     O25     1.290   .     A
C1     O27     1.286   .     A
C1     C12     1.412   .     S
C2     C11     1.412   .     S
C2     O26     1.290   .     A
C2     O28     1.286   .     A
C3     O31     1.285   .     A
C3     O29     1.286   .     A
C3     C5      1.402   .     S
C4     O32     1.285   .     A
C4     C6      1.402   .     S
C4     O30     1.286   .     A
C5     C106    1.327   1_455 S
C5     H117    1.088   1_455 S
C6     C55     1.327   .     S
C6     H68     1.088   .     S
C7     H19     1.084   .     S
C7     C12     1.397   .     A
C7     C309    1.372   1_545 S
C8     H20     1.084   .     S
C8     C11     1.397   .     A
C8     C160    1.372   .     S
C9     C11     1.394   .     A
C9     H21     1.083   .     S
C9     C157    1.372   .     S
C10    H22     1.083   .     S
C10    C12     1.394   .     A
C10    C308    1.372   1_545 S
C13    C35     1.509   .     S
C13    N24     1.390   .     A
C13    C915    1.420   1_554 S
C14    N23     1.390   .     A
C14    C42     1.509   .     S
C14    C466    1.420   .     S
C15    N23     1.353   .     A
C15    H49     1.083   .     S
C15    C463    1.420   .     S
C16    N24     1.353   .     A
C16    H50     1.083   .     S
C16    C914    1.420   1_554 S
H17    C55     1.088   .     S
H18    C106    1.088   1_455 S
N23    Zn33    2.027   .     S
N24    Zn34    2.027   .     S
O25    Zn33    1.996   .     S
O26    Zn34    1.996   .     S
O27    Zn34    1.983   .     S
O28    Zn33    1.983   .     S
O29    Zn33    1.975   .     S
O30    Zn34    1.975   .     S
O31    Zn34    1.978   .     S
O32    Zn33    1.978   .     S
C35    H41     1.112   .     S
C35    C36     1.528   .     S
C35    H40     1.091   .     S
C36    H37     1.110   .     S
C36    H38     1.109   .     S
C36    H39     1.111   .     S
C42    H48     1.091   .     S
C42    H47     1.112   .     S
C42    C43     1.528   .     S
C43    H44     1.109   .     S
C43    H45     1.110   .     S
C43    H46     1.111   .     S
C51    O75     1.290   .     A
C51    O77     1.286   .     A
C51    C62     1.412   .     S
C52    C61     1.412   .     S
C52    O76     1.290   .     A
C52    O78     1.286   .     A
C53    O81     1.285   .     A
C53    O79     1.286   .     A
C53    C55     1.402   .     S
C54    O82     1.285   .     A
C54    C56     1.402   .     S
C54    O80     1.286   .     A
C56    C105    1.327   .     S
C56    H118    1.088   .     S
C57    H69     1.084   .     S
C57    C62     1.397   .     A
C57    C359    1.372   1_545 S
C58    H70     1.084   .     S
C58    C61     1.397   .     A
C58    C210    1.372   .     S
C59    C61     1.394   .     A
C59    H71     1.083   .     S
C59    C207    1.372   .     S
C60    H72     1.083   .     S
C60    C62     1.394   .     A
C60    C358    1.372   1_545 S
C63    C85     1.509   .     S
C63    N74     1.390   .     A
C63    C965    1.420   1_554 S
C64    N73     1.390   .     A
C64    C92     1.509   .     S
C64    C516    1.420   .     S
C65    N73     1.353   .     A
C65    H99     1.083   .     S
C65    C513    1.420   .     S
C66    N74     1.353   .     A
C66    H100    1.083   .     S
C66    C964    1.420   1_554 S
H67    C105    1.088   .     S
N73    Zn83    2.027   .     S
N74    Zn84    2.027   .     S
O75    Zn83    1.996   .     S
O76    Zn84    1.996   .     S
O77    Zn84    1.983   .     S
O78    Zn83    1.983   .     S
O79    Zn83    1.975   .     S
O80    Zn84    1.975   .     S
O81    Zn84    1.978   .     S
O82    Zn83    1.978   .     S
C85    H91     1.112   .     S
C85    C86     1.528   .     S
C85    H90     1.091   .     S
C86    H87     1.110   .     S
C86    H88     1.109   .     S
C86    H89     1.111   .     S
C92    H98     1.091   .     S
C92    H97     1.112   .     S
C92    C93     1.528   .     S
C93    H94     1.109   .     S
C93    H95     1.110   .     S
C93    H96     1.111   .     S
C101   O125    1.290   .     A
C101   O127    1.286   .     A
C101   C112    1.412   .     S
C102   C111    1.412   .     S
C102   O126    1.290   .     A
C102   O128    1.286   .     A
C103   O131    1.285   .     A
C103   O129    1.286   .     A
C103   C105    1.402   .     S
C104   O132    1.285   .     A
C104   C106    1.402   .     S
C104   O130    1.286   .     A
C106   C5      1.327   1_655 S
C106   H18     1.088   1_655 S
C107   H119    1.084   .     S
C107   C112    1.397   .     A
C107   C409    1.372   1_545 S
C108   H120    1.084   .     S
C108   C111    1.397   .     A
C108   C260    1.372   .     S
C109   C111    1.394   .     A
C109   H121    1.083   .     S
C109   C257    1.372   .     S
C110   H122    1.083   .     S
C110   C112    1.394   .     A
C110   C408    1.372   1_545 S
C113   C135    1.509   .     S
C113   N124    1.390   .     A
C113   C1015   1.420   1_554 S
C114   N123    1.390   .     A
C114   C142    1.509   .     S
C114   C566    1.420   .     S
C115   N123    1.353   .     A
C115   H149    1.083   .     S
C115   C563    1.420   .     S
C116   N124    1.353   .     A
C116   H150    1.083   .     S
C116   C1014   1.420   1_554 S
H117   C5      1.088   1_655 S
N123   Zn133   2.027   .     S
N124   Zn134   2.027   .     S
O125   Zn133   1.996   .     S
O126   Zn134   1.996   .     S
O127   Zn134   1.983   .     S
O128   Zn133   1.983   .     S
O129   Zn133   1.975   .     S
O130   Zn134   1.975   .     S
O131   Zn134   1.978   .     S
O132   Zn133   1.978   .     S
C135   H141    1.112   .     S
C135   C136    1.528   .     S
C135   H140    1.091   .     S
C136   H137    1.110   .     S
C136   H138    1.109   .     S
C136   H139    1.111   .     S
C142   H148    1.091   .     S
C142   H147    1.112   .     S
C142   C143    1.528   .     S
C143   H144    1.109   .     S
C143   H145    1.110   .     S
C143   H146    1.111   .     S
C151   O175    1.290   .     A
C151   O177    1.286   .     A
C151   C162    1.412   .     S
C152   C161    1.412   .     S
C152   O176    1.290   .     A
C152   O178    1.286   .     A
C153   O181    1.285   .     A
C153   O179    1.286   .     A
C153   C155    1.402   .     S
C154   O182    1.285   .     A
C154   C156    1.402   .     S
C154   O180    1.286   .     A
C155   C256    1.327   1_455 S
C155   H267    1.088   1_455 S
C156   C205    1.327   .     S
C156   H218    1.088   .     S
C157   H169    1.084   .     S
C157   C162    1.397   .     A
C158   H170    1.084   .     S
C158   C161    1.397   .     A
C158   C310    1.372   .     S
C159   C161    1.394   .     A
C159   H171    1.083   .     S
C159   C307    1.372   .     S
C160   H172    1.083   .     S
C160   C162    1.394   .     A
C163   C185    1.509   .     S
C163   N174    1.390   .     A
C163   C1065   1.420   1_554 S
C164   N173    1.390   .     A
C164   C192    1.509   .     S
C164   C616    1.420   .     S
C165   N173    1.353   .     A
C165   H199    1.083   .     S
C165   C613    1.420   .     S
C166   N174    1.353   .     A
C166   H200    1.083   .     S
C166   C1064   1.420   1_554 S
H167   C205    1.088   .     S
H168   C256    1.088   1_455 S
N173   Zn183   2.027   .     S
N174   Zn184   2.027   .     S
O175   Zn183   1.996   .     S
O176   Zn184   1.996   .     S
O177   Zn184   1.983   .     S
O178   Zn183   1.983   .     S
O179   Zn183   1.975   .     S
O180   Zn184   1.975   .     S
O181   Zn184   1.978   .     S
O182   Zn183   1.978   .     S
C185   H191    1.112   .     S
C185   C186    1.528   .     S
C185   H190    1.091   .     S
C186   H187    1.110   .     S
C186   H188    1.109   .     S
C186   H189    1.111   .     S
C192   H198    1.091   .     S
C192   H197    1.112   .     S
C192   C193    1.528   .     S
C193   H194    1.109   .     S
C193   H195    1.110   .     S
C193   H196    1.111   .     S
C201   O225    1.290   .     A
C201   O227    1.286   .     A
C201   C212    1.412   .     S
C202   C211    1.412   .     S
C202   O226    1.290   .     A
C202   O228    1.286   .     A
C203   O231    1.285   .     A
C203   O229    1.286   .     A
C203   C205    1.402   .     S
C204   O232    1.285   .     A
C204   C206    1.402   .     S
C204   O230    1.286   .     A
C206   C255    1.327   .     S
C206   H268    1.088   .     S
C207   H219    1.084   .     S
C207   C212    1.397   .     A
C208   H220    1.084   .     S
C208   C211    1.397   .     A
C208   C360    1.372   .     S
C209   C211    1.394   .     A
C209   H221    1.083   .     S
C209   C357    1.372   .     S
C210   H222    1.083   .     S
C210   C212    1.394   .     A
C213   C235    1.509   .     S
C213   N224    1.390   .     A
C213   C1115   1.420   1_554 S
C214   N223    1.390   .     A
C214   C242    1.509   .     S
C214   C666    1.420   .     S
C215   N223    1.353   .     A
C215   H249    1.083   .     S
C215   C663    1.420   .     S
C216   N224    1.353   .     A
C216   H250    1.083   .     S
C216   C1114   1.420   1_554 S
H217   C255    1.088   .     S
N223   Zn233   2.027   .     S
N224   Zn234   2.027   .     S
O225   Zn233   1.996   .     S
O226   Zn234   1.996   .     S
O227   Zn234   1.983   .     S
O228   Zn233   1.983   .     S
O229   Zn233   1.975   .     S
O230   Zn234   1.975   .     S
O231   Zn234   1.978   .     S
O232   Zn233   1.978   .     S
C235   H241    1.112   .     S
C235   C236    1.528   .     S
C235   H240    1.091   .     S
C236   H237    1.110   .     S
C236   H238    1.109   .     S
C236   H239    1.111   .     S
C242   H248    1.091   .     S
C242   H247    1.112   .     S
C242   C243    1.528   .     S
C243   H244    1.109   .     S
C243   H245    1.110   .     S
C243   H246    1.111   .     S
C251   O275    1.290   .     A
C251   O277    1.286   .     A
C251   C262    1.412   .     S
C252   C261    1.412   .     S
C252   O276    1.290   .     A
C252   O278    1.286   .     A
C253   O281    1.285   .     A
C253   O279    1.286   .     A
C253   C255    1.402   .     S
C254   O282    1.285   .     A
C254   C256    1.402   .     S
C254   O280    1.286   .     A
C256   C155    1.327   1_655 S
C256   H168    1.088   1_655 S
C257   H269    1.084   .     S
C257   C262    1.397   .     A
C258   H270    1.084   .     S
C258   C261    1.397   .     A
C258   C410    1.372   .     S
C259   C261    1.394   .     A
C259   H271    1.083   .     S
C259   C407    1.372   .     S
C260   H272    1.083   .     S
C260   C262    1.394   .     A
C263   C285    1.509   .     S
C263   N274    1.390   .     A
C263   C1165   1.420   1_554 S
C264   N273    1.390   .     A
C264   C292    1.509   .     S
C264   C716    1.420   .     S
C265   N273    1.353   .     A
C265   H299    1.083   .     S
C265   C713    1.420   .     S
C266   N274    1.353   .     A
C266   H300    1.083   .     S
C266   C1164   1.420   1_554 S
H267   C155    1.088   1_655 S
N273   Zn283   2.027   .     S
N274   Zn284   2.027   .     S
O275   Zn283   1.996   .     S
O276   Zn284   1.996   .     S
O277   Zn284   1.983   .     S
O278   Zn283   1.983   .     S
O279   Zn283   1.975   .     S
O280   Zn284   1.975   .     S
O281   Zn284   1.978   .     S
O282   Zn283   1.978   .     S
C285   H291    1.112   .     S
C285   C286    1.528   .     S
C285   H290    1.091   .     S
C286   H287    1.110   .     S
C286   H288    1.109   .     S
C286   H289    1.111   .     S
C292   H298    1.091   .     S
C292   H297    1.112   .     S
C292   C293    1.528   .     S
C293   H294    1.109   .     S
C293   H295    1.110   .     S
C293   H296    1.111   .     S
C301   O325    1.290   .     A
C301   O327    1.286   .     A
C301   C312    1.412   .     S
C302   C311    1.412   .     S
C302   O326    1.290   .     A
C302   O328    1.286   .     A
C303   O331    1.285   .     A
C303   O329    1.286   .     A
C303   C305    1.402   .     S
C304   O332    1.285   .     A
C304   C306    1.402   .     S
C304   O330    1.286   .     A
C305   C406    1.327   1_455 S
C305   H417    1.088   1_455 S
C306   C355    1.327   .     S
C306   H368    1.088   .     S
C307   H319    1.084   .     S
C307   C312    1.397   .     A
C308   H320    1.084   .     S
C308   C311    1.397   .     A
C308   C10     1.372   1_565 S
C309   C311    1.394   .     A
C309   H321    1.083   .     S
C309   C7      1.372   1_565 S
C310   H322    1.083   .     S
C310   C312    1.394   .     A
C313   C335    1.509   .     S
C313   N324    1.390   .     A
C313   C1215   1.420   1_554 S
C314   N323    1.390   .     A
C314   C342    1.509   .     S
C314   C766    1.420   .     S
C315   N323    1.353   .     A
C315   H349    1.083   .     S
C315   C763    1.420   .     S
C316   N324    1.353   .     A
C316   H350    1.083   .     S
C316   C1214   1.420   1_554 S
H317   C355    1.088   .     S
H318   C406    1.088   1_455 S
N323   Zn333   2.027   .     S
N324   Zn334   2.027   .     S
O325   Zn333   1.996   .     S
O326   Zn334   1.996   .     S
O327   Zn334   1.983   .     S
O328   Zn333   1.983   .     S
O329   Zn333   1.975   .     S
O330   Zn334   1.975   .     S
O331   Zn334   1.978   .     S
O332   Zn333   1.978   .     S
C335   H341    1.112   .     S
C335   C336    1.528   .     S
C335   H340    1.091   .     S
C336   H337    1.110   .     S
C336   H338    1.109   .     S
C336   H339    1.111   .     S
C342   H348    1.091   .     S
C342   H347    1.112   .     S
C342   C343    1.528   .     S
C343   H344    1.109   .     S
C343   H345    1.110   .     S
C343   H346    1.111   .     S
C351   O375    1.290   .     A
C351   O377    1.286   .     A
C351   C362    1.412   .     S
C352   C361    1.412   .     S
C352   O376    1.290   .     A
C352   O378    1.286   .     A
C353   O381    1.285   .     A
C353   O379    1.286   .     A
C353   C355    1.402   .     S
C354   O382    1.285   .     A
C354   C356    1.402   .     S
C354   O380    1.286   .     A
C356   C405    1.327   .     S
C356   H418    1.088   .     S
C357   H369    1.084   .     S
C357   C362    1.397   .     A
C358   H370    1.084   .     S
C358   C361    1.397   .     A
C358   C60     1.372   1_565 S
C359   C361    1.394   .     A
C359   H371    1.083   .     S
C359   C57     1.372   1_565 S
C360   H372    1.083   .     S
C360   C362    1.394   .     A
C363   C385    1.509   .     S
C363   N374    1.390   .     A
C363   C1265   1.420   1_554 S
C364   N373    1.390   .     A
C364   C392    1.509   .     S
C364   C816    1.420   .     S
C365   N373    1.353   .     A
C365   H399    1.083   .     S
C365   C813    1.420   .     S
C366   N374    1.353   .     A
C366   H400    1.083   .     S
C366   C1264   1.420   1_554 S
H367   C405    1.088   .     S
N373   Zn383   2.027   .     S
N374   Zn384   2.027   .     S
O375   Zn383   1.996   .     S
O376   Zn384   1.996   .     S
O377   Zn384   1.983   .     S
O378   Zn383   1.983   .     S
O379   Zn383   1.975   .     S
O380   Zn384   1.975   .     S
O381   Zn384   1.978   .     S
O382   Zn383   1.978   .     S
C385   H391    1.112   .     S
C385   C386    1.528   .     S
C385   H390    1.091   .     S
C386   H387    1.110   .     S
C386   H388    1.109   .     S
C386   H389    1.111   .     S
C392   H398    1.091   .     S
C392   H397    1.112   .     S
C392   C393    1.528   .     S
C393   H394    1.109   .     S
C393   H395    1.110   .     S
C393   H396    1.111   .     S
C401   O425    1.290   .     A
C401   O427    1.286   .     A
C401   C412    1.412   .     S
C402   C411    1.412   .     S
C402   O426    1.290   .     A
C402   O428    1.286   .     A
C403   O431    1.285   .     A
C403   O429    1.286   .     A
C403   C405    1.402   .     S
C404   O432    1.285   .     A
C404   C406    1.402   .     S
C404   O430    1.286   .     A
C406   C305    1.327   1_655 S
C406   H318    1.088   1_655 S
C407   H419    1.084   .     S
C407   C412    1.397   .     A
C408   H420    1.084   .     S
C408   C411    1.397   .     A
C408   C110    1.372   1_565 S
C409   C411    1.394   .     A
C409   H421    1.083   .     S
C409   C107    1.372   1_565 S
C410   H422    1.083   .     S
C410   C412    1.394   .     A
C413   C435    1.509   .     S
C413   N424    1.390   .     A
C413   C1315   1.420   1_554 S
C414   N423    1.390   .     A
C414   C442    1.509   .     S
C414   C866    1.420   .     S
C415   N423    1.353   .     A
C415   H449    1.083   .     S
C415   C863    1.420   .     S
C416   N424    1.353   .     A
C416   H450    1.083   .     S
C416   C1314   1.420   1_554 S
H417   C305    1.088   1_655 S
N423   Zn433   2.027   .     S
N424   Zn434   2.027   .     S
O425   Zn433   1.996   .     S
O426   Zn434   1.996   .     S
O427   Zn434   1.983   .     S
O428   Zn433   1.983   .     S
O429   Zn433   1.975   .     S
O430   Zn434   1.975   .     S
O431   Zn434   1.978   .     S
O432   Zn433   1.978   .     S
C435   H441    1.112   .     S
C435   C436    1.528   .     S
C435   H440    1.091   .     S
C436   H437    1.110   .     S
C436   H438    1.109   .     S
C436   H439    1.111   .     S
C442   H448    1.091   .     S
C442   H447    1.112   .     S
C442   C443    1.528   .     S
C443   H444    1.109   .     S
C443   H445    1.110   .     S
C443   H446    1.111   .     S
C451   O475    1.290   .     A
C451   O477    1.286   .     A
C451   C462    1.412   .     S
C452   C461    1.412   .     S
C452   O476    1.290   .     A
C452   O478    1.286   .     A
C453   O481    1.285   .     A
C453   O479    1.286   .     A
C453   C455    1.402   .     S
C454   O482    1.285   .     A
C454   C456    1.402   .     S
C454   O480    1.286   .     A
C455   C556    1.327   1_455 S
C455   H567    1.088   1_455 S
C456   C505    1.327   .     S
C456   H518    1.088   .     S
C457   H469    1.084   .     S
C457   C462    1.397   .     A
C457   C759    1.372   1_545 S
C458   H470    1.084   .     S
C458   C461    1.397   .     A
C458   C610    1.372   .     S
C459   C461    1.394   .     A
C459   H471    1.083   .     S
C459   C607    1.372   .     S
C460   H472    1.083   .     S
C460   C462    1.394   .     A
C460   C758    1.372   1_545 S
C463   C485    1.509   .     S
C463   N474    1.390   .     A
C464   N473    1.390   .     A
C464   C492    1.509   .     S
C464   C916    1.420   .     S
C465   N473    1.353   .     A
C465   H499    1.083   .     S
C465   C913    1.420   .     S
C466   N474    1.353   .     A
C466   H500    1.083   .     S
H467   C505    1.088   .     S
H468   C556    1.088   1_455 S
N473   Zn483   2.027   .     S
N474   Zn484   2.027   .     S
O475   Zn483   1.996   .     S
O476   Zn484   1.996   .     S
O477   Zn484   1.983   .     S
O478   Zn483   1.983   .     S
O479   Zn483   1.975   .     S
O480   Zn484   1.975   .     S
O481   Zn484   1.978   .     S
O482   Zn483   1.978   .     S
C485   H491    1.112   .     S
C485   C486    1.528   .     S
C485   H490    1.091   .     S
C486   H487    1.110   .     S
C486   H488    1.109   .     S
C486   H489    1.111   .     S
C492   H498    1.091   .     S
C492   H497    1.112   .     S
C492   C493    1.528   .     S
C493   H494    1.109   .     S
C493   H495    1.110   .     S
C493   H496    1.111   .     S
C501   O525    1.290   .     A
C501   O527    1.286   .     A
C501   C512    1.412   .     S
C502   C511    1.412   .     S
C502   O526    1.290   .     A
C502   O528    1.286   .     A
C503   O531    1.285   .     A
C503   O529    1.286   .     A
C503   C505    1.402   .     S
C504   O532    1.285   .     A
C504   C506    1.402   .     S
C504   O530    1.286   .     A
C506   C555    1.327   .     S
C506   H568    1.088   .     S
C507   H519    1.084   .     S
C507   C512    1.397   .     A
C507   C809    1.372   1_545 S
C508   H520    1.084   .     S
C508   C511    1.397   .     A
C508   C660    1.372   .     S
C509   C511    1.394   .     A
C509   H521    1.083   .     S
C509   C657    1.372   .     S
C510   H522    1.083   .     S
C510   C512    1.394   .     A
C510   C808    1.372   1_545 S
C513   C535    1.509   .     S
C513   N524    1.390   .     A
C514   N523    1.390   .     A
C514   C542    1.509   .     S
C514   C966    1.420   .     S
C515   N523    1.353   .     A
C515   H549    1.083   .     S
C515   C963    1.420   .     S
C516   N524    1.353   .     A
C516   H550    1.083   .     S
H517   C555    1.088   .     S
N523   Zn533   2.027   .     S
N524   Zn534   2.027   .     S
O525   Zn533   1.996   .     S
O526   Zn534   1.996   .     S
O527   Zn534   1.983   .     S
O528   Zn533   1.983   .     S
O529   Zn533   1.975   .     S
O530   Zn534   1.975   .     S
O531   Zn534   1.978   .     S
O532   Zn533   1.978   .     S
C535   H541    1.112   .     S
C535   C536    1.528   .     S
C535   H540    1.091   .     S
C536   H537    1.110   .     S
C536   H538    1.109   .     S
C536   H539    1.111   .     S
C542   H548    1.091   .     S
C542   H547    1.112   .     S
C542   C543    1.528   .     S
C543   H544    1.109   .     S
C543   H545    1.110   .     S
C543   H546    1.111   .     S
C551   O575    1.290   .     A
C551   O577    1.286   .     A
C551   C562    1.412   .     S
C552   C561    1.412   .     S
C552   O576    1.290   .     A
C552   O578    1.286   .     A
C553   O581    1.285   .     A
C553   O579    1.286   .     A
C553   C555    1.402   .     S
C554   O582    1.285   .     A
C554   C556    1.402   .     S
C554   O580    1.286   .     A
C556   C455    1.327   1_655 S
C556   H468    1.088   1_655 S
C557   H569    1.084   .     S
C557   C562    1.397   .     A
C557   C859    1.372   1_545 S
C558   H570    1.084   .     S
C558   C561    1.397   .     A
C558   C710    1.372   .     S
C559   C561    1.394   .     A
C559   H571    1.083   .     S
C559   C707    1.372   .     S
C560   H572    1.083   .     S
C560   C562    1.394   .     A
C560   C858    1.372   1_545 S
C563   C585    1.509   .     S
C563   N574    1.390   .     A
C564   N573    1.390   .     A
C564   C592    1.509   .     S
C564   C1016   1.420   .     S
C565   N573    1.353   .     A
C565   H599    1.083   .     S
C565   C1013   1.420   .     S
C566   N574    1.353   .     A
C566   H600    1.083   .     S
H567   C455    1.088   1_655 S
N573   Zn583   2.027   .     S
N574   Zn584   2.027   .     S
O575   Zn583   1.996   .     S
O576   Zn584   1.996   .     S
O577   Zn584   1.983   .     S
O578   Zn583   1.983   .     S
O579   Zn583   1.975   .     S
O580   Zn584   1.975   .     S
O581   Zn584   1.978   .     S
O582   Zn583   1.978   .     S
C585   H591    1.112   .     S
C585   C586    1.528   .     S
C585   H590    1.091   .     S
C586   H587    1.110   .     S
C586   H588    1.109   .     S
C586   H589    1.111   .     S
C592   H598    1.091   .     S
C592   H597    1.112   .     S
C592   C593    1.528   .     S
C593   H594    1.109   .     S
C593   H595    1.110   .     S
C593   H596    1.111   .     S
C601   O625    1.290   .     A
C601   O627    1.286   .     A
C601   C612    1.412   .     S
C602   C611    1.412   .     S
C602   O626    1.290   .     A
C602   O628    1.286   .     A
C603   O631    1.285   .     A
C603   O629    1.286   .     A
C603   C605    1.402   .     S
C604   O632    1.285   .     A
C604   C606    1.402   .     S
C604   O630    1.286   .     A
C605   C706    1.327   1_455 S
C605   H717    1.088   1_455 S
C606   C655    1.327   .     S
C606   H668    1.088   .     S
C607   H619    1.084   .     S
C607   C612    1.397   .     A
C608   H620    1.084   .     S
C608   C611    1.397   .     A
C608   C760    1.372   .     S
C609   C611    1.394   .     A
C609   H621    1.083   .     S
C609   C757    1.372   .     S
C610   H622    1.083   .     S
C610   C612    1.394   .     A
C613   C635    1.509   .     S
C613   N624    1.390   .     A
C614   N623    1.390   .     A
C614   C642    1.509   .     S
C614   C1066   1.420   .     S
C615   N623    1.353   .     A
C615   H649    1.083   .     S
C615   C1063   1.420   .     S
C616   N624    1.353   .     A
C616   H650    1.083   .     S
H617   C655    1.088   .     S
H618   C706    1.088   1_455 S
N623   Zn633   2.027   .     S
N624   Zn634   2.027   .     S
O625   Zn633   1.996   .     S
O626   Zn634   1.996   .     S
O627   Zn634   1.983   .     S
O628   Zn633   1.983   .     S
O629   Zn633   1.975   .     S
O630   Zn634   1.975   .     S
O631   Zn634   1.978   .     S
O632   Zn633   1.978   .     S
C635   H641    1.112   .     S
C635   C636    1.528   .     S
C635   H640    1.091   .     S
C636   H637    1.110   .     S
C636   H638    1.109   .     S
C636   H639    1.111   .     S
C642   H648    1.091   .     S
C642   H647    1.112   .     S
C642   C643    1.528   .     S
C643   H644    1.109   .     S
C643   H645    1.110   .     S
C643   H646    1.111   .     S
C651   O675    1.290   .     A
C651   O677    1.286   .     A
C651   C662    1.412   .     S
C652   C661    1.412   .     S
C652   O676    1.290   .     A
C652   O678    1.286   .     A
C653   O681    1.285   .     A
C653   O679    1.286   .     A
C653   C655    1.402   .     S
C654   O682    1.285   .     A
C654   C656    1.402   .     S
C654   O680    1.286   .     A
C656   C705    1.327   .     S
C656   H718    1.088   .     S
C657   H669    1.084   .     S
C657   C662    1.397   .     A
C658   H670    1.084   .     S
C658   C661    1.397   .     A
C658   C810    1.372   .     S
C659   C661    1.394   .     A
C659   H671    1.083   .     S
C659   C807    1.372   .     S
C660   H672    1.083   .     S
C660   C662    1.394   .     A
C663   C685    1.509   .     S
C663   N674    1.390   .     A
C664   N673    1.390   .     A
C664   C692    1.509   .     S
C664   C1116   1.420   .     S
C665   N673    1.353   .     A
C665   H699    1.083   .     S
C665   C1113   1.420   .     S
C666   N674    1.353   .     A
C666   H700    1.083   .     S
H667   C705    1.088   .     S
N673   Zn683   2.027   .     S
N674   Zn684   2.027   .     S
O675   Zn683   1.996   .     S
O676   Zn684   1.996   .     S
O677   Zn684   1.983   .     S
O678   Zn683   1.983   .     S
O679   Zn683   1.975   .     S
O680   Zn684   1.975   .     S
O681   Zn684   1.978   .     S
O682   Zn683   1.978   .     S
C685   H691    1.112   .     S
C685   C686    1.528   .     S
C685   H690    1.091   .     S
C686   H687    1.110   .     S
C686   H688    1.109   .     S
C686   H689    1.111   .     S
C692   H698    1.091   .     S
C692   H697    1.112   .     S
C692   C693    1.528   .     S
C693   H694    1.109   .     S
C693   H695    1.110   .     S
C693   H696    1.111   .     S
C701   O725    1.290   .     A
C701   O727    1.286   .     A
C701   C712    1.412   .     S
C702   C711    1.412   .     S
C702   O726    1.290   .     A
C702   O728    1.286   .     A
C703   O731    1.285   .     A
C703   O729    1.286   .     A
C703   C705    1.402   .     S
C704   O732    1.285   .     A
C704   C706    1.402   .     S
C704   O730    1.286   .     A
C706   C605    1.327   1_655 S
C706   H618    1.088   1_655 S
C707   H719    1.084   .     S
C707   C712    1.397   .     A
C708   H720    1.084   .     S
C708   C711    1.397   .     A
C708   C860    1.372   .     S
C709   C711    1.394   .     A
C709   H721    1.083   .     S
C709   C857    1.372   .     S
C710   H722    1.083   .     S
C710   C712    1.394   .     A
C713   C735    1.509   .     S
C713   N724    1.390   .     A
C714   N723    1.390   .     A
C714   C742    1.509   .     S
C714   C1166   1.420   .     S
C715   N723    1.353   .     A
C715   H749    1.083   .     S
C715   C1163   1.420   .     S
C716   N724    1.353   .     A
C716   H750    1.083   .     S
H717   C605    1.088   1_655 S
N723   Zn733   2.027   .     S
N724   Zn734   2.027   .     S
O725   Zn733   1.996   .     S
O726   Zn734   1.996   .     S
O727   Zn734   1.983   .     S
O728   Zn733   1.983   .     S
O729   Zn733   1.975   .     S
O730   Zn734   1.975   .     S
O731   Zn734   1.978   .     S
O732   Zn733   1.978   .     S
C735   H741    1.112   .     S
C735   C736    1.528   .     S
C735   H740    1.091   .     S
C736   H737    1.110   .     S
C736   H738    1.109   .     S
C736   H739    1.111   .     S
C742   H748    1.091   .     S
C742   H747    1.112   .     S
C742   C743    1.528   .     S
C743   H744    1.109   .     S
C743   H745    1.110   .     S
C743   H746    1.111   .     S
C751   O775    1.290   .     A
C751   O777    1.286   .     A
C751   C762    1.412   .     S
C752   C761    1.412   .     S
C752   O776    1.290   .     A
C752   O778    1.286   .     A
C753   O781    1.285   .     A
C753   O779    1.286   .     A
C753   C755    1.402   .     S
C754   O782    1.285   .     A
C754   C756    1.402   .     S
C754   O780    1.286   .     A
C755   C856    1.327   1_455 S
C755   H867    1.088   1_455 S
C756   C805    1.327   .     S
C756   H818    1.088   .     S
C757   H769    1.084   .     S
C757   C762    1.397   .     A
C758   H770    1.084   .     S
C758   C761    1.397   .     A
C758   C460    1.372   1_565 S
C759   C761    1.394   .     A
C759   H771    1.083   .     S
C759   C457    1.372   1_565 S
C760   H772    1.083   .     S
C760   C762    1.394   .     A
C763   C785    1.509   .     S
C763   N774    1.390   .     A
C764   N773    1.390   .     A
C764   C792    1.509   .     S
C764   C1216   1.420   .     S
C765   N773    1.353   .     A
C765   H799    1.083   .     S
C765   C1213   1.420   .     S
C766   N774    1.353   .     A
C766   H800    1.083   .     S
H767   C805    1.088   .     S
H768   C856    1.088   1_455 S
N773   Zn783   2.027   .     S
N774   Zn784   2.027   .     S
O775   Zn783   1.996   .     S
O776   Zn784   1.996   .     S
O777   Zn784   1.983   .     S
O778   Zn783   1.983   .     S
O779   Zn783   1.975   .     S
O780   Zn784   1.975   .     S
O781   Zn784   1.978   .     S
O782   Zn783   1.978   .     S
C785   H791    1.112   .     S
C785   C786    1.528   .     S
C785   H790    1.091   .     S
C786   H787    1.110   .     S
C786   H788    1.109   .     S
C786   H789    1.111   .     S
C792   H798    1.091   .     S
C792   H797    1.112   .     S
C792   C793    1.528   .     S
C793   H794    1.109   .     S
C793   H795    1.110   .     S
C793   H796    1.111   .     S
C801   O825    1.290   .     A
C801   O827    1.286   .     A
C801   C812    1.412   .     S
C802   C811    1.412   .     S
C802   O826    1.290   .     A
C802   O828    1.286   .     A
C803   O831    1.285   .     A
C803   O829    1.286   .     A
C803   C805    1.402   .     S
C804   O832    1.285   .     A
C804   C806    1.402   .     S
C804   O830    1.286   .     A
C806   C855    1.327   .     S
C806   H868    1.088   .     S
C807   H819    1.084   .     S
C807   C812    1.397   .     A
C808   H820    1.084   .     S
C808   C811    1.397   .     A
C808   C510    1.372   1_565 S
C809   C811    1.394   .     A
C809   H821    1.083   .     S
C809   C507    1.372   1_565 S
C810   H822    1.083   .     S
C810   C812    1.394   .     A
C813   C835    1.509   .     S
C813   N824    1.390   .     A
C814   N823    1.390   .     A
C814   C842    1.509   .     S
C814   C1266   1.420   .     S
C815   N823    1.353   .     A
C815   H849    1.083   .     S
C815   C1263   1.420   .     S
C816   N824    1.353   .     A
C816   H850    1.083   .     S
H817   C855    1.088   .     S
N823   Zn833   2.027   .     S
N824   Zn834   2.027   .     S
O825   Zn833   1.996   .     S
O826   Zn834   1.996   .     S
O827   Zn834   1.983   .     S
O828   Zn833   1.983   .     S
O829   Zn833   1.975   .     S
O830   Zn834   1.975   .     S
O831   Zn834   1.978   .     S
O832   Zn833   1.978   .     S
C835   H841    1.112   .     S
C835   C836    1.528   .     S
C835   H840    1.091   .     S
C836   H837    1.110   .     S
C836   H838    1.109   .     S
C836   H839    1.111   .     S
C842   H848    1.091   .     S
C842   H847    1.112   .     S
C842   C843    1.528   .     S
C843   H844    1.109   .     S
C843   H845    1.110   .     S
C843   H846    1.111   .     S
C851   O875    1.290   .     A
C851   O877    1.286   .     A
C851   C862    1.412   .     S
C852   C861    1.412   .     S
C852   O876    1.290   .     A
C852   O878    1.286   .     A
C853   O881    1.285   .     A
C853   O879    1.286   .     A
C853   C855    1.402   .     S
C854   O882    1.285   .     A
C854   C856    1.402   .     S
C854   O880    1.286   .     A
C856   C755    1.327   1_655 S
C856   H768    1.088   1_655 S
C857   H869    1.084   .     S
C857   C862    1.397   .     A
C858   H870    1.084   .     S
C858   C861    1.397   .     A
C858   C560    1.372   1_565 S
C859   C861    1.394   .     A
C859   H871    1.083   .     S
C859   C557    1.372   1_565 S
C860   H872    1.083   .     S
C860   C862    1.394   .     A
C863   C885    1.509   .     S
C863   N874    1.390   .     A
C864   N873    1.390   .     A
C864   C892    1.509   .     S
C864   C1316   1.420   .     S
C865   N873    1.353   .     A
C865   H899    1.083   .     S
C865   C1313   1.420   .     S
C866   N874    1.353   .     A
C866   H900    1.083   .     S
H867   C755    1.088   1_655 S
N873   Zn883   2.027   .     S
N874   Zn884   2.027   .     S
O875   Zn883   1.996   .     S
O876   Zn884   1.996   .     S
O877   Zn884   1.983   .     S
O878   Zn883   1.983   .     S
O879   Zn883   1.975   .     S
O880   Zn884   1.975   .     S
O881   Zn884   1.978   .     S
O882   Zn883   1.978   .     S
C885   H891    1.112   .     S
C885   C886    1.528   .     S
C885   H890    1.091   .     S
C886   H887    1.110   .     S
C886   H888    1.109   .     S
C886   H889    1.111   .     S
C892   H898    1.091   .     S
C892   H897    1.112   .     S
C892   C893    1.528   .     S
C893   H894    1.109   .     S
C893   H895    1.110   .     S
C893   H896    1.111   .     S
C901   O925    1.290   .     A
C901   O927    1.286   .     A
C901   C912    1.412   .     S
C902   C911    1.412   .     S
C902   O926    1.290   .     A
C902   O928    1.286   .     A
C903   O931    1.285   .     A
C903   O929    1.286   .     A
C903   C905    1.402   .     S
C904   O932    1.285   .     A
C904   C906    1.402   .     S
C904   O930    1.286   .     A
C905   C1006   1.327   1_455 S
C905   H1017   1.088   1_455 S
C906   C955    1.327   .     S
C906   H968    1.088   .     S
C907   H919    1.084   .     S
C907   C912    1.397   .     A
C907   C1209   1.372   1_545 S
C908   H920    1.084   .     S
C908   C911    1.397   .     A
C908   C1060   1.372   .     S
C909   C911    1.394   .     A
C909   H921    1.083   .     S
C909   C1057   1.372   .     S
C910   H922    1.083   .     S
C910   C912    1.394   .     A
C910   C1208   1.372   1_545 S
C913   C935    1.509   .     S
C913   N924    1.390   .     A
C914   N923    1.390   .     A
C914   C942    1.509   .     S
C914   C16     1.420   1_556 S
C915   N923    1.353   .     A
C915   H949    1.083   .     S
C915   C13     1.420   1_556 S
C916   N924    1.353   .     A
C916   H950    1.083   .     S
H917   C955    1.088   .     S
H918   C1006   1.088   1_455 S
N923   Zn933   2.027   .     S
N924   Zn934   2.027   .     S
O925   Zn933   1.996   .     S
O926   Zn934   1.996   .     S
O927   Zn934   1.983   .     S
O928   Zn933   1.983   .     S
O929   Zn933   1.975   .     S
O930   Zn934   1.975   .     S
O931   Zn934   1.978   .     S
O932   Zn933   1.978   .     S
C935   H941    1.112   .     S
C935   C936    1.528   .     S
C935   H940    1.091   .     S
C936   H937    1.110   .     S
C936   H938    1.109   .     S
C936   H939    1.111   .     S
C942   H948    1.091   .     S
C942   H947    1.112   .     S
C942   C943    1.528   .     S
C943   H944    1.109   .     S
C943   H945    1.110   .     S
C943   H946    1.111   .     S
C951   O975    1.290   .     A
C951   O977    1.286   .     A
C951   C962    1.412   .     S
C952   C961    1.412   .     S
C952   O976    1.290   .     A
C952   O978    1.286   .     A
C953   O981    1.285   .     A
C953   O979    1.286   .     A
C953   C955    1.402   .     S
C954   O982    1.285   .     A
C954   C956    1.402   .     S
C954   O980    1.286   .     A
C956   C1005   1.327   .     S
C956   H1018   1.088   .     S
C957   H969    1.084   .     S
C957   C962    1.397   .     A
C957   C1259   1.372   1_545 S
C958   H970    1.084   .     S
C958   C961    1.397   .     A
C958   C1110   1.372   .     S
C959   C961    1.394   .     A
C959   H971    1.083   .     S
C959   C1107   1.372   .     S
C960   H972    1.083   .     S
C960   C962    1.394   .     A
C960   C1258   1.372   1_545 S
C963   C985    1.509   .     S
C963   N974    1.390   .     A
C964   N973    1.390   .     A
C964   C992    1.509   .     S
C964   C66     1.420   1_556 S
C965   N973    1.353   .     A
C965   H999    1.083   .     S
C965   C63     1.420   1_556 S
C966   N974    1.353   .     A
C966   H1000   1.083   .     S
H967   C1005   1.088   .     S
N973   Zn983   2.027   .     S
N974   Zn984   2.027   .     S
O975   Zn983   1.996   .     S
O976   Zn984   1.996   .     S
O977   Zn984   1.983   .     S
O978   Zn983   1.983   .     S
O979   Zn983   1.975   .     S
O980   Zn984   1.975   .     S
O981   Zn984   1.978   .     S
O982   Zn983   1.978   .     S
C985   H991    1.112   .     S
C985   C986    1.528   .     S
C985   H990    1.091   .     S
C986   H987    1.110   .     S
C986   H988    1.109   .     S
C986   H989    1.111   .     S
C992   H998    1.091   .     S
C992   H997    1.112   .     S
C992   C993    1.528   .     S
C993   H994    1.109   .     S
C993   H995    1.110   .     S
C993   H996    1.111   .     S
C1001  O1025   1.290   .     A
C1001  O1027   1.286   .     A
C1001  C1012   1.412   .     S
C1002  C1011   1.412   .     S
C1002  O1026   1.290   .     A
C1002  O1028   1.286   .     A
C1003  O1031   1.285   .     A
C1003  O1029   1.286   .     A
C1003  C1005   1.402   .     S
C1004  O1032   1.285   .     A
C1004  C1006   1.402   .     S
C1004  O1030   1.286   .     A
C1006  C905    1.327   1_655 S
C1006  H918    1.088   1_655 S
C1007  H1019   1.084   .     S
C1007  C1012   1.397   .     A
C1007  C1309   1.372   1_545 S
C1008  H1020   1.084   .     S
C1008  C1011   1.397   .     A
C1008  C1160   1.372   .     S
C1009  C1011   1.394   .     A
C1009  H1021   1.083   .     S
C1009  C1157   1.372   .     S
C1010  H1022   1.083   .     S
C1010  C1012   1.394   .     A
C1010  C1308   1.372   1_545 S
C1013  C1035   1.509   .     S
C1013  N1024   1.390   .     A
C1014  N1023   1.390   .     A
C1014  C1042   1.509   .     S
C1014  C116    1.420   1_556 S
C1015  N1023   1.353   .     A
C1015  H1049   1.083   .     S
C1015  C113    1.420   1_556 S
C1016  N1024   1.353   .     A
C1016  H1050   1.083   .     S
H1017  C905    1.088   1_655 S
N1023  Zn1033  2.027   .     S
N1024  Zn1034  2.027   .     S
O1025  Zn1033  1.996   .     S
O1026  Zn1034  1.996   .     S
O1027  Zn1034  1.983   .     S
O1028  Zn1033  1.983   .     S
O1029  Zn1033  1.975   .     S
O1030  Zn1034  1.975   .     S
O1031  Zn1034  1.978   .     S
O1032  Zn1033  1.978   .     S
C1035  H1041   1.112   .     S
C1035  C1036   1.528   .     S
C1035  H1040   1.091   .     S
C1036  H1037   1.110   .     S
C1036  H1038   1.109   .     S
C1036  H1039   1.111   .     S
C1042  H1048   1.091   .     S
C1042  H1047   1.112   .     S
C1042  C1043   1.528   .     S
C1043  H1044   1.109   .     S
C1043  H1045   1.110   .     S
C1043  H1046   1.111   .     S
C1051  O1075   1.290   .     A
C1051  O1077   1.286   .     A
C1051  C1062   1.412   .     S
C1052  C1061   1.412   .     S
C1052  O1076   1.290   .     A
C1052  O1078   1.286   .     A
C1053  O1081   1.285   .     A
C1053  O1079   1.286   .     A
C1053  C1055   1.402   .     S
C1054  O1082   1.285   .     A
C1054  C1056   1.402   .     S
C1054  O1080   1.286   .     A
C1055  C1156   1.327   1_455 S
C1055  H1167   1.088   1_455 S
C1056  C1105   1.327   .     S
C1056  H1118   1.088   .     S
C1057  H1069   1.084   .     S
C1057  C1062   1.397   .     A
C1058  H1070   1.084   .     S
C1058  C1061   1.397   .     A
C1058  C1210   1.372   .     S
C1059  C1061   1.394   .     A
C1059  H1071   1.083   .     S
C1059  C1207   1.372   .     S
C1060  H1072   1.083   .     S
C1060  C1062   1.394   .     A
C1063  C1085   1.509   .     S
C1063  N1074   1.390   .     A
C1064  N1073   1.390   .     A
C1064  C1092   1.509   .     S
C1064  C166    1.420   1_556 S
C1065  N1073   1.353   .     A
C1065  H1099   1.083   .     S
C1065  C163    1.420   1_556 S
C1066  N1074   1.353   .     A
C1066  H1100   1.083   .     S
H1067  C1105   1.088   .     S
H1068  C1156   1.088   1_455 S
N1073  Zn1083  2.027   .     S
N1074  Zn1084  2.027   .     S
O1075  Zn1083  1.996   .     S
O1076  Zn1084  1.996   .     S
O1077  Zn1084  1.983   .     S
O1078  Zn1083  1.983   .     S
O1079  Zn1083  1.975   .     S
O1080  Zn1084  1.975   .     S
O1081  Zn1084  1.978   .     S
O1082  Zn1083  1.978   .     S
C1085  H1091   1.112   .     S
C1085  C1086   1.528   .     S
C1085  H1090   1.091   .     S
C1086  H1087   1.110   .     S
C1086  H1088   1.109   .     S
C1086  H1089   1.111   .     S
C1092  H1098   1.091   .     S
C1092  H1097   1.112   .     S
C1092  C1093   1.528   .     S
C1093  H1094   1.109   .     S
C1093  H1095   1.110   .     S
C1093  H1096   1.111   .     S
C1101  O1125   1.290   .     A
C1101  O1127   1.286   .     A
C1101  C1112   1.412   .     S
C1102  C1111   1.412   .     S
C1102  O1126   1.290   .     A
C1102  O1128   1.286   .     A
C1103  O1131   1.285   .     A
C1103  O1129   1.286   .     A
C1103  C1105   1.402   .     S
C1104  O1132   1.285   .     A
C1104  C1106   1.402   .     S
C1104  O1130   1.286   .     A
C1106  C1155   1.327   .     S
C1106  H1168   1.088   .     S
C1107  H1119   1.084   .     S
C1107  C1112   1.397   .     A
C1108  H1120   1.084   .     S
C1108  C1111   1.397   .     A
C1108  C1260   1.372   .     S
C1109  C1111   1.394   .     A
C1109  H1121   1.083   .     S
C1109  C1257   1.372   .     S
C1110  H1122   1.083   .     S
C1110  C1112   1.394   .     A
C1113  C1135   1.509   .     S
C1113  N1124   1.390   .     A
C1114  N1123   1.390   .     A
C1114  C1142   1.509   .     S
C1114  C216    1.420   1_556 S
C1115  N1123   1.353   .     A
C1115  H1149   1.083   .     S
C1115  C213    1.420   1_556 S
C1116  N1124   1.353   .     A
C1116  H1150   1.083   .     S
H1117  C1155   1.088   .     S
N1123  Zn1133  2.027   .     S
N1124  Zn1134  2.027   .     S
O1125  Zn1133  1.996   .     S
O1126  Zn1134  1.996   .     S
O1127  Zn1134  1.983   .     S
O1128  Zn1133  1.983   .     S
O1129  Zn1133  1.975   .     S
O1130  Zn1134  1.975   .     S
O1131  Zn1134  1.978   .     S
O1132  Zn1133  1.978   .     S
C1135  H1141   1.112   .     S
C1135  C1136   1.528   .     S
C1135  H1140   1.091   .     S
C1136  H1137   1.110   .     S
C1136  H1138   1.109   .     S
C1136  H1139   1.111   .     S
C1142  H1148   1.091   .     S
C1142  H1147   1.112   .     S
C1142  C1143   1.528   .     S
C1143  H1144   1.109   .     S
C1143  H1145   1.110   .     S
C1143  H1146   1.111   .     S
C1151  O1175   1.290   .     A
C1151  O1177   1.286   .     A
C1151  C1162   1.412   .     S
C1152  C1161   1.412   .     S
C1152  O1176   1.290   .     A
C1152  O1178   1.286   .     A
C1153  O1181   1.285   .     A
C1153  O1179   1.286   .     A
C1153  C1155   1.402   .     S
C1154  O1182   1.285   .     A
C1154  C1156   1.402   .     S
C1154  O1180   1.286   .     A
C1156  C1055   1.327   1_655 S
C1156  H1068   1.088   1_655 S
C1157  H1169   1.084   .     S
C1157  C1162   1.397   .     A
C1158  H1170   1.084   .     S
C1158  C1161   1.397   .     A
C1158  C1310   1.372   .     S
C1159  C1161   1.394   .     A
C1159  H1171   1.083   .     S
C1159  C1307   1.372   .     S
C1160  H1172   1.083   .     S
C1160  C1162   1.394   .     A
C1163  C1185   1.509   .     S
C1163  N1174   1.390   .     A
C1164  N1173   1.390   .     A
C1164  C1192   1.509   .     S
C1164  C266    1.420   1_556 S
C1165  N1173   1.353   .     A
C1165  H1199   1.083   .     S
C1165  C263    1.420   1_556 S
C1166  N1174   1.353   .     A
C1166  H1200   1.083   .     S
H1167  C1055   1.088   1_655 S
N1173  Zn1183  2.027   .     S
N1174  Zn1184  2.027   .     S
O1175  Zn1183  1.996   .     S
O1176  Zn1184  1.996   .     S
O1177  Zn1184  1.983   .     S
O1178  Zn1183  1.983   .     S
O1179  Zn1183  1.975   .     S
O1180  Zn1184  1.975   .     S
O1181  Zn1184  1.978   .     S
O1182  Zn1183  1.978   .     S
C1185  H1191   1.112   .     S
C1185  C1186   1.528   .     S
C1185  H1190   1.091   .     S
C1186  H1187   1.110   .     S
C1186  H1188   1.109   .     S
C1186  H1189   1.111   .     S
C1192  H1198   1.091   .     S
C1192  H1197   1.112   .     S
C1192  C1193   1.528   .     S
C1193  H1194   1.109   .     S
C1193  H1195   1.110   .     S
C1193  H1196   1.111   .     S
C1201  O1225   1.290   .     A
C1201  O1227   1.286   .     A
C1201  C1212   1.412   .     S
C1202  C1211   1.412   .     S
C1202  O1226   1.290   .     A
C1202  O1228   1.286   .     A
C1203  O1231   1.285   .     A
C1203  O1229   1.286   .     A
C1203  C1205   1.402   .     S
C1204  O1232   1.285   .     A
C1204  C1206   1.402   .     S
C1204  O1230   1.286   .     A
C1205  C1306   1.327   1_455 S
C1205  H1317   1.088   1_455 S
C1206  C1255   1.327   .     S
C1206  H1268   1.088   .     S
C1207  H1219   1.084   .     S
C1207  C1212   1.397   .     A
C1208  H1220   1.084   .     S
C1208  C1211   1.397   .     A
C1208  C910    1.372   1_565 S
C1209  C1211   1.394   .     A
C1209  H1221   1.083   .     S
C1209  C907    1.372   1_565 S
C1210  H1222   1.083   .     S
C1210  C1212   1.394   .     A
C1213  C1235   1.509   .     S
C1213  N1224   1.390   .     A
C1214  N1223   1.390   .     A
C1214  C1242   1.509   .     S
C1214  C316    1.420   1_556 S
C1215  N1223   1.353   .     A
C1215  H1249   1.083   .     S
C1215  C313    1.420   1_556 S
C1216  N1224   1.353   .     A
C1216  H1250   1.083   .     S
H1217  C1255   1.088   .     S
H1218  C1306   1.088   1_455 S
N1223  Zn1233  2.027   .     S
N1224  Zn1234  2.027   .     S
O1225  Zn1233  1.996   .     S
O1226  Zn1234  1.996   .     S
O1227  Zn1234  1.983   .     S
O1228  Zn1233  1.983   .     S
O1229  Zn1233  1.975   .     S
O1230  Zn1234  1.975   .     S
O1231  Zn1234  1.978   .     S
O1232  Zn1233  1.978   .     S
C1235  H1241   1.112   .     S
C1235  C1236   1.528   .     S
C1235  H1240   1.091   .     S
C1236  H1237   1.110   .     S
C1236  H1238   1.109   .     S
C1236  H1239   1.111   .     S
C1242  H1248   1.091   .     S
C1242  H1247   1.112   .     S
C1242  C1243   1.528   .     S
C1243  H1244   1.109   .     S
C1243  H1245   1.110   .     S
C1243  H1246   1.111   .     S
C1251  O1275   1.290   .     A
C1251  O1277   1.286   .     A
C1251  C1262   1.412   .     S
C1252  C1261   1.412   .     S
C1252  O1276   1.290   .     A
C1252  O1278   1.286   .     A
C1253  O1281   1.285   .     A
C1253  O1279   1.286   .     A
C1253  C1255   1.402   .     S
C1254  O1282   1.285   .     A
C1254  C1256   1.402   .     S
C1254  O1280   1.286   .     A
C1256  C1305   1.327   .     S
C1256  H1318   1.088   .     S
C1257  H1269   1.084   .     S
C1257  C1262   1.397   .     A
C1258  H1270   1.084   .     S
C1258  C1261   1.397   .     A
C1258  C960    1.372   1_565 S
C1259  C1261   1.394   .     A
C1259  H1271   1.083   .     S
C1259  C957    1.372   1_565 S
C1260  H1272   1.083   .     S
C1260  C1262   1.394   .     A
C1263  C1285   1.509   .     S
C1263  N1274   1.390   .     A
C1264  N1273   1.390   .     A
C1264  C1292   1.509   .     S
C1264  C366    1.420   1_556 S
C1265  N1273   1.353   .     A
C1265  H1299   1.083   .     S
C1265  C363    1.420   1_556 S
C1266  N1274   1.353   .     A
C1266  H1300   1.083   .     S
H1267  C1305   1.088   .     S
N1273  Zn1283  2.027   .     S
N1274  Zn1284  2.027   .     S
O1275  Zn1283  1.996   .     S
O1276  Zn1284  1.996   .     S
O1277  Zn1284  1.983   .     S
O1278  Zn1283  1.983   .     S
O1279  Zn1283  1.975   .     S
O1280  Zn1284  1.975   .     S
O1281  Zn1284  1.978   .     S
O1282  Zn1283  1.978   .     S
C1285  H1291   1.112   .     S
C1285  C1286   1.528   .     S
C1285  H1290   1.091   .     S
C1286  H1287   1.110   .     S
C1286  H1288   1.109   .     S
C1286  H1289   1.111   .     S
C1292  H1298   1.091   .     S
C1292  H1297   1.112   .     S
C1292  C1293   1.528   .     S
C1293  H1294   1.109   .     S
C1293  H1295   1.110   .     S
C1293  H1296   1.111   .     S
C1301  O1325   1.290   .     A
C1301  O1327   1.286   .     A
C1301  C1312   1.412   .     S
C1302  C1311   1.412   .     S
C1302  O1326   1.290   .     A
C1302  O1328   1.286   .     A
C1303  O1331   1.285   .     A
C1303  O1329   1.286   .     A
C1303  C1305   1.402   .     S
C1304  O1332   1.285   .     A
C1304  C1306   1.402   .     S
C1304  O1330   1.286   .     A
C1306  C1205   1.327   1_655 S
C1306  H1218   1.088   1_655 S
C1307  H1319   1.084   .     S
C1307  C1312   1.397   .     A
C1308  H1320   1.084   .     S
C1308  C1311   1.397   .     A
C1308  C1010   1.372   1_565 S
C1309  C1311   1.394   .     A
C1309  H1321   1.083   .     S
C1309  C1007   1.372   1_565 S
C1310  H1322   1.083   .     S
C1310  C1312   1.394   .     A
C1313  C1335   1.509   .     S
C1313  N1324   1.390   .     A
C1314  N1323   1.390   .     A
C1314  C1342   1.509   .     S
C1314  C416    1.420   1_556 S
C1315  N1323   1.353   .     A
C1315  H1349   1.083   .     S
C1315  C413    1.420   1_556 S
C1316  N1324   1.353   .     A
C1316  H1350   1.083   .     S
H1317  C1205   1.088   1_655 S
N1323  Zn1333  2.027   .     S
N1324  Zn1334  2.027   .     S
O1325  Zn1333  1.996   .     S
O1326  Zn1334  1.996   .     S
O1327  Zn1334  1.983   .     S
O1328  Zn1333  1.983   .     S
O1329  Zn1333  1.975   .     S
O1330  Zn1334  1.975   .     S
O1331  Zn1334  1.978   .     S
O1332  Zn1333  1.978   .     S
C1335  H1341   1.112   .     S
C1335  C1336   1.528   .     S
C1335  H1340   1.091   .     S
C1336  H1337   1.110   .     S
C1336  H1338   1.109   .     S
C1336  H1339   1.111   .     S
C1342  H1348   1.091   .     S
C1342  H1347   1.112   .     S
C1342  C1343   1.528   .     S
C1343  H1344   1.109   .     S
C1343  H1345   1.110   .     S
C1343  H1346   1.111   .     S
