data_str_m3_o1_o1_pcu_sym.39
_audit_creation_date              2020-01-03
_audit_creation_method            'Materials Studio'
_symmetry_space_group_name_H-M    'P1'
_symmetry_Int_Tables_number       1
_symmetry_cell_setting            triclinic
loop_
_symmetry_equiv_pos_as_xyz
  x,y,z
_cell_length_a                    30.6321
_cell_length_b                    31.0612
_cell_length_c                    29.8081
_cell_angle_alpha                 90.5427
_cell_angle_beta                  90.4337
_cell_angle_gamma                 89.9162
loop_
_atom_site_label
_atom_site_type_symbol
_atom_site_fract_x
_atom_site_fract_y
_atom_site_fract_z
_atom_site_U_iso_or_equiv
_atom_site_adp_type
_atom_site_occupancy
C1     C     0.05918   0.18937   0.16697   0.00000  Uiso   1.00
C2     C     0.01848   0.21702   0.30937   0.00000  Uiso   1.00
C3     C     0.01805   0.21675   0.02369   0.00000  Uiso   1.00
C4     C     0.48303   0.28379   0.30973   0.00000  Uiso   1.00
C5     C     0.23286   0.03367   0.02403   0.00000  Uiso   1.00
C6     C     0.26834   0.46699   0.30926   0.00000  Uiso   1.00
C7     C     0.26879   0.46729   0.02360   0.00000  Uiso   1.00
C8     C     0.23259   0.03355   0.30975   0.00000  Uiso   1.00
C9     C     0.39280   0.13790   0.12565   0.00000  Uiso   1.00
C10    C     0.11479   0.35574   0.20711   0.00000  Uiso   1.00
C11    C     0.10585   0.36174   0.12580   0.00000  Uiso   1.00
C12    C     0.43818   0.30824   0.16667   0.00000  Uiso   1.00
C13    C     0.39945   0.13368   0.20713   0.00000  Uiso   1.00
C14    C     0.11179   0.14356   0.20825   0.00000  Uiso   1.00
C15    C     0.38453   0.35446   0.12622   0.00000  Uiso   1.00
C16    C     0.38272   0.35124   0.20783   0.00000  Uiso   1.00
C17    C     0.09616   0.12820   0.12985   0.00000  Uiso   1.00
C18    C     0.13526   0.39538   0.12603   0.00000  Uiso   1.00
C19    C     0.36562   0.10431   0.20815   0.00000  Uiso   1.00
C20    C     0.36417   0.10364   0.12580   0.00000  Uiso   1.00
C21    C     0.15182   0.38110   0.20426   0.00000  Uiso   1.00
C22    C     0.35696   0.38792   0.20810   0.00000  Uiso   1.00
C23    C     0.44125   0.18888   0.16646   0.00000  Uiso   1.00
C24    C     0.13630   0.10763   0.12706   0.00000  Uiso   1.00
C25    C     0.13925   0.10820   0.20846   0.00000  Uiso   1.00
C26    C     0.34739   0.38001   0.12726   0.00000  Uiso   1.00
C27    C     0.09312   0.34352   0.16692   0.00000  Uiso   1.00
C28    C     0.41080   0.15310   0.16630   0.00000  Uiso   1.00
C29    C     0.40086   0.33753   0.16679   0.00000  Uiso   1.00
C30    C     0.08895   0.15327   0.16848   0.00000  Uiso   1.00
C31    C     0.34717   0.08938   0.16716   0.00000  Uiso   1.00
C32    C     0.15869   0.40519   0.16543   0.00000  Uiso   1.00
C33    C     0.15559   0.09273   0.16721   0.00000  Uiso   1.00
C34    C     0.05986   0.31022   0.16688   0.00000  Uiso   1.00
C35    C     0.33759   0.40174   0.16750   0.00000  Uiso   1.00
C36    C     0.37800   0.19315   0.07461   0.00000  Uiso   1.00
C37    C     0.34400   0.20899   0.10953   0.00000  Uiso   1.00
C38    C     0.32220   0.24993   0.09411   0.00000  Uiso   1.00
C39    C     0.06897   0.35674   0.26782   0.00000  Uiso   1.00
C40    C     0.07789   0.40212   0.28571   0.00000  Uiso   1.00
C41    C     0.04688   0.41188   0.32426   0.00000  Uiso   1.00
C42    C     0.10988   0.31474   0.06618   0.00000  Uiso   1.00
C43    C     0.14490   0.33081   0.03441   0.00000  Uiso   1.00
C44    C     0.15846   0.29596   0.00126   0.00000  Uiso   1.00
C45    C     0.30841   0.43857   0.16680   0.00000  Uiso   1.00
C46    C     0.46373   0.12293   0.24464   0.00000  Uiso   1.00
C47    C     0.46718   0.08754   0.27919   0.00000  Uiso   1.00
C48    C     0.48589   0.10418   0.32361   0.00000  Uiso   1.00
C49    C     0.14055   0.19878   0.24963   0.00000  Uiso   1.00
C50    C     0.17111   0.18900   0.28912   0.00000  Uiso   1.00
C51    C     0.21459   0.21206   0.28424   0.00000  Uiso   1.00
C52    C     0.42785   0.38861   0.07502   0.00000  Uiso   1.00
C53    C     0.45779   0.40732   0.11281   0.00000  Uiso   1.00
C54    C     0.00071   0.42436   0.09535   0.00000  Uiso   1.00
C55    C     0.37615   0.29484   0.25608   0.00000  Uiso   1.00
C56    C     0.19017   0.06042   0.16668   0.00000  Uiso   1.00
C57    C     0.33987   0.30082   0.29001   0.00000  Uiso   1.00
C58    C     0.32133   0.25749   0.30375   0.00000  Uiso   1.00
C59    C     0.02619   0.10936   0.10869   0.00000  Uiso   1.00
C60    C     0.02694   0.06003   0.11317   0.00000  Uiso   1.00
C61    C     0.49082   0.04389   0.14381   0.00000  Uiso   1.00
C62    C     0.11729   0.45234   0.08304   0.00000  Uiso   1.00
C63    C     0.13561   0.48053   0.04647   0.00000  Uiso   1.00
C64    C     0.11365   0.02421   0.04608   0.00000  Uiso   1.00
C65    C     0.31847   0.10444   0.26800   0.00000  Uiso   1.00
C66    C     0.32959   0.13436   0.30724   0.00000  Uiso   1.00
C67    C     0.19043   0.43968   0.16629   0.00000  Uiso   1.00
C68    C     0.29043   0.13837   0.00536   0.00000  Uiso   1.00
C69    C     0.36873   0.04601   0.07711   0.00000  Uiso   1.00
C70    C     0.40877   0.04918   0.04765   0.00000  Uiso   1.00
C71    C     0.42935   0.00501   0.04089   0.00000  Uiso   1.00
C72    C     0.22088   0.35714   0.22182   0.00000  Uiso   1.00
C73    C     0.21163   0.31152   0.20314   0.00000  Uiso   1.00
C74    C     0.25296   0.28436   0.20160   0.00000  Uiso   1.00
C75    C     0.37993   0.44584   0.24972   0.00000  Uiso   1.00
C76    C     0.42697   0.43304   0.26152   0.00000  Uiso   1.00
C77    C     0.45730   0.47128   0.25701   0.00000  Uiso   1.00
C78    C     0.31116   0.05890   0.16692   0.00000  Uiso   1.00
C79    C     0.19169   0.13744   0.08647   0.00000  Uiso   1.00
C80    C     0.17587   0.18432   0.09309   0.00000  Uiso   1.00
C81    C     0.21374   0.21588   0.09107   0.00000  Uiso   1.00
C82    C     0.12814   0.05180   0.25476   0.00000  Uiso   1.00
C83    C     0.08237   0.05953   0.27277   0.00000  Uiso   1.00
C84    C     0.05995   0.01635   0.27829   0.00000  Uiso   1.00
C85    C     0.28144   0.36556   0.09346   0.00000  Uiso   1.00
C86    C     0.27205   0.33526   0.05411   0.00000  Uiso   1.00
C87    C     0.25874   0.35868   0.01177   0.00000  Uiso   1.00
C88    C     0.48301   0.28373   0.02405   0.00000  Uiso   1.00
H89    H     0.46973   0.31089   0.04199   0.00000  Uiso   1.00
H90    H     0.40082   0.21995   0.06749   0.00000  Uiso   1.00
H91    H     0.20795   0.13542   0.05340   0.00000  Uiso   1.00
H92    H     0.21695   0.12940   0.11210   0.00000  Uiso   1.00
H93    H     0.15113   0.19240   0.06709   0.00000  Uiso   1.00
H94    H     0.16088   0.18857   0.12657   0.00000  Uiso   1.00
H95    H     0.23847   0.20774   0.11702   0.00000  Uiso   1.00
H96    H     0.20175   0.24910   0.09754   0.00000  Uiso   1.00
H97    H     0.22911   0.21462   0.05764   0.00000  Uiso   1.00
H98    H     0.14671   0.03210   0.27917   0.00000  Uiso   1.00
H99    H     0.12592   0.03187   0.22344   0.00000  Uiso   1.00
H100   H     0.08426   0.07697   0.30536   0.00000  Uiso   1.00
H101   H     0.31856   0.18402   0.11444   0.00000  Uiso   1.00
H102   H     0.06308   0.07941   0.24901   0.00000  Uiso   1.00
H103   H     0.04788   0.00473   0.24512   0.00000  Uiso   1.00
H104   H     0.03273   0.01894   0.30242   0.00000  Uiso   1.00
H105   H     0.08343   0.49257   0.29156   0.00000  Uiso   1.00
H106   H     0.25566   0.39063   0.09510   0.00000  Uiso   1.00
H107   H     0.27819   0.34623   0.12456   0.00000  Uiso   1.00
H108   H     0.30189   0.31687   0.04648   0.00000  Uiso   1.00
H109   H     0.24585   0.31236   0.06333   0.00000  Uiso   1.00
H110   H     0.23099   0.38094   0.01789   0.00000  Uiso   1.00
H111   H     0.24865   0.33421   0.32001   0.00000  Uiso   1.00
H112   H     0.35984   0.21659   0.14219   0.00000  Uiso   1.00
H113   H     0.28708   0.37644   0.33172   0.00000  Uiso   1.00
H114   H     0.29966   0.26192   0.12022   0.00000  Uiso   1.00
H115   H     0.30315   0.24328   0.06318   0.00000  Uiso   1.00
H116   H     0.34730   0.27490   0.08800   0.00000  Uiso   1.00
H117   H     0.05909   0.33548   0.29572   0.00000  Uiso   1.00
H118   H     0.04032   0.35912   0.24485   0.00000  Uiso   1.00
H119   H     0.11221   0.40555   0.29718   0.00000  Uiso   1.00
H120   H     0.07232   0.42535   0.25816   0.00000  Uiso   1.00
H121   H     0.03420   0.19095   0.29166   0.00000  Uiso   1.00
H122   H     0.01248   0.40593   0.31405   0.00000  Uiso   1.00
H123   H     0.04999   0.44557   0.00267   0.00000  Uiso   1.00
H124   H     0.05502   0.39033   0.01900   0.00000  Uiso   1.00
H125   H     0.08565   0.29534   0.04684   0.00000  Uiso   1.00
H126   H     0.12470   0.29263   0.09144   0.00000  Uiso   1.00
H127   H     0.13228   0.35864   0.01557   0.00000  Uiso   1.00
H128   H     0.17371   0.34148   0.05425   0.00000  Uiso   1.00
H129   H     0.17712   0.27056   0.01893   0.00000  Uiso   1.00
H130   H     0.17908   0.31037   0.30836   0.00000  Uiso   1.00
H131   H     0.12946   0.28152   0.31779   0.00000  Uiso   1.00
H132   H     0.03257   0.18998   0.04125   0.00000  Uiso   1.00
H133   H     0.48895   0.14769   0.25111   0.00000  Uiso   1.00
H134   H     0.47231   0.10916   0.21119   0.00000  Uiso   1.00
H135   H     0.43478   0.07280   0.28434   0.00000  Uiso   1.00
H136   H     0.48841   0.06214   0.26542   0.00000  Uiso   1.00
H137   H     0.01789   0.11996   0.31853   0.00000  Uiso   1.00
H138   H     0.49151   0.07682   0.01303   0.00000  Uiso   1.00
H139   H     0.46295   0.12745   0.00603   0.00000  Uiso   1.00
H140   H     0.12518   0.23074   0.25541   0.00000  Uiso   1.00
H141   H     0.15985   0.20213   0.21806   0.00000  Uiso   1.00
H142   H     0.15520   0.19922   0.32080   0.00000  Uiso   1.00
H143   H     0.46995   0.31131   0.29224   0.00000  Uiso   1.00
H144   H     0.17773   0.15403   0.29135   0.00000  Uiso   1.00
H145   H     0.23317   0.19823   0.25564   0.00000  Uiso   1.00
H146   H     0.23416   0.20860   0.31523   0.00000  Uiso   1.00
H147   H     0.20925   0.24672   0.27875   0.00000  Uiso   1.00
H148   H     0.40311   0.41302   0.06505   0.00000  Uiso   1.00
H149   H     0.44734   0.38246   0.04436   0.00000  Uiso   1.00
H150   H     0.44020   0.43338   0.13105   0.00000  Uiso   1.00
H151   H     0.46680   0.38253   0.13756   0.00000  Uiso   1.00
H152   H     0.02024   0.39668   0.08357   0.00000  Uiso   1.00
H153   H     0.01900   0.44057   0.12299   0.00000  Uiso   1.00
H154   H     0.21889   0.06057   0.04190   0.00000  Uiso   1.00
H155   H     0.49577   0.44713   0.06744   0.00000  Uiso   1.00
H156   H     0.40086   0.27258   0.27038   0.00000  Uiso   1.00
H157   H     0.36305   0.27866   0.22511   0.00000  Uiso   1.00
H158   H     0.35293   0.31788   0.32018   0.00000  Uiso   1.00
H159   H     0.31385   0.32094   0.27486   0.00000  Uiso   1.00
H160   H     0.31419   0.23695   0.27393   0.00000  Uiso   1.00
H161   H     0.29061   0.26250   0.32243   0.00000  Uiso   1.00
H162   H     0.34533   0.24068   0.32534   0.00000  Uiso   1.00
H163   H     0.00088   0.11812   0.08362   0.00000  Uiso   1.00
H164   H     0.01471   0.12419   0.14053   0.00000  Uiso   1.00
H165   H     0.28296   0.44045   0.29125   0.00000  Uiso   1.00
H166   H     0.02274   0.04507   0.07951   0.00000  Uiso   1.00
H167   H     0.05849   0.04918   0.12769   0.00000  Uiso   1.00
H168   H     0.00064   0.04874   0.17938   0.00000  Uiso   1.00
H169   H     0.48576   0.00894   0.13831   0.00000  Uiso   1.00
H170   H     0.45952   0.06083   0.13735   0.00000  Uiso   1.00
H171   H     0.11672   0.47121   0.11516   0.00000  Uiso   1.00
H172   H     0.08358   0.44299   0.07400   0.00000  Uiso   1.00
H173   H     0.17056   0.48514   0.05354   0.00000  Uiso   1.00
H174   H     0.13226   0.46450   0.01324   0.00000  Uiso   1.00
H175   H     0.11479   0.03831   0.08010   0.00000  Uiso   1.00
H176   H     0.28465   0.44157   0.04119   0.00000  Uiso   1.00
H177   H     0.07917   0.02096   0.03537   0.00000  Uiso   1.00
H178   H     0.13137   0.04592   0.02330   0.00000  Uiso   1.00
H179   H     0.29916   0.07747   0.28129   0.00000  Uiso   1.00
H180   H     0.29703   0.12175   0.24355   0.00000  Uiso   1.00
H181   H     0.35805   0.12183   0.32630   0.00000  Uiso   1.00
H182   H     0.33840   0.16634   0.29392   0.00000  Uiso   1.00
H183   H     0.25942   0.13922   0.31931   0.00000  Uiso   1.00
H184   H     0.29250   0.16805   0.02610   0.00000  Uiso   1.00
H185   H     0.28923   0.11019   0.02788   0.00000  Uiso   1.00
H186   H     0.34403   0.02606   0.05902   0.00000  Uiso   1.00
H187   H     0.21929   0.06095   0.29231   0.00000  Uiso   1.00
H188   H     0.37718   0.02844   0.10857   0.00000  Uiso   1.00
H189   H     0.39891   0.06232   0.01477   0.00000  Uiso   1.00
H190   H     0.43279   0.07118   0.06372   0.00000  Uiso   1.00
H191   H     0.43552   0.49022   0.07395   0.00000  Uiso   1.00
H192   H     0.46090   0.00797   0.02324   0.00000  Uiso   1.00
H193   H     0.40718   0.48388   0.02096   0.00000  Uiso   1.00
H194   H     0.24449   0.35516   0.24986   0.00000  Uiso   1.00
H195   H     0.23778   0.37627   0.19596   0.00000  Uiso   1.00
H196   H     0.18708   0.29520   0.22421   0.00000  Uiso   1.00
H197   H     0.19811   0.31385   0.16851   0.00000  Uiso   1.00
H198   H     0.36111   0.18671   0.04254   0.00000  Uiso   1.00
H199   H     0.27969   0.30164   0.18464   0.00000  Uiso   1.00
H200   H     0.24629   0.25345   0.18395   0.00000  Uiso   1.00
H201   H     0.26362   0.27729   0.23609   0.00000  Uiso   1.00
H202   H     0.36791   0.46834   0.27608   0.00000  Uiso   1.00
H203   H     0.37927   0.46426   0.21777   0.00000  Uiso   1.00
H204   H     0.42841   0.42069   0.29638   0.00000  Uiso   1.00
H205   H     0.43914   0.40764   0.23843   0.00000  Uiso   1.00
H206   H     0.45728   0.48305   0.22193   0.00000  Uiso   1.00
H207   H     0.49074   0.46106   0.26594   0.00000  Uiso   1.00
H208   H     0.44690   0.49756   0.27976   0.00000  Uiso   1.00
N209   N     0.00000   0.25000   0.28573   0.00000  Uiso   1.00
N210   N     0.00000   0.25000   0.04760   0.00000  Uiso   1.00
N211   N     0.25000   0.00000   0.28573   0.00000  Uiso   1.00
N212   N     0.25000   0.00000   0.04760   0.00000  Uiso   1.00
O213   O     0.04581   0.20419   0.20487   0.00000  Uiso   1.00
O214   O     0.20420   0.04581   0.12846   0.00000  Uiso   1.00
O215   O     0.20420   0.04581   0.20487   0.00000  Uiso   1.00
O216   O     0.29581   0.45419   0.12846   0.00000  Uiso   1.00
O217   O     0.20420   0.45419   0.12846   0.00000  Uiso   1.00
O218   O     0.29581   0.04581   0.20487   0.00000  Uiso   1.00
O219   O     0.29581   0.04581   0.12846   0.00000  Uiso   1.00
O220   O     0.20420   0.45419   0.20487   0.00000  Uiso   1.00
O221   O     0.40337   0.15587   0.08486   0.00000  Uiso   1.00
O222   O     0.10598   0.33708   0.24795   0.00000  Uiso   1.00
O223   O     0.08688   0.34988   0.08531   0.00000  Uiso   1.00
O224   O     0.45420   0.29581   0.12846   0.00000  Uiso   1.00
O225   O     0.42186   0.14237   0.24669   0.00000  Uiso   1.00
O226   O     0.10691   0.16753   0.24720   0.00000  Uiso   1.00
O227   O     0.40714   0.34922   0.08651   0.00000  Uiso   1.00
O228   O     0.39655   0.33494   0.24856   0.00000  Uiso   1.00
O229   O     0.06699   0.12607   0.09399   0.00000  Uiso   1.00
O230   O     0.14393   0.41554   0.08615   0.00000  Uiso   1.00
O231   O     0.35629   0.08570   0.24902   0.00000  Uiso   1.00
O232   O     0.35035   0.08736   0.08462   0.00000  Uiso   1.00
O233   O     0.18287   0.37840   0.23821   0.00000  Uiso   1.00
O234   O     0.35167   0.40969   0.24846   0.00000  Uiso   1.00
O235   O     0.45420   0.29581   0.20487   0.00000  Uiso   1.00
O236   O     0.15728   0.10670   0.08612   0.00000  Uiso   1.00
O237   O     0.15098   0.09090   0.24926   0.00000  Uiso   1.00
O238   O     0.32309   0.38509   0.08827   0.00000  Uiso   1.00
O239   O     0.04581   0.20419   0.12846   0.00000  Uiso   1.00
O240   O     0.45420   0.20419   0.12846   0.00000  Uiso   1.00
O241   O     0.04581   0.29581   0.20487   0.00000  Uiso   1.00
O242   O     0.04581   0.29581   0.12846   0.00000  Uiso   1.00
O243   O     0.45420   0.20419   0.20487   0.00000  Uiso   1.00
O244   O     0.29581   0.45419   0.20487   0.00000  Uiso   1.00
Zn245  Zn    0.00000   0.25000   0.21771   0.00000  Uiso   1.00
Zn246  Zn    0.00000   0.25000   0.11563   0.00000  Uiso   1.00
Zn247  Zn    0.25000   0.00000   0.21771   0.00000  Uiso   1.00
Zn248  Zn    0.25000   0.00000   0.11563   0.00000  Uiso   1.00
C249   C     0.55918   0.18937   0.16697   0.00000  Uiso   1.00
C250   C     0.51848   0.21702   0.30937   0.00000  Uiso   1.00
C251   C     0.51805   0.21675   0.02369   0.00000  Uiso   1.00
C252   C     0.98303   0.28379   0.30973   0.00000  Uiso   1.00
C253   C     0.73286   0.03367   0.02403   0.00000  Uiso   1.00
C254   C     0.76834   0.46699   0.30926   0.00000  Uiso   1.00
C255   C     0.76879   0.46729   0.02360   0.00000  Uiso   1.00
C256   C     0.73259   0.03355   0.30975   0.00000  Uiso   1.00
C257   C     0.89280   0.13790   0.12565   0.00000  Uiso   1.00
C258   C     0.61479   0.35574   0.20711   0.00000  Uiso   1.00
C259   C     0.60585   0.36174   0.12580   0.00000  Uiso   1.00
C260   C     0.93818   0.30824   0.16667   0.00000  Uiso   1.00
C261   C     0.89945   0.13368   0.20713   0.00000  Uiso   1.00
C262   C     0.61179   0.14356   0.20825   0.00000  Uiso   1.00
C263   C     0.88453   0.35446   0.12622   0.00000  Uiso   1.00
C264   C     0.88272   0.35124   0.20783   0.00000  Uiso   1.00
C265   C     0.59616   0.12820   0.12985   0.00000  Uiso   1.00
C266   C     0.63526   0.39538   0.12603   0.00000  Uiso   1.00
C267   C     0.86562   0.10431   0.20815   0.00000  Uiso   1.00
C268   C     0.86417   0.10364   0.12580   0.00000  Uiso   1.00
C269   C     0.65182   0.38110   0.20426   0.00000  Uiso   1.00
C270   C     0.85696   0.38792   0.20810   0.00000  Uiso   1.00
C271   C     0.94125   0.18888   0.16646   0.00000  Uiso   1.00
C272   C     0.63630   0.10763   0.12706   0.00000  Uiso   1.00
C273   C     0.63925   0.10820   0.20846   0.00000  Uiso   1.00
C274   C     0.84739   0.38001   0.12726   0.00000  Uiso   1.00
C275   C     0.59312   0.34352   0.16692   0.00000  Uiso   1.00
C276   C     0.91080   0.15310   0.16630   0.00000  Uiso   1.00
C277   C     0.90086   0.33753   0.16679   0.00000  Uiso   1.00
C278   C     0.58895   0.15327   0.16848   0.00000  Uiso   1.00
C279   C     0.84717   0.08938   0.16716   0.00000  Uiso   1.00
C280   C     0.65869   0.40519   0.16543   0.00000  Uiso   1.00
C281   C     0.65559   0.09273   0.16721   0.00000  Uiso   1.00
C282   C     0.55986   0.31022   0.16688   0.00000  Uiso   1.00
C283   C     0.83759   0.40174   0.16750   0.00000  Uiso   1.00
C284   C     0.87800   0.19315   0.07461   0.00000  Uiso   1.00
C285   C     0.84400   0.20899   0.10953   0.00000  Uiso   1.00
C286   C     0.82220   0.24993   0.09411   0.00000  Uiso   1.00
C287   C     0.56897   0.35674   0.26782   0.00000  Uiso   1.00
C288   C     0.57789   0.40212   0.28571   0.00000  Uiso   1.00
C289   C     0.54688   0.41188   0.32426   0.00000  Uiso   1.00
C290   C     0.60988   0.31474   0.06618   0.00000  Uiso   1.00
C291   C     0.64490   0.33081   0.03441   0.00000  Uiso   1.00
C292   C     0.65846   0.29596   0.00126   0.00000  Uiso   1.00
C293   C     0.80841   0.43857   0.16680   0.00000  Uiso   1.00
C294   C     0.96373   0.12293   0.24464   0.00000  Uiso   1.00
C295   C     0.96718   0.08754   0.27919   0.00000  Uiso   1.00
C296   C     0.98589   0.10418   0.32361   0.00000  Uiso   1.00
C297   C     0.64055   0.19878   0.24963   0.00000  Uiso   1.00
C298   C     0.67111   0.18900   0.28912   0.00000  Uiso   1.00
C299   C     0.71459   0.21206   0.28424   0.00000  Uiso   1.00
C300   C     0.92785   0.38861   0.07502   0.00000  Uiso   1.00
C301   C     0.95779   0.40732   0.11281   0.00000  Uiso   1.00
C302   C     0.50071   0.42436   0.09535   0.00000  Uiso   1.00
C303   C     0.87615   0.29484   0.25608   0.00000  Uiso   1.00
C304   C     0.69017   0.06042   0.16668   0.00000  Uiso   1.00
C305   C     0.83987   0.30082   0.29001   0.00000  Uiso   1.00
C306   C     0.82133   0.25749   0.30375   0.00000  Uiso   1.00
C307   C     0.52619   0.10936   0.10869   0.00000  Uiso   1.00
C308   C     0.52694   0.06003   0.11317   0.00000  Uiso   1.00
C309   C     0.99082   0.04389   0.14381   0.00000  Uiso   1.00
C310   C     0.61729   0.45234   0.08304   0.00000  Uiso   1.00
C311   C     0.63561   0.48053   0.04647   0.00000  Uiso   1.00
C312   C     0.61365   0.02421   0.04608   0.00000  Uiso   1.00
C313   C     0.81847   0.10444   0.26800   0.00000  Uiso   1.00
C314   C     0.82959   0.13436   0.30724   0.00000  Uiso   1.00
C315   C     0.69043   0.43968   0.16629   0.00000  Uiso   1.00
C316   C     0.79043   0.13837   0.00536   0.00000  Uiso   1.00
C317   C     0.86873   0.04601   0.07711   0.00000  Uiso   1.00
C318   C     0.90877   0.04918   0.04765   0.00000  Uiso   1.00
C319   C     0.92935   0.00501   0.04089   0.00000  Uiso   1.00
C320   C     0.72088   0.35714   0.22182   0.00000  Uiso   1.00
C321   C     0.71163   0.31152   0.20314   0.00000  Uiso   1.00
C322   C     0.75296   0.28436   0.20160   0.00000  Uiso   1.00
C323   C     0.87993   0.44584   0.24972   0.00000  Uiso   1.00
C324   C     0.92697   0.43304   0.26152   0.00000  Uiso   1.00
C325   C     0.95730   0.47128   0.25701   0.00000  Uiso   1.00
C326   C     0.81116   0.05890   0.16692   0.00000  Uiso   1.00
C327   C     0.69169   0.13744   0.08647   0.00000  Uiso   1.00
C328   C     0.67587   0.18432   0.09309   0.00000  Uiso   1.00
C329   C     0.71374   0.21588   0.09107   0.00000  Uiso   1.00
C330   C     0.62814   0.05180   0.25476   0.00000  Uiso   1.00
C331   C     0.58237   0.05953   0.27277   0.00000  Uiso   1.00
C332   C     0.55995   0.01635   0.27829   0.00000  Uiso   1.00
C333   C     0.78144   0.36556   0.09346   0.00000  Uiso   1.00
C334   C     0.77205   0.33526   0.05411   0.00000  Uiso   1.00
C335   C     0.75874   0.35868   0.01177   0.00000  Uiso   1.00
C336   C     0.98301   0.28373   0.02405   0.00000  Uiso   1.00
H337   H     0.96973   0.31089   0.04199   0.00000  Uiso   1.00
H338   H     0.90082   0.21995   0.06749   0.00000  Uiso   1.00
H339   H     0.70795   0.13542   0.05340   0.00000  Uiso   1.00
H340   H     0.71695   0.12940   0.11210   0.00000  Uiso   1.00
H341   H     0.65113   0.19240   0.06709   0.00000  Uiso   1.00
H342   H     0.66088   0.18857   0.12657   0.00000  Uiso   1.00
H343   H     0.73847   0.20774   0.11702   0.00000  Uiso   1.00
H344   H     0.70175   0.24910   0.09754   0.00000  Uiso   1.00
H345   H     0.72911   0.21462   0.05764   0.00000  Uiso   1.00
H346   H     0.64671   0.03210   0.27917   0.00000  Uiso   1.00
H347   H     0.62592   0.03187   0.22344   0.00000  Uiso   1.00
H348   H     0.58426   0.07697   0.30536   0.00000  Uiso   1.00
H349   H     0.81856   0.18402   0.11444   0.00000  Uiso   1.00
H350   H     0.56308   0.07941   0.24901   0.00000  Uiso   1.00
H351   H     0.54788   0.00473   0.24512   0.00000  Uiso   1.00
H352   H     0.53273   0.01894   0.30242   0.00000  Uiso   1.00
H353   H     0.58343   0.49257   0.29156   0.00000  Uiso   1.00
H354   H     0.75566   0.39063   0.09510   0.00000  Uiso   1.00
H355   H     0.77819   0.34623   0.12456   0.00000  Uiso   1.00
H356   H     0.80189   0.31687   0.04648   0.00000  Uiso   1.00
H357   H     0.74585   0.31236   0.06333   0.00000  Uiso   1.00
H358   H     0.73099   0.38094   0.01789   0.00000  Uiso   1.00
H359   H     0.74865   0.33421   0.32001   0.00000  Uiso   1.00
H360   H     0.85984   0.21659   0.14219   0.00000  Uiso   1.00
H361   H     0.78708   0.37644   0.33172   0.00000  Uiso   1.00
H362   H     0.79966   0.26192   0.12022   0.00000  Uiso   1.00
H363   H     0.80315   0.24328   0.06318   0.00000  Uiso   1.00
H364   H     0.84730   0.27490   0.08800   0.00000  Uiso   1.00
H365   H     0.55909   0.33548   0.29572   0.00000  Uiso   1.00
H366   H     0.54032   0.35912   0.24485   0.00000  Uiso   1.00
H367   H     0.61221   0.40555   0.29718   0.00000  Uiso   1.00
H368   H     0.57232   0.42535   0.25816   0.00000  Uiso   1.00
H369   H     0.53420   0.19095   0.29166   0.00000  Uiso   1.00
H370   H     0.51248   0.40593   0.31405   0.00000  Uiso   1.00
H371   H     0.54999   0.44557   0.00267   0.00000  Uiso   1.00
H372   H     0.55502   0.39033   0.01900   0.00000  Uiso   1.00
H373   H     0.58565   0.29534   0.04684   0.00000  Uiso   1.00
H374   H     0.62470   0.29263   0.09144   0.00000  Uiso   1.00
H375   H     0.63228   0.35864   0.01557   0.00000  Uiso   1.00
H376   H     0.67371   0.34148   0.05425   0.00000  Uiso   1.00
H377   H     0.67712   0.27056   0.01893   0.00000  Uiso   1.00
H378   H     0.67908   0.31037   0.30836   0.00000  Uiso   1.00
H379   H     0.62946   0.28152   0.31779   0.00000  Uiso   1.00
H380   H     0.53257   0.18998   0.04125   0.00000  Uiso   1.00
H381   H     0.98895   0.14769   0.25111   0.00000  Uiso   1.00
H382   H     0.97231   0.10916   0.21119   0.00000  Uiso   1.00
H383   H     0.93478   0.07280   0.28434   0.00000  Uiso   1.00
H384   H     0.98841   0.06214   0.26542   0.00000  Uiso   1.00
H385   H     0.51789   0.11996   0.31853   0.00000  Uiso   1.00
H386   H     0.99151   0.07682   0.01303   0.00000  Uiso   1.00
H387   H     0.96295   0.12745   0.00603   0.00000  Uiso   1.00
H388   H     0.62518   0.23074   0.25541   0.00000  Uiso   1.00
H389   H     0.65985   0.20213   0.21806   0.00000  Uiso   1.00
H390   H     0.65520   0.19922   0.32080   0.00000  Uiso   1.00
H391   H     0.96995   0.31131   0.29224   0.00000  Uiso   1.00
H392   H     0.67773   0.15403   0.29135   0.00000  Uiso   1.00
H393   H     0.73317   0.19823   0.25564   0.00000  Uiso   1.00
H394   H     0.73416   0.20860   0.31523   0.00000  Uiso   1.00
H395   H     0.70925   0.24672   0.27875   0.00000  Uiso   1.00
H396   H     0.90311   0.41302   0.06505   0.00000  Uiso   1.00
H397   H     0.94734   0.38246   0.04436   0.00000  Uiso   1.00
H398   H     0.94020   0.43338   0.13105   0.00000  Uiso   1.00
H399   H     0.96680   0.38253   0.13756   0.00000  Uiso   1.00
H400   H     0.52024   0.39668   0.08357   0.00000  Uiso   1.00
H401   H     0.51900   0.44057   0.12299   0.00000  Uiso   1.00
H402   H     0.71889   0.06057   0.04190   0.00000  Uiso   1.00
H403   H     0.99577   0.44713   0.06744   0.00000  Uiso   1.00
H404   H     0.90086   0.27258   0.27038   0.00000  Uiso   1.00
H405   H     0.86305   0.27866   0.22511   0.00000  Uiso   1.00
H406   H     0.85293   0.31788   0.32018   0.00000  Uiso   1.00
H407   H     0.81385   0.32094   0.27486   0.00000  Uiso   1.00
H408   H     0.81419   0.23695   0.27393   0.00000  Uiso   1.00
H409   H     0.79061   0.26250   0.32243   0.00000  Uiso   1.00
H410   H     0.84533   0.24068   0.32534   0.00000  Uiso   1.00
H411   H     0.50088   0.11812   0.08362   0.00000  Uiso   1.00
H412   H     0.51471   0.12419   0.14053   0.00000  Uiso   1.00
H413   H     0.78296   0.44045   0.29125   0.00000  Uiso   1.00
H414   H     0.52274   0.04507   0.07951   0.00000  Uiso   1.00
H415   H     0.55849   0.04918   0.12769   0.00000  Uiso   1.00
H416   H     0.50064   0.04874   0.17938   0.00000  Uiso   1.00
H417   H     0.98576   0.00894   0.13831   0.00000  Uiso   1.00
H418   H     0.95952   0.06083   0.13735   0.00000  Uiso   1.00
H419   H     0.61672   0.47121   0.11516   0.00000  Uiso   1.00
H420   H     0.58358   0.44299   0.07400   0.00000  Uiso   1.00
H421   H     0.67056   0.48514   0.05354   0.00000  Uiso   1.00
H422   H     0.63226   0.46450   0.01324   0.00000  Uiso   1.00
H423   H     0.61479   0.03831   0.08010   0.00000  Uiso   1.00
H424   H     0.78465   0.44157   0.04119   0.00000  Uiso   1.00
H425   H     0.57917   0.02096   0.03537   0.00000  Uiso   1.00
H426   H     0.63137   0.04592   0.02330   0.00000  Uiso   1.00
H427   H     0.79916   0.07747   0.28129   0.00000  Uiso   1.00
H428   H     0.79703   0.12175   0.24355   0.00000  Uiso   1.00
H429   H     0.85805   0.12183   0.32630   0.00000  Uiso   1.00
H430   H     0.83840   0.16634   0.29392   0.00000  Uiso   1.00
H431   H     0.75942   0.13922   0.31931   0.00000  Uiso   1.00
H432   H     0.79250   0.16805   0.02610   0.00000  Uiso   1.00
H433   H     0.78923   0.11019   0.02788   0.00000  Uiso   1.00
H434   H     0.84403   0.02606   0.05902   0.00000  Uiso   1.00
H435   H     0.71929   0.06095   0.29231   0.00000  Uiso   1.00
H436   H     0.87718   0.02844   0.10857   0.00000  Uiso   1.00
H437   H     0.89891   0.06232   0.01477   0.00000  Uiso   1.00
H438   H     0.93279   0.07118   0.06372   0.00000  Uiso   1.00
H439   H     0.93552   0.49022   0.07395   0.00000  Uiso   1.00
H440   H     0.96090   0.00797   0.02324   0.00000  Uiso   1.00
H441   H     0.90718   0.48388   0.02096   0.00000  Uiso   1.00
H442   H     0.74449   0.35516   0.24986   0.00000  Uiso   1.00
H443   H     0.73778   0.37627   0.19596   0.00000  Uiso   1.00
H444   H     0.68708   0.29520   0.22421   0.00000  Uiso   1.00
H445   H     0.69811   0.31385   0.16851   0.00000  Uiso   1.00
H446   H     0.86111   0.18671   0.04254   0.00000  Uiso   1.00
H447   H     0.77969   0.30164   0.18464   0.00000  Uiso   1.00
H448   H     0.74629   0.25345   0.18395   0.00000  Uiso   1.00
H449   H     0.76362   0.27729   0.23609   0.00000  Uiso   1.00
H450   H     0.86791   0.46834   0.27608   0.00000  Uiso   1.00
H451   H     0.87927   0.46426   0.21777   0.00000  Uiso   1.00
H452   H     0.92841   0.42069   0.29638   0.00000  Uiso   1.00
H453   H     0.93914   0.40764   0.23843   0.00000  Uiso   1.00
H454   H     0.95728   0.48305   0.22193   0.00000  Uiso   1.00
H455   H     0.99074   0.46106   0.26594   0.00000  Uiso   1.00
H456   H     0.94690   0.49756   0.27976   0.00000  Uiso   1.00
N457   N     0.50000   0.25000   0.28573   0.00000  Uiso   1.00
N458   N     0.50000   0.25000   0.04760   0.00000  Uiso   1.00
N459   N     0.75000   0.00000   0.28573   0.00000  Uiso   1.00
N460   N     0.75000   0.00000   0.04760   0.00000  Uiso   1.00
O461   O     0.54581   0.20419   0.20487   0.00000  Uiso   1.00
O462   O     0.70420   0.04581   0.12846   0.00000  Uiso   1.00
O463   O     0.70420   0.04581   0.20487   0.00000  Uiso   1.00
O464   O     0.79581   0.45419   0.12846   0.00000  Uiso   1.00
O465   O     0.70420   0.45419   0.12846   0.00000  Uiso   1.00
O466   O     0.79581   0.04581   0.20487   0.00000  Uiso   1.00
O467   O     0.79581   0.04581   0.12846   0.00000  Uiso   1.00
O468   O     0.70420   0.45419   0.20487   0.00000  Uiso   1.00
O469   O     0.90337   0.15587   0.08486   0.00000  Uiso   1.00
O470   O     0.60598   0.33708   0.24795   0.00000  Uiso   1.00
O471   O     0.58688   0.34988   0.08531   0.00000  Uiso   1.00
O472   O     0.95420   0.29581   0.12846   0.00000  Uiso   1.00
O473   O     0.92186   0.14237   0.24669   0.00000  Uiso   1.00
O474   O     0.60691   0.16753   0.24720   0.00000  Uiso   1.00
O475   O     0.90714   0.34922   0.08651   0.00000  Uiso   1.00
O476   O     0.89655   0.33494   0.24856   0.00000  Uiso   1.00
O477   O     0.56699   0.12607   0.09399   0.00000  Uiso   1.00
O478   O     0.64393   0.41554   0.08615   0.00000  Uiso   1.00
O479   O     0.85629   0.08570   0.24902   0.00000  Uiso   1.00
O480   O     0.85035   0.08736   0.08462   0.00000  Uiso   1.00
O481   O     0.68287   0.37840   0.23821   0.00000  Uiso   1.00
O482   O     0.85167   0.40969   0.24846   0.00000  Uiso   1.00
O483   O     0.95420   0.29581   0.20487   0.00000  Uiso   1.00
O484   O     0.65728   0.10670   0.08612   0.00000  Uiso   1.00
O485   O     0.65098   0.09090   0.24926   0.00000  Uiso   1.00
O486   O     0.82309   0.38509   0.08827   0.00000  Uiso   1.00
O487   O     0.54581   0.20419   0.12846   0.00000  Uiso   1.00
O488   O     0.95420   0.20419   0.12846   0.00000  Uiso   1.00
O489   O     0.54581   0.29581   0.20487   0.00000  Uiso   1.00
O490   O     0.54581   0.29581   0.12846   0.00000  Uiso   1.00
O491   O     0.95420   0.20419   0.20487   0.00000  Uiso   1.00
O492   O     0.79581   0.45419   0.20487   0.00000  Uiso   1.00
Zn493  Zn    0.50000   0.25000   0.21771   0.00000  Uiso   1.00
Zn494  Zn    0.50000   0.25000   0.11563   0.00000  Uiso   1.00
Zn495  Zn    0.75000   0.00000   0.21771   0.00000  Uiso   1.00
Zn496  Zn    0.75000   0.00000   0.11563   0.00000  Uiso   1.00
C497   C     0.05918   0.68937   0.16697   0.00000  Uiso   1.00
C498   C     0.01848   0.71702   0.30937   0.00000  Uiso   1.00
C499   C     0.01805   0.71675   0.02369   0.00000  Uiso   1.00
C500   C     0.48303   0.78379   0.30973   0.00000  Uiso   1.00
C501   C     0.23286   0.53367   0.02403   0.00000  Uiso   1.00
C502   C     0.26834   0.96699   0.30926   0.00000  Uiso   1.00
C503   C     0.26879   0.96729   0.02360   0.00000  Uiso   1.00
C504   C     0.23259   0.53355   0.30975   0.00000  Uiso   1.00
C505   C     0.39280   0.63790   0.12565   0.00000  Uiso   1.00
C506   C     0.11479   0.85574   0.20711   0.00000  Uiso   1.00
C507   C     0.10585   0.86174   0.12580   0.00000  Uiso   1.00
C508   C     0.43818   0.80824   0.16667   0.00000  Uiso   1.00
C509   C     0.39945   0.63368   0.20713   0.00000  Uiso   1.00
C510   C     0.11179   0.64356   0.20825   0.00000  Uiso   1.00
C511   C     0.38453   0.85446   0.12622   0.00000  Uiso   1.00
C512   C     0.38272   0.85124   0.20783   0.00000  Uiso   1.00
C513   C     0.09616   0.62820   0.12985   0.00000  Uiso   1.00
C514   C     0.13526   0.89538   0.12603   0.00000  Uiso   1.00
C515   C     0.36562   0.60431   0.20815   0.00000  Uiso   1.00
C516   C     0.36417   0.60364   0.12580   0.00000  Uiso   1.00
C517   C     0.15182   0.88110   0.20426   0.00000  Uiso   1.00
C518   C     0.35696   0.88792   0.20810   0.00000  Uiso   1.00
C519   C     0.44125   0.68888   0.16646   0.00000  Uiso   1.00
C520   C     0.13630   0.60763   0.12706   0.00000  Uiso   1.00
C521   C     0.13925   0.60820   0.20846   0.00000  Uiso   1.00
C522   C     0.34739   0.88001   0.12726   0.00000  Uiso   1.00
C523   C     0.09312   0.84352   0.16692   0.00000  Uiso   1.00
C524   C     0.41080   0.65310   0.16630   0.00000  Uiso   1.00
C525   C     0.40086   0.83753   0.16679   0.00000  Uiso   1.00
C526   C     0.08895   0.65327   0.16848   0.00000  Uiso   1.00
C527   C     0.34717   0.58938   0.16716   0.00000  Uiso   1.00
C528   C     0.15869   0.90519   0.16543   0.00000  Uiso   1.00
C529   C     0.15559   0.59273   0.16721   0.00000  Uiso   1.00
C530   C     0.05986   0.81022   0.16688   0.00000  Uiso   1.00
C531   C     0.33759   0.90174   0.16750   0.00000  Uiso   1.00
C532   C     0.37800   0.69315   0.07461   0.00000  Uiso   1.00
C533   C     0.34400   0.70899   0.10953   0.00000  Uiso   1.00
C534   C     0.32220   0.74993   0.09411   0.00000  Uiso   1.00
C535   C     0.06897   0.85674   0.26782   0.00000  Uiso   1.00
C536   C     0.07789   0.90212   0.28571   0.00000  Uiso   1.00
C537   C     0.04688   0.91188   0.32426   0.00000  Uiso   1.00
C538   C     0.10988   0.81474   0.06618   0.00000  Uiso   1.00
C539   C     0.14490   0.83081   0.03441   0.00000  Uiso   1.00
C540   C     0.15846   0.79596   0.00126   0.00000  Uiso   1.00
C541   C     0.30841   0.93857   0.16680   0.00000  Uiso   1.00
C542   C     0.46373   0.62293   0.24464   0.00000  Uiso   1.00
C543   C     0.46718   0.58754   0.27919   0.00000  Uiso   1.00
C544   C     0.48589   0.60418   0.32361   0.00000  Uiso   1.00
C545   C     0.14055   0.69878   0.24963   0.00000  Uiso   1.00
C546   C     0.17111   0.68900   0.28912   0.00000  Uiso   1.00
C547   C     0.21459   0.71206   0.28424   0.00000  Uiso   1.00
C548   C     0.42785   0.88861   0.07502   0.00000  Uiso   1.00
C549   C     0.45779   0.90732   0.11281   0.00000  Uiso   1.00
C550   C     0.00071   0.92436   0.09535   0.00000  Uiso   1.00
C551   C     0.37615   0.79484   0.25608   0.00000  Uiso   1.00
C552   C     0.19017   0.56042   0.16668   0.00000  Uiso   1.00
C553   C     0.33987   0.80082   0.29001   0.00000  Uiso   1.00
C554   C     0.32133   0.75749   0.30375   0.00000  Uiso   1.00
C555   C     0.02619   0.60936   0.10869   0.00000  Uiso   1.00
C556   C     0.02694   0.56003   0.11317   0.00000  Uiso   1.00
C557   C     0.49082   0.54389   0.14381   0.00000  Uiso   1.00
C558   C     0.11729   0.95234   0.08304   0.00000  Uiso   1.00
C559   C     0.13561   0.98053   0.04647   0.00000  Uiso   1.00
C560   C     0.11365   0.52421   0.04608   0.00000  Uiso   1.00
C561   C     0.31847   0.60444   0.26800   0.00000  Uiso   1.00
C562   C     0.32959   0.63436   0.30724   0.00000  Uiso   1.00
C563   C     0.19043   0.93968   0.16629   0.00000  Uiso   1.00
C564   C     0.29043   0.63837   0.00536   0.00000  Uiso   1.00
C565   C     0.36873   0.54601   0.07711   0.00000  Uiso   1.00
C566   C     0.40877   0.54918   0.04765   0.00000  Uiso   1.00
C567   C     0.42935   0.50501   0.04089   0.00000  Uiso   1.00
C568   C     0.22088   0.85714   0.22182   0.00000  Uiso   1.00
C569   C     0.21163   0.81152   0.20314   0.00000  Uiso   1.00
C570   C     0.25296   0.78436   0.20160   0.00000  Uiso   1.00
C571   C     0.37993   0.94584   0.24972   0.00000  Uiso   1.00
C572   C     0.42697   0.93304   0.26152   0.00000  Uiso   1.00
C573   C     0.45730   0.97128   0.25701   0.00000  Uiso   1.00
C574   C     0.31116   0.55890   0.16692   0.00000  Uiso   1.00
C575   C     0.19169   0.63744   0.08647   0.00000  Uiso   1.00
C576   C     0.17587   0.68432   0.09309   0.00000  Uiso   1.00
C577   C     0.21374   0.71588   0.09107   0.00000  Uiso   1.00
C578   C     0.12814   0.55180   0.25476   0.00000  Uiso   1.00
C579   C     0.08237   0.55953   0.27277   0.00000  Uiso   1.00
C580   C     0.05995   0.51635   0.27829   0.00000  Uiso   1.00
C581   C     0.28144   0.86556   0.09346   0.00000  Uiso   1.00
C582   C     0.27205   0.83526   0.05411   0.00000  Uiso   1.00
C583   C     0.25874   0.85868   0.01177   0.00000  Uiso   1.00
C584   C     0.48301   0.78373   0.02405   0.00000  Uiso   1.00
H585   H     0.46973   0.81089   0.04199   0.00000  Uiso   1.00
H586   H     0.40082   0.71995   0.06749   0.00000  Uiso   1.00
H587   H     0.20795   0.63542   0.05340   0.00000  Uiso   1.00
H588   H     0.21695   0.62940   0.11210   0.00000  Uiso   1.00
H589   H     0.15113   0.69240   0.06709   0.00000  Uiso   1.00
H590   H     0.16088   0.68857   0.12657   0.00000  Uiso   1.00
H591   H     0.23847   0.70774   0.11702   0.00000  Uiso   1.00
H592   H     0.20175   0.74910   0.09754   0.00000  Uiso   1.00
H593   H     0.22911   0.71462   0.05764   0.00000  Uiso   1.00
H594   H     0.14671   0.53210   0.27917   0.00000  Uiso   1.00
H595   H     0.12592   0.53187   0.22344   0.00000  Uiso   1.00
H596   H     0.08426   0.57697   0.30536   0.00000  Uiso   1.00
H597   H     0.31856   0.68402   0.11444   0.00000  Uiso   1.00
H598   H     0.06308   0.57941   0.24901   0.00000  Uiso   1.00
H599   H     0.04788   0.50473   0.24512   0.00000  Uiso   1.00
H600   H     0.03273   0.51894   0.30242   0.00000  Uiso   1.00
H601   H     0.08343   0.99257   0.29156   0.00000  Uiso   1.00
H602   H     0.25566   0.89063   0.09510   0.00000  Uiso   1.00
H603   H     0.27819   0.84623   0.12456   0.00000  Uiso   1.00
H604   H     0.30189   0.81687   0.04648   0.00000  Uiso   1.00
H605   H     0.24585   0.81236   0.06333   0.00000  Uiso   1.00
H606   H     0.23099   0.88094   0.01789   0.00000  Uiso   1.00
H607   H     0.24865   0.83421   0.32001   0.00000  Uiso   1.00
H608   H     0.35984   0.71659   0.14219   0.00000  Uiso   1.00
H609   H     0.28708   0.87644   0.33172   0.00000  Uiso   1.00
H610   H     0.29966   0.76192   0.12022   0.00000  Uiso   1.00
H611   H     0.30315   0.74328   0.06318   0.00000  Uiso   1.00
H612   H     0.34730   0.77490   0.08800   0.00000  Uiso   1.00
H613   H     0.05909   0.83548   0.29572   0.00000  Uiso   1.00
H614   H     0.04032   0.85912   0.24485   0.00000  Uiso   1.00
H615   H     0.11221   0.90555   0.29718   0.00000  Uiso   1.00
H616   H     0.07232   0.92535   0.25816   0.00000  Uiso   1.00
H617   H     0.03420   0.69095   0.29166   0.00000  Uiso   1.00
H618   H     0.01248   0.90593   0.31405   0.00000  Uiso   1.00
H619   H     0.04999   0.94557   0.00267   0.00000  Uiso   1.00
H620   H     0.05502   0.89033   0.01900   0.00000  Uiso   1.00
H621   H     0.08565   0.79534   0.04684   0.00000  Uiso   1.00
H622   H     0.12470   0.79263   0.09144   0.00000  Uiso   1.00
H623   H     0.13228   0.85864   0.01557   0.00000  Uiso   1.00
H624   H     0.17371   0.84148   0.05425   0.00000  Uiso   1.00
H625   H     0.17712   0.77056   0.01893   0.00000  Uiso   1.00
H626   H     0.17908   0.81037   0.30836   0.00000  Uiso   1.00
H627   H     0.12946   0.78152   0.31779   0.00000  Uiso   1.00
H628   H     0.03257   0.68998   0.04125   0.00000  Uiso   1.00
H629   H     0.48895   0.64769   0.25111   0.00000  Uiso   1.00
H630   H     0.47231   0.60916   0.21119   0.00000  Uiso   1.00
H631   H     0.43478   0.57280   0.28434   0.00000  Uiso   1.00
H632   H     0.48841   0.56214   0.26542   0.00000  Uiso   1.00
H633   H     0.01789   0.61996   0.31853   0.00000  Uiso   1.00
H634   H     0.49151   0.57682   0.01303   0.00000  Uiso   1.00
H635   H     0.46295   0.62745   0.00603   0.00000  Uiso   1.00
H636   H     0.12518   0.73074   0.25541   0.00000  Uiso   1.00
H637   H     0.15985   0.70213   0.21806   0.00000  Uiso   1.00
H638   H     0.15520   0.69922   0.32080   0.00000  Uiso   1.00
H639   H     0.46995   0.81131   0.29224   0.00000  Uiso   1.00
H640   H     0.17773   0.65403   0.29135   0.00000  Uiso   1.00
H641   H     0.23317   0.69823   0.25564   0.00000  Uiso   1.00
H642   H     0.23416   0.70860   0.31523   0.00000  Uiso   1.00
H643   H     0.20925   0.74672   0.27875   0.00000  Uiso   1.00
H644   H     0.40311   0.91302   0.06505   0.00000  Uiso   1.00
H645   H     0.44734   0.88246   0.04436   0.00000  Uiso   1.00
H646   H     0.44020   0.93338   0.13105   0.00000  Uiso   1.00
H647   H     0.46680   0.88253   0.13756   0.00000  Uiso   1.00
H648   H     0.02024   0.89668   0.08357   0.00000  Uiso   1.00
H649   H     0.01900   0.94057   0.12299   0.00000  Uiso   1.00
H650   H     0.21889   0.56057   0.04190   0.00000  Uiso   1.00
H651   H     0.49577   0.94713   0.06744   0.00000  Uiso   1.00
H652   H     0.40086   0.77258   0.27038   0.00000  Uiso   1.00
H653   H     0.36305   0.77866   0.22511   0.00000  Uiso   1.00
H654   H     0.35293   0.81788   0.32018   0.00000  Uiso   1.00
H655   H     0.31385   0.82094   0.27486   0.00000  Uiso   1.00
H656   H     0.31419   0.73695   0.27393   0.00000  Uiso   1.00
H657   H     0.29061   0.76250   0.32243   0.00000  Uiso   1.00
H658   H     0.34533   0.74068   0.32534   0.00000  Uiso   1.00
H659   H     0.00088   0.61812   0.08362   0.00000  Uiso   1.00
H660   H     0.01471   0.62419   0.14053   0.00000  Uiso   1.00
H661   H     0.28296   0.94045   0.29125   0.00000  Uiso   1.00
H662   H     0.02274   0.54507   0.07951   0.00000  Uiso   1.00
H663   H     0.05849   0.54918   0.12769   0.00000  Uiso   1.00
H664   H     0.00064   0.54874   0.17938   0.00000  Uiso   1.00
H665   H     0.48576   0.50894   0.13831   0.00000  Uiso   1.00
H666   H     0.45952   0.56083   0.13735   0.00000  Uiso   1.00
H667   H     0.11672   0.97121   0.11516   0.00000  Uiso   1.00
H668   H     0.08358   0.94299   0.07400   0.00000  Uiso   1.00
H669   H     0.17056   0.98514   0.05354   0.00000  Uiso   1.00
H670   H     0.13226   0.96450   0.01324   0.00000  Uiso   1.00
H671   H     0.11479   0.53831   0.08010   0.00000  Uiso   1.00
H672   H     0.28465   0.94157   0.04119   0.00000  Uiso   1.00
H673   H     0.07917   0.52096   0.03537   0.00000  Uiso   1.00
H674   H     0.13137   0.54592   0.02330   0.00000  Uiso   1.00
H675   H     0.29916   0.57747   0.28129   0.00000  Uiso   1.00
H676   H     0.29703   0.62175   0.24355   0.00000  Uiso   1.00
H677   H     0.35805   0.62183   0.32630   0.00000  Uiso   1.00
H678   H     0.33840   0.66634   0.29392   0.00000  Uiso   1.00
H679   H     0.25942   0.63922   0.31931   0.00000  Uiso   1.00
H680   H     0.29250   0.66805   0.02610   0.00000  Uiso   1.00
H681   H     0.28923   0.61019   0.02788   0.00000  Uiso   1.00
H682   H     0.34403   0.52606   0.05902   0.00000  Uiso   1.00
H683   H     0.21929   0.56095   0.29231   0.00000  Uiso   1.00
H684   H     0.37718   0.52844   0.10857   0.00000  Uiso   1.00
H685   H     0.39891   0.56232   0.01477   0.00000  Uiso   1.00
H686   H     0.43279   0.57118   0.06372   0.00000  Uiso   1.00
H687   H     0.43552   0.99022   0.07395   0.00000  Uiso   1.00
H688   H     0.46090   0.50797   0.02324   0.00000  Uiso   1.00
H689   H     0.40718   0.98388   0.02096   0.00000  Uiso   1.00
H690   H     0.24449   0.85516   0.24986   0.00000  Uiso   1.00
H691   H     0.23778   0.87627   0.19596   0.00000  Uiso   1.00
H692   H     0.18708   0.79520   0.22421   0.00000  Uiso   1.00
H693   H     0.19811   0.81385   0.16851   0.00000  Uiso   1.00
H694   H     0.36111   0.68671   0.04254   0.00000  Uiso   1.00
H695   H     0.27969   0.80164   0.18464   0.00000  Uiso   1.00
H696   H     0.24629   0.75345   0.18395   0.00000  Uiso   1.00
H697   H     0.26362   0.77729   0.23609   0.00000  Uiso   1.00
H698   H     0.36791   0.96834   0.27608   0.00000  Uiso   1.00
H699   H     0.37927   0.96426   0.21777   0.00000  Uiso   1.00
H700   H     0.42841   0.92069   0.29638   0.00000  Uiso   1.00
H701   H     0.43914   0.90764   0.23843   0.00000  Uiso   1.00
H702   H     0.45728   0.98305   0.22193   0.00000  Uiso   1.00
H703   H     0.49074   0.96106   0.26594   0.00000  Uiso   1.00
H704   H     0.44690   0.99756   0.27976   0.00000  Uiso   1.00
N705   N     0.00000   0.75000   0.28573   0.00000  Uiso   1.00
N706   N     0.00000   0.75000   0.04760   0.00000  Uiso   1.00
N707   N     0.25000   0.50000   0.28573   0.00000  Uiso   1.00
N708   N     0.25000   0.50000   0.04760   0.00000  Uiso   1.00
O709   O     0.04581   0.70419   0.20487   0.00000  Uiso   1.00
O710   O     0.20420   0.54581   0.12846   0.00000  Uiso   1.00
O711   O     0.20420   0.54581   0.20487   0.00000  Uiso   1.00
O712   O     0.29581   0.95419   0.12846   0.00000  Uiso   1.00
O713   O     0.20420   0.95419   0.12846   0.00000  Uiso   1.00
O714   O     0.29581   0.54581   0.20487   0.00000  Uiso   1.00
O715   O     0.29581   0.54581   0.12846   0.00000  Uiso   1.00
O716   O     0.20420   0.95419   0.20487   0.00000  Uiso   1.00
O717   O     0.40337   0.65587   0.08486   0.00000  Uiso   1.00
O718   O     0.10598   0.83708   0.24795   0.00000  Uiso   1.00
O719   O     0.08688   0.84988   0.08531   0.00000  Uiso   1.00
O720   O     0.45420   0.79581   0.12846   0.00000  Uiso   1.00
O721   O     0.42186   0.64237   0.24669   0.00000  Uiso   1.00
O722   O     0.10691   0.66753   0.24720   0.00000  Uiso   1.00
O723   O     0.40714   0.84922   0.08651   0.00000  Uiso   1.00
O724   O     0.39655   0.83494   0.24856   0.00000  Uiso   1.00
O725   O     0.06699   0.62607   0.09399   0.00000  Uiso   1.00
O726   O     0.14393   0.91554   0.08615   0.00000  Uiso   1.00
O727   O     0.35629   0.58570   0.24902   0.00000  Uiso   1.00
O728   O     0.35035   0.58736   0.08462   0.00000  Uiso   1.00
O729   O     0.18287   0.87840   0.23821   0.00000  Uiso   1.00
O730   O     0.35167   0.90969   0.24846   0.00000  Uiso   1.00
O731   O     0.45420   0.79581   0.20487   0.00000  Uiso   1.00
O732   O     0.15728   0.60670   0.08612   0.00000  Uiso   1.00
O733   O     0.15098   0.59090   0.24926   0.00000  Uiso   1.00
O734   O     0.32309   0.88509   0.08827   0.00000  Uiso   1.00
O735   O     0.04581   0.70419   0.12846   0.00000  Uiso   1.00
O736   O     0.45420   0.70419   0.12846   0.00000  Uiso   1.00
O737   O     0.04581   0.79581   0.20487   0.00000  Uiso   1.00
O738   O     0.04581   0.79581   0.12846   0.00000  Uiso   1.00
O739   O     0.45420   0.70419   0.20487   0.00000  Uiso   1.00
O740   O     0.29581   0.95419   0.20487   0.00000  Uiso   1.00
Zn741  Zn    0.00000   0.75000   0.21771   0.00000  Uiso   1.00
Zn742  Zn    0.00000   0.75000   0.11563   0.00000  Uiso   1.00
Zn743  Zn    0.25000   0.50000   0.21771   0.00000  Uiso   1.00
Zn744  Zn    0.25000   0.50000   0.11563   0.00000  Uiso   1.00
C745   C     0.55918   0.68937   0.16697   0.00000  Uiso   1.00
C746   C     0.51848   0.71702   0.30937   0.00000  Uiso   1.00
C747   C     0.51805   0.71675   0.02369   0.00000  Uiso   1.00
C748   C     0.98303   0.78379   0.30973   0.00000  Uiso   1.00
C749   C     0.73286   0.53367   0.02403   0.00000  Uiso   1.00
C750   C     0.76834   0.96699   0.30926   0.00000  Uiso   1.00
C751   C     0.76879   0.96729   0.02360   0.00000  Uiso   1.00
C752   C     0.73259   0.53355   0.30975   0.00000  Uiso   1.00
C753   C     0.89280   0.63790   0.12565   0.00000  Uiso   1.00
C754   C     0.61479   0.85574   0.20711   0.00000  Uiso   1.00
C755   C     0.60585   0.86174   0.12580   0.00000  Uiso   1.00
C756   C     0.93818   0.80824   0.16667   0.00000  Uiso   1.00
C757   C     0.89945   0.63368   0.20713   0.00000  Uiso   1.00
C758   C     0.61179   0.64356   0.20825   0.00000  Uiso   1.00
C759   C     0.88453   0.85446   0.12622   0.00000  Uiso   1.00
C760   C     0.88272   0.85124   0.20783   0.00000  Uiso   1.00
C761   C     0.59616   0.62820   0.12985   0.00000  Uiso   1.00
C762   C     0.63526   0.89538   0.12603   0.00000  Uiso   1.00
C763   C     0.86562   0.60431   0.20815   0.00000  Uiso   1.00
C764   C     0.86417   0.60364   0.12580   0.00000  Uiso   1.00
C765   C     0.65182   0.88110   0.20426   0.00000  Uiso   1.00
C766   C     0.85696   0.88792   0.20810   0.00000  Uiso   1.00
C767   C     0.94125   0.68888   0.16646   0.00000  Uiso   1.00
C768   C     0.63630   0.60763   0.12706   0.00000  Uiso   1.00
C769   C     0.63925   0.60820   0.20846   0.00000  Uiso   1.00
C770   C     0.84739   0.88001   0.12726   0.00000  Uiso   1.00
C771   C     0.59312   0.84352   0.16692   0.00000  Uiso   1.00
C772   C     0.91080   0.65310   0.16630   0.00000  Uiso   1.00
C773   C     0.90086   0.83753   0.16679   0.00000  Uiso   1.00
C774   C     0.58895   0.65327   0.16848   0.00000  Uiso   1.00
C775   C     0.84717   0.58938   0.16716   0.00000  Uiso   1.00
C776   C     0.65869   0.90519   0.16543   0.00000  Uiso   1.00
C777   C     0.65559   0.59273   0.16721   0.00000  Uiso   1.00
C778   C     0.55986   0.81022   0.16688   0.00000  Uiso   1.00
C779   C     0.83759   0.90174   0.16750   0.00000  Uiso   1.00
C780   C     0.87800   0.69315   0.07461   0.00000  Uiso   1.00
C781   C     0.84400   0.70899   0.10953   0.00000  Uiso   1.00
C782   C     0.82220   0.74993   0.09411   0.00000  Uiso   1.00
C783   C     0.56897   0.85674   0.26782   0.00000  Uiso   1.00
C784   C     0.57789   0.90212   0.28571   0.00000  Uiso   1.00
C785   C     0.54688   0.91188   0.32426   0.00000  Uiso   1.00
C786   C     0.60988   0.81474   0.06618   0.00000  Uiso   1.00
C787   C     0.64490   0.83081   0.03441   0.00000  Uiso   1.00
C788   C     0.65846   0.79596   0.00126   0.00000  Uiso   1.00
C789   C     0.80841   0.93857   0.16680   0.00000  Uiso   1.00
C790   C     0.96373   0.62293   0.24464   0.00000  Uiso   1.00
C791   C     0.96718   0.58754   0.27919   0.00000  Uiso   1.00
C792   C     0.98589   0.60418   0.32361   0.00000  Uiso   1.00
C793   C     0.64055   0.69878   0.24963   0.00000  Uiso   1.00
C794   C     0.67111   0.68900   0.28912   0.00000  Uiso   1.00
C795   C     0.71459   0.71206   0.28424   0.00000  Uiso   1.00
C796   C     0.92785   0.88861   0.07502   0.00000  Uiso   1.00
C797   C     0.95779   0.90732   0.11281   0.00000  Uiso   1.00
C798   C     0.50071   0.92436   0.09535   0.00000  Uiso   1.00
C799   C     0.87615   0.79484   0.25608   0.00000  Uiso   1.00
C800   C     0.69017   0.56042   0.16668   0.00000  Uiso   1.00
C801   C     0.83987   0.80082   0.29001   0.00000  Uiso   1.00
C802   C     0.82133   0.75749   0.30375   0.00000  Uiso   1.00
C803   C     0.52619   0.60936   0.10869   0.00000  Uiso   1.00
C804   C     0.52694   0.56003   0.11317   0.00000  Uiso   1.00
C805   C     0.99082   0.54389   0.14381   0.00000  Uiso   1.00
C806   C     0.61729   0.95234   0.08304   0.00000  Uiso   1.00
C807   C     0.63561   0.98053   0.04647   0.00000  Uiso   1.00
C808   C     0.61365   0.52421   0.04608   0.00000  Uiso   1.00
C809   C     0.81847   0.60444   0.26800   0.00000  Uiso   1.00
C810   C     0.82959   0.63436   0.30724   0.00000  Uiso   1.00
C811   C     0.69043   0.93968   0.16629   0.00000  Uiso   1.00
C812   C     0.79043   0.63837   0.00536   0.00000  Uiso   1.00
C813   C     0.86873   0.54601   0.07711   0.00000  Uiso   1.00
C814   C     0.90877   0.54918   0.04765   0.00000  Uiso   1.00
C815   C     0.92935   0.50501   0.04089   0.00000  Uiso   1.00
C816   C     0.72088   0.85714   0.22182   0.00000  Uiso   1.00
C817   C     0.71163   0.81152   0.20314   0.00000  Uiso   1.00
C818   C     0.75296   0.78436   0.20160   0.00000  Uiso   1.00
C819   C     0.87993   0.94584   0.24972   0.00000  Uiso   1.00
C820   C     0.92697   0.93304   0.26152   0.00000  Uiso   1.00
C821   C     0.95730   0.97128   0.25701   0.00000  Uiso   1.00
C822   C     0.81116   0.55890   0.16692   0.00000  Uiso   1.00
C823   C     0.69169   0.63744   0.08647   0.00000  Uiso   1.00
C824   C     0.67587   0.68432   0.09309   0.00000  Uiso   1.00
C825   C     0.71374   0.71588   0.09107   0.00000  Uiso   1.00
C826   C     0.62814   0.55180   0.25476   0.00000  Uiso   1.00
C827   C     0.58237   0.55953   0.27277   0.00000  Uiso   1.00
C828   C     0.55995   0.51635   0.27829   0.00000  Uiso   1.00
C829   C     0.78144   0.86556   0.09346   0.00000  Uiso   1.00
C830   C     0.77205   0.83526   0.05411   0.00000  Uiso   1.00
C831   C     0.75874   0.85868   0.01177   0.00000  Uiso   1.00
C832   C     0.98301   0.78373   0.02405   0.00000  Uiso   1.00
H833   H     0.96973   0.81089   0.04199   0.00000  Uiso   1.00
H834   H     0.90082   0.71995   0.06749   0.00000  Uiso   1.00
H835   H     0.70795   0.63542   0.05340   0.00000  Uiso   1.00
H836   H     0.71695   0.62940   0.11210   0.00000  Uiso   1.00
H837   H     0.65113   0.69240   0.06709   0.00000  Uiso   1.00
H838   H     0.66088   0.68857   0.12657   0.00000  Uiso   1.00
H839   H     0.73847   0.70774   0.11702   0.00000  Uiso   1.00
H840   H     0.70175   0.74910   0.09754   0.00000  Uiso   1.00
H841   H     0.72911   0.71462   0.05764   0.00000  Uiso   1.00
H842   H     0.64671   0.53210   0.27917   0.00000  Uiso   1.00
H843   H     0.62592   0.53187   0.22344   0.00000  Uiso   1.00
H844   H     0.58426   0.57697   0.30536   0.00000  Uiso   1.00
H845   H     0.81856   0.68402   0.11444   0.00000  Uiso   1.00
H846   H     0.56308   0.57941   0.24901   0.00000  Uiso   1.00
H847   H     0.54788   0.50473   0.24512   0.00000  Uiso   1.00
H848   H     0.53273   0.51894   0.30242   0.00000  Uiso   1.00
H849   H     0.58343   0.99257   0.29156   0.00000  Uiso   1.00
H850   H     0.75566   0.89063   0.09510   0.00000  Uiso   1.00
H851   H     0.77819   0.84623   0.12456   0.00000  Uiso   1.00
H852   H     0.80189   0.81687   0.04648   0.00000  Uiso   1.00
H853   H     0.74585   0.81236   0.06333   0.00000  Uiso   1.00
H854   H     0.73099   0.88094   0.01789   0.00000  Uiso   1.00
H855   H     0.74865   0.83421   0.32001   0.00000  Uiso   1.00
H856   H     0.85984   0.71659   0.14219   0.00000  Uiso   1.00
H857   H     0.78708   0.87644   0.33172   0.00000  Uiso   1.00
H858   H     0.79966   0.76192   0.12022   0.00000  Uiso   1.00
H859   H     0.80315   0.74328   0.06318   0.00000  Uiso   1.00
H860   H     0.84730   0.77490   0.08800   0.00000  Uiso   1.00
H861   H     0.55909   0.83548   0.29572   0.00000  Uiso   1.00
H862   H     0.54032   0.85912   0.24485   0.00000  Uiso   1.00
H863   H     0.61221   0.90555   0.29718   0.00000  Uiso   1.00
H864   H     0.57232   0.92535   0.25816   0.00000  Uiso   1.00
H865   H     0.53420   0.69095   0.29166   0.00000  Uiso   1.00
H866   H     0.51248   0.90593   0.31405   0.00000  Uiso   1.00
H867   H     0.54999   0.94557   0.00267   0.00000  Uiso   1.00
H868   H     0.55502   0.89033   0.01900   0.00000  Uiso   1.00
H869   H     0.58565   0.79534   0.04684   0.00000  Uiso   1.00
H870   H     0.62470   0.79263   0.09144   0.00000  Uiso   1.00
H871   H     0.63228   0.85864   0.01557   0.00000  Uiso   1.00
H872   H     0.67371   0.84148   0.05425   0.00000  Uiso   1.00
H873   H     0.67712   0.77056   0.01893   0.00000  Uiso   1.00
H874   H     0.67908   0.81037   0.30836   0.00000  Uiso   1.00
H875   H     0.62946   0.78152   0.31779   0.00000  Uiso   1.00
H876   H     0.53257   0.68998   0.04125   0.00000  Uiso   1.00
H877   H     0.98895   0.64769   0.25111   0.00000  Uiso   1.00
H878   H     0.97231   0.60916   0.21119   0.00000  Uiso   1.00
H879   H     0.93478   0.57280   0.28434   0.00000  Uiso   1.00
H880   H     0.98841   0.56214   0.26542   0.00000  Uiso   1.00
H881   H     0.51789   0.61996   0.31853   0.00000  Uiso   1.00
H882   H     0.99151   0.57682   0.01303   0.00000  Uiso   1.00
H883   H     0.96295   0.62745   0.00603   0.00000  Uiso   1.00
H884   H     0.62518   0.73074   0.25541   0.00000  Uiso   1.00
H885   H     0.65985   0.70213   0.21806   0.00000  Uiso   1.00
H886   H     0.65520   0.69922   0.32080   0.00000  Uiso   1.00
H887   H     0.96995   0.81131   0.29224   0.00000  Uiso   1.00
H888   H     0.67773   0.65403   0.29135   0.00000  Uiso   1.00
H889   H     0.73317   0.69823   0.25564   0.00000  Uiso   1.00
H890   H     0.73416   0.70860   0.31523   0.00000  Uiso   1.00
H891   H     0.70925   0.74672   0.27875   0.00000  Uiso   1.00
H892   H     0.90311   0.91302   0.06505   0.00000  Uiso   1.00
H893   H     0.94734   0.88246   0.04436   0.00000  Uiso   1.00
H894   H     0.94020   0.93338   0.13105   0.00000  Uiso   1.00
H895   H     0.96680   0.88253   0.13756   0.00000  Uiso   1.00
H896   H     0.52024   0.89668   0.08357   0.00000  Uiso   1.00
H897   H     0.51900   0.94057   0.12299   0.00000  Uiso   1.00
H898   H     0.71889   0.56057   0.04190   0.00000  Uiso   1.00
H899   H     0.99577   0.94713   0.06744   0.00000  Uiso   1.00
H900   H     0.90086   0.77258   0.27038   0.00000  Uiso   1.00
H901   H     0.86305   0.77866   0.22511   0.00000  Uiso   1.00
H902   H     0.85293   0.81788   0.32018   0.00000  Uiso   1.00
H903   H     0.81385   0.82094   0.27486   0.00000  Uiso   1.00
H904   H     0.81419   0.73695   0.27393   0.00000  Uiso   1.00
H905   H     0.79061   0.76250   0.32243   0.00000  Uiso   1.00
H906   H     0.84533   0.74068   0.32534   0.00000  Uiso   1.00
H907   H     0.50088   0.61812   0.08362   0.00000  Uiso   1.00
H908   H     0.51471   0.62419   0.14053   0.00000  Uiso   1.00
H909   H     0.78296   0.94045   0.29125   0.00000  Uiso   1.00
H910   H     0.52274   0.54507   0.07951   0.00000  Uiso   1.00
H911   H     0.55849   0.54918   0.12769   0.00000  Uiso   1.00
H912   H     0.50064   0.54874   0.17938   0.00000  Uiso   1.00
H913   H     0.98576   0.50894   0.13831   0.00000  Uiso   1.00
H914   H     0.95952   0.56083   0.13735   0.00000  Uiso   1.00
H915   H     0.61672   0.97121   0.11516   0.00000  Uiso   1.00
H916   H     0.58358   0.94299   0.07400   0.00000  Uiso   1.00
H917   H     0.67056   0.98514   0.05354   0.00000  Uiso   1.00
H918   H     0.63226   0.96450   0.01324   0.00000  Uiso   1.00
H919   H     0.61479   0.53831   0.08010   0.00000  Uiso   1.00
H920   H     0.78465   0.94157   0.04119   0.00000  Uiso   1.00
H921   H     0.57917   0.52096   0.03537   0.00000  Uiso   1.00
H922   H     0.63137   0.54592   0.02330   0.00000  Uiso   1.00
H923   H     0.79916   0.57747   0.28129   0.00000  Uiso   1.00
H924   H     0.79703   0.62175   0.24355   0.00000  Uiso   1.00
H925   H     0.85805   0.62183   0.32630   0.00000  Uiso   1.00
H926   H     0.83840   0.66634   0.29392   0.00000  Uiso   1.00
H927   H     0.75942   0.63922   0.31931   0.00000  Uiso   1.00
H928   H     0.79250   0.66805   0.02610   0.00000  Uiso   1.00
H929   H     0.78923   0.61019   0.02788   0.00000  Uiso   1.00
H930   H     0.84403   0.52606   0.05902   0.00000  Uiso   1.00
H931   H     0.71929   0.56095   0.29231   0.00000  Uiso   1.00
H932   H     0.87718   0.52844   0.10857   0.00000  Uiso   1.00
H933   H     0.89891   0.56232   0.01477   0.00000  Uiso   1.00
H934   H     0.93279   0.57118   0.06372   0.00000  Uiso   1.00
H935   H     0.93552   0.99022   0.07395   0.00000  Uiso   1.00
H936   H     0.96090   0.50797   0.02324   0.00000  Uiso   1.00
H937   H     0.90718   0.98388   0.02096   0.00000  Uiso   1.00
H938   H     0.74449   0.85516   0.24986   0.00000  Uiso   1.00
H939   H     0.73778   0.87627   0.19596   0.00000  Uiso   1.00
H940   H     0.68708   0.79520   0.22421   0.00000  Uiso   1.00
H941   H     0.69811   0.81385   0.16851   0.00000  Uiso   1.00
H942   H     0.86111   0.68671   0.04254   0.00000  Uiso   1.00
H943   H     0.77969   0.80164   0.18464   0.00000  Uiso   1.00
H944   H     0.74629   0.75345   0.18395   0.00000  Uiso   1.00
H945   H     0.76362   0.77729   0.23609   0.00000  Uiso   1.00
H946   H     0.86791   0.96834   0.27608   0.00000  Uiso   1.00
H947   H     0.87927   0.96426   0.21777   0.00000  Uiso   1.00
H948   H     0.92841   0.92069   0.29638   0.00000  Uiso   1.00
H949   H     0.93914   0.90764   0.23843   0.00000  Uiso   1.00
H950   H     0.95728   0.98305   0.22193   0.00000  Uiso   1.00
H951   H     0.99074   0.96106   0.26594   0.00000  Uiso   1.00
H952   H     0.94690   0.99756   0.27976   0.00000  Uiso   1.00
N953   N     0.50000   0.75000   0.28573   0.00000  Uiso   1.00
N954   N     0.50000   0.75000   0.04760   0.00000  Uiso   1.00
N955   N     0.75000   0.50000   0.28573   0.00000  Uiso   1.00
N956   N     0.75000   0.50000   0.04760   0.00000  Uiso   1.00
O957   O     0.54581   0.70419   0.20487   0.00000  Uiso   1.00
O958   O     0.70420   0.54581   0.12846   0.00000  Uiso   1.00
O959   O     0.70420   0.54581   0.20487   0.00000  Uiso   1.00
O960   O     0.79581   0.95419   0.12846   0.00000  Uiso   1.00
O961   O     0.70420   0.95419   0.12846   0.00000  Uiso   1.00
O962   O     0.79581   0.54581   0.20487   0.00000  Uiso   1.00
O963   O     0.79581   0.54581   0.12846   0.00000  Uiso   1.00
O964   O     0.70420   0.95419   0.20487   0.00000  Uiso   1.00
O965   O     0.90337   0.65587   0.08486   0.00000  Uiso   1.00
O966   O     0.60598   0.83708   0.24795   0.00000  Uiso   1.00
O967   O     0.58688   0.84988   0.08531   0.00000  Uiso   1.00
O968   O     0.95420   0.79581   0.12846   0.00000  Uiso   1.00
O969   O     0.92186   0.64237   0.24669   0.00000  Uiso   1.00
O970   O     0.60691   0.66753   0.24720   0.00000  Uiso   1.00
O971   O     0.90714   0.84922   0.08651   0.00000  Uiso   1.00
O972   O     0.89655   0.83494   0.24856   0.00000  Uiso   1.00
O973   O     0.56699   0.62607   0.09399   0.00000  Uiso   1.00
O974   O     0.64393   0.91554   0.08615   0.00000  Uiso   1.00
O975   O     0.85629   0.58570   0.24902   0.00000  Uiso   1.00
O976   O     0.85035   0.58736   0.08462   0.00000  Uiso   1.00
O977   O     0.68287   0.87840   0.23821   0.00000  Uiso   1.00
O978   O     0.85167   0.90969   0.24846   0.00000  Uiso   1.00
O979   O     0.95420   0.79581   0.20487   0.00000  Uiso   1.00
O980   O     0.65728   0.60670   0.08612   0.00000  Uiso   1.00
O981   O     0.65098   0.59090   0.24926   0.00000  Uiso   1.00
O982   O     0.82309   0.88509   0.08827   0.00000  Uiso   1.00
O983   O     0.54581   0.70419   0.12846   0.00000  Uiso   1.00
O984   O     0.95420   0.70419   0.12846   0.00000  Uiso   1.00
O985   O     0.54581   0.79581   0.20487   0.00000  Uiso   1.00
O986   O     0.54581   0.79581   0.12846   0.00000  Uiso   1.00
O987   O     0.95420   0.70419   0.20487   0.00000  Uiso   1.00
O988   O     0.79581   0.95419   0.20487   0.00000  Uiso   1.00
Zn989  Zn    0.50000   0.75000   0.21771   0.00000  Uiso   1.00
Zn990  Zn    0.50000   0.75000   0.11563   0.00000  Uiso   1.00
Zn991  Zn    0.75000   0.50000   0.21771   0.00000  Uiso   1.00
Zn992  Zn    0.75000   0.50000   0.11563   0.00000  Uiso   1.00
C993   C     0.05918   0.18937   0.50031   0.00000  Uiso   1.00
C994   C     0.01848   0.21702   0.64270   0.00000  Uiso   1.00
C995   C     0.01805   0.21675   0.35702   0.00000  Uiso   1.00
C996   C     0.48303   0.28379   0.64306   0.00000  Uiso   1.00
C997   C     0.23286   0.03367   0.35737   0.00000  Uiso   1.00
C998   C     0.26834   0.46699   0.64259   0.00000  Uiso   1.00
C999   C     0.26879   0.46729   0.35694   0.00000  Uiso   1.00
C1000  C     0.23259   0.03355   0.64308   0.00000  Uiso   1.00
C1001  C     0.39280   0.13790   0.45898   0.00000  Uiso   1.00
C1002  C     0.11479   0.35574   0.54044   0.00000  Uiso   1.00
C1003  C     0.10585   0.36174   0.45914   0.00000  Uiso   1.00
C1004  C     0.43818   0.30824   0.50000   0.00000  Uiso   1.00
C1005  C     0.39945   0.13368   0.54046   0.00000  Uiso   1.00
C1006  C     0.11179   0.14356   0.54158   0.00000  Uiso   1.00
C1007  C     0.38453   0.35446   0.45955   0.00000  Uiso   1.00
C1008  C     0.38272   0.35124   0.54116   0.00000  Uiso   1.00
C1009  C     0.09616   0.12820   0.46318   0.00000  Uiso   1.00
C1010  C     0.13526   0.39538   0.45937   0.00000  Uiso   1.00
C1011  C     0.36562   0.10431   0.54149   0.00000  Uiso   1.00
C1012  C     0.36417   0.10364   0.45914   0.00000  Uiso   1.00
C1013  C     0.15182   0.38110   0.53760   0.00000  Uiso   1.00
C1014  C     0.35696   0.38792   0.54144   0.00000  Uiso   1.00
C1015  C     0.44125   0.18888   0.49980   0.00000  Uiso   1.00
C1016  C     0.13630   0.10763   0.46040   0.00000  Uiso   1.00
C1017  C     0.13925   0.10820   0.54180   0.00000  Uiso   1.00
C1018  C     0.34739   0.38001   0.46059   0.00000  Uiso   1.00
C1019  C     0.09312   0.34352   0.50025   0.00000  Uiso   1.00
C1020  C     0.41080   0.15310   0.49963   0.00000  Uiso   1.00
C1021  C     0.40086   0.33753   0.50012   0.00000  Uiso   1.00
C1022  C     0.08895   0.15327   0.50182   0.00000  Uiso   1.00
C1023  C     0.34717   0.08938   0.50050   0.00000  Uiso   1.00
C1024  C     0.15869   0.40519   0.49876   0.00000  Uiso   1.00
C1025  C     0.15559   0.09273   0.50055   0.00000  Uiso   1.00
C1026  C     0.05986   0.31022   0.50021   0.00000  Uiso   1.00
C1027  C     0.33759   0.40174   0.50083   0.00000  Uiso   1.00
C1028  C     0.37800   0.19315   0.40794   0.00000  Uiso   1.00
C1029  C     0.34400   0.20899   0.44286   0.00000  Uiso   1.00
C1030  C     0.32220   0.24993   0.42744   0.00000  Uiso   1.00
C1031  C     0.06897   0.35674   0.60115   0.00000  Uiso   1.00
C1032  C     0.07789   0.40212   0.61905   0.00000  Uiso   1.00
C1033  C     0.04688   0.41188   0.65759   0.00000  Uiso   1.00
C1034  C     0.10988   0.31474   0.39951   0.00000  Uiso   1.00
C1035  C     0.14490   0.33081   0.36774   0.00000  Uiso   1.00
C1036  C     0.15846   0.29596   0.33459   0.00000  Uiso   1.00
C1037  C     0.30841   0.43857   0.50013   0.00000  Uiso   1.00
C1038  C     0.46373   0.12293   0.57797   0.00000  Uiso   1.00
C1039  C     0.46718   0.08754   0.61252   0.00000  Uiso   1.00
C1040  C     0.48589   0.10418   0.65694   0.00000  Uiso   1.00
C1041  C     0.14055   0.19878   0.58296   0.00000  Uiso   1.00
C1042  C     0.17111   0.18900   0.62246   0.00000  Uiso   1.00
C1043  C     0.21459   0.21206   0.61757   0.00000  Uiso   1.00
C1044  C     0.42785   0.38861   0.40835   0.00000  Uiso   1.00
C1045  C     0.45779   0.40732   0.44615   0.00000  Uiso   1.00
C1046  C     0.00071   0.42436   0.42868   0.00000  Uiso   1.00
C1047  C     0.37615   0.29484   0.58942   0.00000  Uiso   1.00
C1048  C     0.19017   0.06042   0.50002   0.00000  Uiso   1.00
C1049  C     0.33987   0.30082   0.62335   0.00000  Uiso   1.00
C1050  C     0.32133   0.25749   0.63708   0.00000  Uiso   1.00
C1051  C     0.02619   0.10936   0.44203   0.00000  Uiso   1.00
C1052  C     0.02694   0.06003   0.44651   0.00000  Uiso   1.00
C1053  C     0.49082   0.04389   0.47714   0.00000  Uiso   1.00
C1054  C     0.11729   0.45234   0.41638   0.00000  Uiso   1.00
C1055  C     0.13561   0.48053   0.37981   0.00000  Uiso   1.00
C1056  C     0.11365   0.02421   0.37942   0.00000  Uiso   1.00
C1057  C     0.31847   0.10444   0.60133   0.00000  Uiso   1.00
C1058  C     0.32959   0.13436   0.64057   0.00000  Uiso   1.00
C1059  C     0.19043   0.43968   0.49962   0.00000  Uiso   1.00
C1060  C     0.29043   0.13837   0.33869   0.00000  Uiso   1.00
C1061  C     0.36873   0.04601   0.41044   0.00000  Uiso   1.00
C1062  C     0.40877   0.04918   0.38098   0.00000  Uiso   1.00
C1063  C     0.42935   0.00501   0.37422   0.00000  Uiso   1.00
C1064  C     0.22088   0.35714   0.55516   0.00000  Uiso   1.00
C1065  C     0.21163   0.31152   0.53647   0.00000  Uiso   1.00
C1066  C     0.25296   0.28436   0.53494   0.00000  Uiso   1.00
C1067  C     0.37993   0.44584   0.58305   0.00000  Uiso   1.00
C1068  C     0.42697   0.43304   0.59485   0.00000  Uiso   1.00
C1069  C     0.45730   0.47128   0.59034   0.00000  Uiso   1.00
C1070  C     0.31116   0.05890   0.50026   0.00000  Uiso   1.00
C1071  C     0.19169   0.13744   0.41981   0.00000  Uiso   1.00
C1072  C     0.17587   0.18432   0.42642   0.00000  Uiso   1.00
C1073  C     0.21374   0.21588   0.42441   0.00000  Uiso   1.00
C1074  C     0.12814   0.05180   0.58809   0.00000  Uiso   1.00
C1075  C     0.08237   0.05953   0.60610   0.00000  Uiso   1.00
C1076  C     0.05995   0.01635   0.61162   0.00000  Uiso   1.00
C1077  C     0.28144   0.36556   0.42679   0.00000  Uiso   1.00
C1078  C     0.27205   0.33526   0.38744   0.00000  Uiso   1.00
C1079  C     0.25874   0.35868   0.34510   0.00000  Uiso   1.00
C1080  C     0.48301   0.28373   0.35738   0.00000  Uiso   1.00
H1081  H     0.46973   0.31089   0.37532   0.00000  Uiso   1.00
H1082  H     0.40082   0.21995   0.40083   0.00000  Uiso   1.00
H1083  H     0.20795   0.13542   0.38674   0.00000  Uiso   1.00
H1084  H     0.21695   0.12940   0.44544   0.00000  Uiso   1.00
H1085  H     0.15113   0.19240   0.40043   0.00000  Uiso   1.00
H1086  H     0.16088   0.18857   0.45990   0.00000  Uiso   1.00
H1087  H     0.23847   0.20774   0.45036   0.00000  Uiso   1.00
H1088  H     0.20175   0.24910   0.43088   0.00000  Uiso   1.00
H1089  H     0.22911   0.21462   0.39098   0.00000  Uiso   1.00
H1090  H     0.14671   0.03210   0.61251   0.00000  Uiso   1.00
H1091  H     0.12592   0.03187   0.55678   0.00000  Uiso   1.00
H1092  H     0.08426   0.07697   0.63869   0.00000  Uiso   1.00
H1093  H     0.31856   0.18402   0.44778   0.00000  Uiso   1.00
H1094  H     0.06308   0.07941   0.58234   0.00000  Uiso   1.00
H1095  H     0.04788   0.00473   0.57845   0.00000  Uiso   1.00
H1096  H     0.03273   0.01894   0.63575   0.00000  Uiso   1.00
H1097  H     0.08343   0.49257   0.62490   0.00000  Uiso   1.00
H1098  H     0.25566   0.39063   0.42843   0.00000  Uiso   1.00
H1099  H     0.27819   0.34623   0.45789   0.00000  Uiso   1.00
H1100  H     0.30189   0.31687   0.37981   0.00000  Uiso   1.00
H1101  H     0.24585   0.31236   0.39667   0.00000  Uiso   1.00
H1102  H     0.23099   0.38094   0.35122   0.00000  Uiso   1.00
H1103  H     0.24865   0.33421   0.65334   0.00000  Uiso   1.00
H1104  H     0.35984   0.21659   0.47553   0.00000  Uiso   1.00
H1105  H     0.28708   0.37644   0.66505   0.00000  Uiso   1.00
H1106  H     0.29966   0.26192   0.45356   0.00000  Uiso   1.00
H1107  H     0.30315   0.24328   0.39651   0.00000  Uiso   1.00
H1108  H     0.34730   0.27490   0.42134   0.00000  Uiso   1.00
H1109  H     0.05909   0.33548   0.62906   0.00000  Uiso   1.00
H1110  H     0.04032   0.35912   0.57818   0.00000  Uiso   1.00
H1111  H     0.11221   0.40555   0.63052   0.00000  Uiso   1.00
H1112  H     0.07232   0.42535   0.59150   0.00000  Uiso   1.00
H1113  H     0.03420   0.19095   0.62499   0.00000  Uiso   1.00
H1114  H     0.01248   0.40593   0.64738   0.00000  Uiso   1.00
H1115  H     0.04999   0.44557   0.33600   0.00000  Uiso   1.00
H1116  H     0.05502   0.39033   0.35233   0.00000  Uiso   1.00
H1117  H     0.08565   0.29534   0.38017   0.00000  Uiso   1.00
H1118  H     0.12470   0.29263   0.42478   0.00000  Uiso   1.00
H1119  H     0.13228   0.35864   0.34890   0.00000  Uiso   1.00
H1120  H     0.17371   0.34148   0.38758   0.00000  Uiso   1.00
H1121  H     0.17712   0.27056   0.35227   0.00000  Uiso   1.00
H1122  H     0.17908   0.31037   0.64170   0.00000  Uiso   1.00
H1123  H     0.12946   0.28152   0.65112   0.00000  Uiso   1.00
H1124  H     0.03257   0.18998   0.37458   0.00000  Uiso   1.00
H1125  H     0.48895   0.14769   0.58444   0.00000  Uiso   1.00
H1126  H     0.47231   0.10916   0.54452   0.00000  Uiso   1.00
H1127  H     0.43478   0.07280   0.61767   0.00000  Uiso   1.00
H1128  H     0.48841   0.06214   0.59875   0.00000  Uiso   1.00
H1129  H     0.01789   0.11996   0.65186   0.00000  Uiso   1.00
H1130  H     0.49151   0.07682   0.34637   0.00000  Uiso   1.00
H1131  H     0.46295   0.12745   0.33936   0.00000  Uiso   1.00
H1132  H     0.12518   0.23074   0.58874   0.00000  Uiso   1.00
H1133  H     0.15985   0.20213   0.55139   0.00000  Uiso   1.00
H1134  H     0.15520   0.19922   0.65413   0.00000  Uiso   1.00
H1135  H     0.46995   0.31131   0.62558   0.00000  Uiso   1.00
H1136  H     0.17773   0.15403   0.62468   0.00000  Uiso   1.00
H1137  H     0.23317   0.19823   0.58898   0.00000  Uiso   1.00
H1138  H     0.23416   0.20860   0.64856   0.00000  Uiso   1.00
H1139  H     0.20925   0.24672   0.61209   0.00000  Uiso   1.00
H1140  H     0.40311   0.41302   0.39838   0.00000  Uiso   1.00
H1141  H     0.44734   0.38246   0.37769   0.00000  Uiso   1.00
H1142  H     0.44020   0.43338   0.46439   0.00000  Uiso   1.00
H1143  H     0.46680   0.38253   0.47089   0.00000  Uiso   1.00
H1144  H     0.02024   0.39668   0.41691   0.00000  Uiso   1.00
H1145  H     0.01900   0.44057   0.45632   0.00000  Uiso   1.00
H1146  H     0.21889   0.06057   0.37524   0.00000  Uiso   1.00
H1147  H     0.49577   0.44713   0.40077   0.00000  Uiso   1.00
H1148  H     0.40086   0.27258   0.60371   0.00000  Uiso   1.00
H1149  H     0.36305   0.27866   0.55844   0.00000  Uiso   1.00
H1150  H     0.35293   0.31788   0.65351   0.00000  Uiso   1.00
H1151  H     0.31385   0.32094   0.60819   0.00000  Uiso   1.00
H1152  H     0.31419   0.23695   0.60726   0.00000  Uiso   1.00
H1153  H     0.29061   0.26250   0.65576   0.00000  Uiso   1.00
H1154  H     0.34533   0.24068   0.65867   0.00000  Uiso   1.00
H1155  H     0.00088   0.11812   0.41695   0.00000  Uiso   1.00
H1156  H     0.01471   0.12419   0.47386   0.00000  Uiso   1.00
H1157  H     0.28296   0.44045   0.62458   0.00000  Uiso   1.00
H1158  H     0.02274   0.04507   0.41284   0.00000  Uiso   1.00
H1159  H     0.05849   0.04918   0.46102   0.00000  Uiso   1.00
H1160  H     0.00064   0.04874   0.51271   0.00000  Uiso   1.00
H1161  H     0.48576   0.00894   0.47164   0.00000  Uiso   1.00
H1162  H     0.45952   0.06083   0.47068   0.00000  Uiso   1.00
H1163  H     0.11672   0.47121   0.44849   0.00000  Uiso   1.00
H1164  H     0.08358   0.44299   0.40733   0.00000  Uiso   1.00
H1165  H     0.17056   0.48514   0.38687   0.00000  Uiso   1.00
H1166  H     0.13226   0.46450   0.34657   0.00000  Uiso   1.00
H1167  H     0.11479   0.03831   0.41343   0.00000  Uiso   1.00
H1168  H     0.28465   0.44157   0.37452   0.00000  Uiso   1.00
H1169  H     0.07917   0.02096   0.36870   0.00000  Uiso   1.00
H1170  H     0.13137   0.04592   0.35664   0.00000  Uiso   1.00
H1171  H     0.29916   0.07747   0.61462   0.00000  Uiso   1.00
H1172  H     0.29703   0.12175   0.57688   0.00000  Uiso   1.00
H1173  H     0.35805   0.12183   0.65964   0.00000  Uiso   1.00
H1174  H     0.33840   0.16634   0.62726   0.00000  Uiso   1.00
H1175  H     0.25942   0.13922   0.65264   0.00000  Uiso   1.00
H1176  H     0.29250   0.16805   0.35943   0.00000  Uiso   1.00
H1177  H     0.28923   0.11019   0.36121   0.00000  Uiso   1.00
H1178  H     0.34403   0.02606   0.39236   0.00000  Uiso   1.00
H1179  H     0.21929   0.06095   0.62565   0.00000  Uiso   1.00
H1180  H     0.37718   0.02844   0.44190   0.00000  Uiso   1.00
H1181  H     0.39891   0.06232   0.34810   0.00000  Uiso   1.00
H1182  H     0.43279   0.07118   0.39706   0.00000  Uiso   1.00
H1183  H     0.43552   0.49022   0.40729   0.00000  Uiso   1.00
H1184  H     0.46090   0.00797   0.35658   0.00000  Uiso   1.00
H1185  H     0.40718   0.48388   0.35429   0.00000  Uiso   1.00
H1186  H     0.24449   0.35516   0.58320   0.00000  Uiso   1.00
H1187  H     0.23778   0.37627   0.52929   0.00000  Uiso   1.00
H1188  H     0.18708   0.29520   0.55754   0.00000  Uiso   1.00
H1189  H     0.19811   0.31385   0.50185   0.00000  Uiso   1.00
H1190  H     0.36111   0.18671   0.37588   0.00000  Uiso   1.00
H1191  H     0.27969   0.30164   0.51797   0.00000  Uiso   1.00
H1192  H     0.24629   0.25345   0.51728   0.00000  Uiso   1.00
H1193  H     0.26362   0.27729   0.56943   0.00000  Uiso   1.00
H1194  H     0.36791   0.46834   0.60941   0.00000  Uiso   1.00
H1195  H     0.37927   0.46426   0.55110   0.00000  Uiso   1.00
H1196  H     0.42841   0.42069   0.62971   0.00000  Uiso   1.00
H1197  H     0.43914   0.40764   0.57176   0.00000  Uiso   1.00
H1198  H     0.45728   0.48305   0.55526   0.00000  Uiso   1.00
H1199  H     0.49074   0.46106   0.59928   0.00000  Uiso   1.00
H1200  H     0.44690   0.49756   0.61309   0.00000  Uiso   1.00
N1201  N     0.00000   0.25000   0.61907   0.00000  Uiso   1.00
N1202  N     0.00000   0.25000   0.38093   0.00000  Uiso   1.00
N1203  N     0.25000   0.00000   0.61907   0.00000  Uiso   1.00
N1204  N     0.25000   0.00000   0.38093   0.00000  Uiso   1.00
O1205  O     0.04581   0.20419   0.53821   0.00000  Uiso   1.00
O1206  O     0.20420   0.04581   0.46179   0.00000  Uiso   1.00
O1207  O     0.20420   0.04581   0.53821   0.00000  Uiso   1.00
O1208  O     0.29581   0.45419   0.46179   0.00000  Uiso   1.00
O1209  O     0.20420   0.45419   0.46179   0.00000  Uiso   1.00
O1210  O     0.29581   0.04581   0.53821   0.00000  Uiso   1.00
O1211  O     0.29581   0.04581   0.46179   0.00000  Uiso   1.00
O1212  O     0.20420   0.45419   0.53821   0.00000  Uiso   1.00
O1213  O     0.40337   0.15587   0.41820   0.00000  Uiso   1.00
O1214  O     0.10598   0.33708   0.58129   0.00000  Uiso   1.00
O1215  O     0.08688   0.34988   0.41865   0.00000  Uiso   1.00
O1216  O     0.45420   0.29581   0.46179   0.00000  Uiso   1.00
O1217  O     0.42186   0.14237   0.58002   0.00000  Uiso   1.00
O1218  O     0.10691   0.16753   0.58054   0.00000  Uiso   1.00
O1219  O     0.40714   0.34922   0.41984   0.00000  Uiso   1.00
O1220  O     0.39655   0.33494   0.58189   0.00000  Uiso   1.00
O1221  O     0.06699   0.12607   0.42732   0.00000  Uiso   1.00
O1222  O     0.14393   0.41554   0.41948   0.00000  Uiso   1.00
O1223  O     0.35629   0.08570   0.58235   0.00000  Uiso   1.00
O1224  O     0.35035   0.08736   0.41795   0.00000  Uiso   1.00
O1225  O     0.18287   0.37840   0.57154   0.00000  Uiso   1.00
O1226  O     0.35167   0.40969   0.58180   0.00000  Uiso   1.00
O1227  O     0.45420   0.29581   0.53821   0.00000  Uiso   1.00
O1228  O     0.15728   0.10670   0.41945   0.00000  Uiso   1.00
O1229  O     0.15098   0.09090   0.58259   0.00000  Uiso   1.00
O1230  O     0.32309   0.38509   0.42160   0.00000  Uiso   1.00
O1231  O     0.04581   0.20419   0.46179   0.00000  Uiso   1.00
O1232  O     0.45420   0.20419   0.46179   0.00000  Uiso   1.00
O1233  O     0.04581   0.29581   0.53821   0.00000  Uiso   1.00
O1234  O     0.04581   0.29581   0.46179   0.00000  Uiso   1.00
O1235  O     0.45420   0.20419   0.53821   0.00000  Uiso   1.00
O1236  O     0.29581   0.45419   0.53821   0.00000  Uiso   1.00
Zn1237 Zn    0.00000   0.25000   0.55104   0.00000  Uiso   1.00
Zn1238 Zn    0.00000   0.25000   0.44896   0.00000  Uiso   1.00
Zn1239 Zn    0.25000   0.00000   0.55104   0.00000  Uiso   1.00
Zn1240 Zn    0.25000   0.00000   0.44896   0.00000  Uiso   1.00
C1241  C     0.55918   0.18937   0.50031   0.00000  Uiso   1.00
C1242  C     0.51848   0.21702   0.64270   0.00000  Uiso   1.00
C1243  C     0.51805   0.21675   0.35702   0.00000  Uiso   1.00
C1244  C     0.98303   0.28379   0.64306   0.00000  Uiso   1.00
C1245  C     0.73286   0.03367   0.35737   0.00000  Uiso   1.00
C1246  C     0.76834   0.46699   0.64259   0.00000  Uiso   1.00
C1247  C     0.76879   0.46729   0.35694   0.00000  Uiso   1.00
C1248  C     0.73259   0.03355   0.64308   0.00000  Uiso   1.00
C1249  C     0.89280   0.13790   0.45898   0.00000  Uiso   1.00
C1250  C     0.61479   0.35574   0.54044   0.00000  Uiso   1.00
C1251  C     0.60585   0.36174   0.45914   0.00000  Uiso   1.00
C1252  C     0.93818   0.30824   0.50000   0.00000  Uiso   1.00
C1253  C     0.89945   0.13368   0.54046   0.00000  Uiso   1.00
C1254  C     0.61179   0.14356   0.54158   0.00000  Uiso   1.00
C1255  C     0.88453   0.35446   0.45955   0.00000  Uiso   1.00
C1256  C     0.88272   0.35124   0.54116   0.00000  Uiso   1.00
C1257  C     0.59616   0.12820   0.46318   0.00000  Uiso   1.00
C1258  C     0.63526   0.39538   0.45937   0.00000  Uiso   1.00
C1259  C     0.86562   0.10431   0.54149   0.00000  Uiso   1.00
C1260  C     0.86417   0.10364   0.45914   0.00000  Uiso   1.00
C1261  C     0.65182   0.38110   0.53760   0.00000  Uiso   1.00
C1262  C     0.85696   0.38792   0.54144   0.00000  Uiso   1.00
C1263  C     0.94125   0.18888   0.49980   0.00000  Uiso   1.00
C1264  C     0.63630   0.10763   0.46040   0.00000  Uiso   1.00
C1265  C     0.63925   0.10820   0.54180   0.00000  Uiso   1.00
C1266  C     0.84739   0.38001   0.46059   0.00000  Uiso   1.00
C1267  C     0.59312   0.34352   0.50025   0.00000  Uiso   1.00
C1268  C     0.91080   0.15310   0.49963   0.00000  Uiso   1.00
C1269  C     0.90086   0.33753   0.50012   0.00000  Uiso   1.00
C1270  C     0.58895   0.15327   0.50182   0.00000  Uiso   1.00
C1271  C     0.84717   0.08938   0.50050   0.00000  Uiso   1.00
C1272  C     0.65869   0.40519   0.49876   0.00000  Uiso   1.00
C1273  C     0.65559   0.09273   0.50055   0.00000  Uiso   1.00
C1274  C     0.55986   0.31022   0.50021   0.00000  Uiso   1.00
C1275  C     0.83759   0.40174   0.50083   0.00000  Uiso   1.00
C1276  C     0.87800   0.19315   0.40794   0.00000  Uiso   1.00
C1277  C     0.84400   0.20899   0.44286   0.00000  Uiso   1.00
C1278  C     0.82220   0.24993   0.42744   0.00000  Uiso   1.00
C1279  C     0.56897   0.35674   0.60115   0.00000  Uiso   1.00
C1280  C     0.57789   0.40212   0.61905   0.00000  Uiso   1.00
C1281  C     0.54688   0.41188   0.65759   0.00000  Uiso   1.00
C1282  C     0.60988   0.31474   0.39951   0.00000  Uiso   1.00
C1283  C     0.64490   0.33081   0.36774   0.00000  Uiso   1.00
C1284  C     0.65846   0.29596   0.33459   0.00000  Uiso   1.00
C1285  C     0.80841   0.43857   0.50013   0.00000  Uiso   1.00
C1286  C     0.96373   0.12293   0.57797   0.00000  Uiso   1.00
C1287  C     0.96718   0.08754   0.61252   0.00000  Uiso   1.00
C1288  C     0.98589   0.10418   0.65694   0.00000  Uiso   1.00
C1289  C     0.64055   0.19878   0.58296   0.00000  Uiso   1.00
C1290  C     0.67111   0.18900   0.62246   0.00000  Uiso   1.00
C1291  C     0.71459   0.21206   0.61757   0.00000  Uiso   1.00
C1292  C     0.92785   0.38861   0.40835   0.00000  Uiso   1.00
C1293  C     0.95779   0.40732   0.44615   0.00000  Uiso   1.00
C1294  C     0.50071   0.42436   0.42868   0.00000  Uiso   1.00
C1295  C     0.87615   0.29484   0.58942   0.00000  Uiso   1.00
C1296  C     0.69017   0.06042   0.50002   0.00000  Uiso   1.00
C1297  C     0.83987   0.30082   0.62335   0.00000  Uiso   1.00
C1298  C     0.82133   0.25749   0.63708   0.00000  Uiso   1.00
C1299  C     0.52619   0.10936   0.44203   0.00000  Uiso   1.00
C1300  C     0.52694   0.06003   0.44651   0.00000  Uiso   1.00
C1301  C     0.99082   0.04389   0.47714   0.00000  Uiso   1.00
C1302  C     0.61729   0.45234   0.41638   0.00000  Uiso   1.00
C1303  C     0.63561   0.48053   0.37981   0.00000  Uiso   1.00
C1304  C     0.61365   0.02421   0.37942   0.00000  Uiso   1.00
C1305  C     0.81847   0.10444   0.60133   0.00000  Uiso   1.00
C1306  C     0.82959   0.13436   0.64057   0.00000  Uiso   1.00
C1307  C     0.69043   0.43968   0.49962   0.00000  Uiso   1.00
C1308  C     0.79043   0.13837   0.33869   0.00000  Uiso   1.00
C1309  C     0.86873   0.04601   0.41044   0.00000  Uiso   1.00
C1310  C     0.90877   0.04918   0.38098   0.00000  Uiso   1.00
C1311  C     0.92935   0.00501   0.37422   0.00000  Uiso   1.00
C1312  C     0.72088   0.35714   0.55516   0.00000  Uiso   1.00
C1313  C     0.71163   0.31152   0.53647   0.00000  Uiso   1.00
C1314  C     0.75296   0.28436   0.53494   0.00000  Uiso   1.00
C1315  C     0.87993   0.44584   0.58305   0.00000  Uiso   1.00
C1316  C     0.92697   0.43304   0.59485   0.00000  Uiso   1.00
C1317  C     0.95730   0.47128   0.59034   0.00000  Uiso   1.00
C1318  C     0.81116   0.05890   0.50026   0.00000  Uiso   1.00
C1319  C     0.69169   0.13744   0.41981   0.00000  Uiso   1.00
C1320  C     0.67587   0.18432   0.42642   0.00000  Uiso   1.00
C1321  C     0.71374   0.21588   0.42441   0.00000  Uiso   1.00
C1322  C     0.62814   0.05180   0.58809   0.00000  Uiso   1.00
C1323  C     0.58237   0.05953   0.60610   0.00000  Uiso   1.00
C1324  C     0.55995   0.01635   0.61162   0.00000  Uiso   1.00
C1325  C     0.78144   0.36556   0.42679   0.00000  Uiso   1.00
C1326  C     0.77205   0.33526   0.38744   0.00000  Uiso   1.00
C1327  C     0.75874   0.35868   0.34510   0.00000  Uiso   1.00
C1328  C     0.98301   0.28373   0.35738   0.00000  Uiso   1.00
H1329  H     0.96973   0.31089   0.37532   0.00000  Uiso   1.00
H1330  H     0.90082   0.21995   0.40083   0.00000  Uiso   1.00
H1331  H     0.70795   0.13542   0.38674   0.00000  Uiso   1.00
H1332  H     0.71695   0.12940   0.44544   0.00000  Uiso   1.00
H1333  H     0.65113   0.19240   0.40043   0.00000  Uiso   1.00
H1334  H     0.66088   0.18857   0.45990   0.00000  Uiso   1.00
H1335  H     0.73847   0.20774   0.45036   0.00000  Uiso   1.00
H1336  H     0.70175   0.24910   0.43088   0.00000  Uiso   1.00
H1337  H     0.72911   0.21462   0.39098   0.00000  Uiso   1.00
H1338  H     0.64671   0.03210   0.61251   0.00000  Uiso   1.00
H1339  H     0.62592   0.03187   0.55678   0.00000  Uiso   1.00
H1340  H     0.58426   0.07697   0.63869   0.00000  Uiso   1.00
H1341  H     0.81856   0.18402   0.44778   0.00000  Uiso   1.00
H1342  H     0.56308   0.07941   0.58234   0.00000  Uiso   1.00
H1343  H     0.54788   0.00473   0.57845   0.00000  Uiso   1.00
H1344  H     0.53273   0.01894   0.63575   0.00000  Uiso   1.00
H1345  H     0.58343   0.49257   0.62490   0.00000  Uiso   1.00
H1346  H     0.75566   0.39063   0.42843   0.00000  Uiso   1.00
H1347  H     0.77819   0.34623   0.45789   0.00000  Uiso   1.00
H1348  H     0.80189   0.31687   0.37981   0.00000  Uiso   1.00
H1349  H     0.74585   0.31236   0.39667   0.00000  Uiso   1.00
H1350  H     0.73099   0.38094   0.35122   0.00000  Uiso   1.00
H1351  H     0.74865   0.33421   0.65334   0.00000  Uiso   1.00
H1352  H     0.85984   0.21659   0.47553   0.00000  Uiso   1.00
H1353  H     0.78708   0.37644   0.66505   0.00000  Uiso   1.00
H1354  H     0.79966   0.26192   0.45356   0.00000  Uiso   1.00
H1355  H     0.80315   0.24328   0.39651   0.00000  Uiso   1.00
H1356  H     0.84730   0.27490   0.42134   0.00000  Uiso   1.00
H1357  H     0.55909   0.33548   0.62906   0.00000  Uiso   1.00
H1358  H     0.54032   0.35912   0.57818   0.00000  Uiso   1.00
H1359  H     0.61221   0.40555   0.63052   0.00000  Uiso   1.00
H1360  H     0.57232   0.42535   0.59150   0.00000  Uiso   1.00
H1361  H     0.53420   0.19095   0.62499   0.00000  Uiso   1.00
H1362  H     0.51248   0.40593   0.64738   0.00000  Uiso   1.00
H1363  H     0.54999   0.44557   0.33600   0.00000  Uiso   1.00
H1364  H     0.55502   0.39033   0.35233   0.00000  Uiso   1.00
H1365  H     0.58565   0.29534   0.38017   0.00000  Uiso   1.00
H1366  H     0.62470   0.29263   0.42478   0.00000  Uiso   1.00
H1367  H     0.63228   0.35864   0.34890   0.00000  Uiso   1.00
H1368  H     0.67371   0.34148   0.38758   0.00000  Uiso   1.00
H1369  H     0.67712   0.27056   0.35227   0.00000  Uiso   1.00
H1370  H     0.67908   0.31037   0.64170   0.00000  Uiso   1.00
H1371  H     0.62946   0.28152   0.65112   0.00000  Uiso   1.00
H1372  H     0.53257   0.18998   0.37458   0.00000  Uiso   1.00
H1373  H     0.98895   0.14769   0.58444   0.00000  Uiso   1.00
H1374  H     0.97231   0.10916   0.54452   0.00000  Uiso   1.00
H1375  H     0.93478   0.07280   0.61767   0.00000  Uiso   1.00
H1376  H     0.98841   0.06214   0.59875   0.00000  Uiso   1.00
H1377  H     0.51789   0.11996   0.65186   0.00000  Uiso   1.00
H1378  H     0.99151   0.07682   0.34637   0.00000  Uiso   1.00
H1379  H     0.96295   0.12745   0.33936   0.00000  Uiso   1.00
H1380  H     0.62518   0.23074   0.58874   0.00000  Uiso   1.00
H1381  H     0.65985   0.20213   0.55139   0.00000  Uiso   1.00
H1382  H     0.65520   0.19922   0.65413   0.00000  Uiso   1.00
H1383  H     0.96995   0.31131   0.62558   0.00000  Uiso   1.00
H1384  H     0.67773   0.15403   0.62468   0.00000  Uiso   1.00
H1385  H     0.73317   0.19823   0.58898   0.00000  Uiso   1.00
H1386  H     0.73416   0.20860   0.64856   0.00000  Uiso   1.00
H1387  H     0.70925   0.24672   0.61209   0.00000  Uiso   1.00
H1388  H     0.90311   0.41302   0.39838   0.00000  Uiso   1.00
H1389  H     0.94734   0.38246   0.37769   0.00000  Uiso   1.00
H1390  H     0.94020   0.43338   0.46439   0.00000  Uiso   1.00
H1391  H     0.96680   0.38253   0.47089   0.00000  Uiso   1.00
H1392  H     0.52024   0.39668   0.41691   0.00000  Uiso   1.00
H1393  H     0.51900   0.44057   0.45632   0.00000  Uiso   1.00
H1394  H     0.71889   0.06057   0.37524   0.00000  Uiso   1.00
H1395  H     0.99577   0.44713   0.40077   0.00000  Uiso   1.00
H1396  H     0.90086   0.27258   0.60371   0.00000  Uiso   1.00
H1397  H     0.86305   0.27866   0.55844   0.00000  Uiso   1.00
H1398  H     0.85293   0.31788   0.65351   0.00000  Uiso   1.00
H1399  H     0.81385   0.32094   0.60819   0.00000  Uiso   1.00
H1400  H     0.81419   0.23695   0.60726   0.00000  Uiso   1.00
H1401  H     0.79061   0.26250   0.65576   0.00000  Uiso   1.00
H1402  H     0.84533   0.24068   0.65867   0.00000  Uiso   1.00
H1403  H     0.50088   0.11812   0.41695   0.00000  Uiso   1.00
H1404  H     0.51471   0.12419   0.47386   0.00000  Uiso   1.00
H1405  H     0.78296   0.44045   0.62458   0.00000  Uiso   1.00
H1406  H     0.52274   0.04507   0.41284   0.00000  Uiso   1.00
H1407  H     0.55849   0.04918   0.46102   0.00000  Uiso   1.00
H1408  H     0.50064   0.04874   0.51271   0.00000  Uiso   1.00
H1409  H     0.98576   0.00894   0.47164   0.00000  Uiso   1.00
H1410  H     0.95952   0.06083   0.47068   0.00000  Uiso   1.00
H1411  H     0.61672   0.47121   0.44849   0.00000  Uiso   1.00
H1412  H     0.58358   0.44299   0.40733   0.00000  Uiso   1.00
H1413  H     0.67056   0.48514   0.38687   0.00000  Uiso   1.00
H1414  H     0.63226   0.46450   0.34657   0.00000  Uiso   1.00
H1415  H     0.61479   0.03831   0.41343   0.00000  Uiso   1.00
H1416  H     0.78465   0.44157   0.37452   0.00000  Uiso   1.00
H1417  H     0.57917   0.02096   0.36870   0.00000  Uiso   1.00
H1418  H     0.63137   0.04592   0.35664   0.00000  Uiso   1.00
H1419  H     0.79916   0.07747   0.61462   0.00000  Uiso   1.00
H1420  H     0.79703   0.12175   0.57688   0.00000  Uiso   1.00
H1421  H     0.85805   0.12183   0.65964   0.00000  Uiso   1.00
H1422  H     0.83840   0.16634   0.62726   0.00000  Uiso   1.00
H1423  H     0.75942   0.13922   0.65264   0.00000  Uiso   1.00
H1424  H     0.79250   0.16805   0.35943   0.00000  Uiso   1.00
H1425  H     0.78923   0.11019   0.36121   0.00000  Uiso   1.00
H1426  H     0.84403   0.02606   0.39236   0.00000  Uiso   1.00
H1427  H     0.71929   0.06095   0.62565   0.00000  Uiso   1.00
H1428  H     0.87718   0.02844   0.44190   0.00000  Uiso   1.00
H1429  H     0.89891   0.06232   0.34810   0.00000  Uiso   1.00
H1430  H     0.93279   0.07118   0.39706   0.00000  Uiso   1.00
H1431  H     0.93552   0.49022   0.40729   0.00000  Uiso   1.00
H1432  H     0.96090   0.00797   0.35658   0.00000  Uiso   1.00
H1433  H     0.90718   0.48388   0.35429   0.00000  Uiso   1.00
H1434  H     0.74449   0.35516   0.58320   0.00000  Uiso   1.00
H1435  H     0.73778   0.37627   0.52929   0.00000  Uiso   1.00
H1436  H     0.68708   0.29520   0.55754   0.00000  Uiso   1.00
H1437  H     0.69811   0.31385   0.50185   0.00000  Uiso   1.00
H1438  H     0.86111   0.18671   0.37588   0.00000  Uiso   1.00
H1439  H     0.77969   0.30164   0.51797   0.00000  Uiso   1.00
H1440  H     0.74629   0.25345   0.51728   0.00000  Uiso   1.00
H1441  H     0.76362   0.27729   0.56943   0.00000  Uiso   1.00
H1442  H     0.86791   0.46834   0.60941   0.00000  Uiso   1.00
H1443  H     0.87927   0.46426   0.55110   0.00000  Uiso   1.00
H1444  H     0.92841   0.42069   0.62971   0.00000  Uiso   1.00
H1445  H     0.93914   0.40764   0.57176   0.00000  Uiso   1.00
H1446  H     0.95728   0.48305   0.55526   0.00000  Uiso   1.00
H1447  H     0.99074   0.46106   0.59928   0.00000  Uiso   1.00
H1448  H     0.94690   0.49756   0.61309   0.00000  Uiso   1.00
N1449  N     0.50000   0.25000   0.61907   0.00000  Uiso   1.00
N1450  N     0.50000   0.25000   0.38093   0.00000  Uiso   1.00
N1451  N     0.75000   0.00000   0.61907   0.00000  Uiso   1.00
N1452  N     0.75000   0.00000   0.38093   0.00000  Uiso   1.00
O1453  O     0.54581   0.20419   0.53821   0.00000  Uiso   1.00
O1454  O     0.70420   0.04581   0.46179   0.00000  Uiso   1.00
O1455  O     0.70420   0.04581   0.53821   0.00000  Uiso   1.00
O1456  O     0.79581   0.45419   0.46179   0.00000  Uiso   1.00
O1457  O     0.70420   0.45419   0.46179   0.00000  Uiso   1.00
O1458  O     0.79581   0.04581   0.53821   0.00000  Uiso   1.00
O1459  O     0.79581   0.04581   0.46179   0.00000  Uiso   1.00
O1460  O     0.70420   0.45419   0.53821   0.00000  Uiso   1.00
O1461  O     0.90337   0.15587   0.41820   0.00000  Uiso   1.00
O1462  O     0.60598   0.33708   0.58129   0.00000  Uiso   1.00
O1463  O     0.58688   0.34988   0.41865   0.00000  Uiso   1.00
O1464  O     0.95420   0.29581   0.46179   0.00000  Uiso   1.00
O1465  O     0.92186   0.14237   0.58002   0.00000  Uiso   1.00
O1466  O     0.60691   0.16753   0.58054   0.00000  Uiso   1.00
O1467  O     0.90714   0.34922   0.41984   0.00000  Uiso   1.00
O1468  O     0.89655   0.33494   0.58189   0.00000  Uiso   1.00
O1469  O     0.56699   0.12607   0.42732   0.00000  Uiso   1.00
O1470  O     0.64393   0.41554   0.41948   0.00000  Uiso   1.00
O1471  O     0.85629   0.08570   0.58235   0.00000  Uiso   1.00
O1472  O     0.85035   0.08736   0.41795   0.00000  Uiso   1.00
O1473  O     0.68287   0.37840   0.57154   0.00000  Uiso   1.00
O1474  O     0.85167   0.40969   0.58180   0.00000  Uiso   1.00
O1475  O     0.95420   0.29581   0.53821   0.00000  Uiso   1.00
O1476  O     0.65728   0.10670   0.41945   0.00000  Uiso   1.00
O1477  O     0.65098   0.09090   0.58259   0.00000  Uiso   1.00
O1478  O     0.82309   0.38509   0.42160   0.00000  Uiso   1.00
O1479  O     0.54581   0.20419   0.46179   0.00000  Uiso   1.00
O1480  O     0.95420   0.20419   0.46179   0.00000  Uiso   1.00
O1481  O     0.54581   0.29581   0.53821   0.00000  Uiso   1.00
O1482  O     0.54581   0.29581   0.46179   0.00000  Uiso   1.00
O1483  O     0.95420   0.20419   0.53821   0.00000  Uiso   1.00
O1484  O     0.79581   0.45419   0.53821   0.00000  Uiso   1.00
Zn1485 Zn    0.50000   0.25000   0.55104   0.00000  Uiso   1.00
Zn1486 Zn    0.50000   0.25000   0.44896   0.00000  Uiso   1.00
Zn1487 Zn    0.75000   0.00000   0.55104   0.00000  Uiso   1.00
Zn1488 Zn    0.75000   0.00000   0.44896   0.00000  Uiso   1.00
C1489  C     0.05918   0.68937   0.50031   0.00000  Uiso   1.00
C1490  C     0.01848   0.71702   0.64270   0.00000  Uiso   1.00
C1491  C     0.01805   0.71675   0.35702   0.00000  Uiso   1.00
C1492  C     0.48303   0.78379   0.64306   0.00000  Uiso   1.00
C1493  C     0.23286   0.53367   0.35737   0.00000  Uiso   1.00
C1494  C     0.26834   0.96699   0.64259   0.00000  Uiso   1.00
C1495  C     0.26879   0.96729   0.35694   0.00000  Uiso   1.00
C1496  C     0.23259   0.53355   0.64308   0.00000  Uiso   1.00
C1497  C     0.39280   0.63790   0.45898   0.00000  Uiso   1.00
C1498  C     0.11479   0.85574   0.54044   0.00000  Uiso   1.00
C1499  C     0.10585   0.86174   0.45914   0.00000  Uiso   1.00
C1500  C     0.43818   0.80824   0.50000   0.00000  Uiso   1.00
C1501  C     0.39945   0.63368   0.54046   0.00000  Uiso   1.00
C1502  C     0.11179   0.64356   0.54158   0.00000  Uiso   1.00
C1503  C     0.38453   0.85446   0.45955   0.00000  Uiso   1.00
C1504  C     0.38272   0.85124   0.54116   0.00000  Uiso   1.00
C1505  C     0.09616   0.62820   0.46318   0.00000  Uiso   1.00
C1506  C     0.13526   0.89538   0.45937   0.00000  Uiso   1.00
C1507  C     0.36562   0.60431   0.54149   0.00000  Uiso   1.00
C1508  C     0.36417   0.60364   0.45914   0.00000  Uiso   1.00
C1509  C     0.15182   0.88110   0.53760   0.00000  Uiso   1.00
C1510  C     0.35696   0.88792   0.54144   0.00000  Uiso   1.00
C1511  C     0.44125   0.68888   0.49980   0.00000  Uiso   1.00
C1512  C     0.13630   0.60763   0.46040   0.00000  Uiso   1.00
C1513  C     0.13925   0.60820   0.54180   0.00000  Uiso   1.00
C1514  C     0.34739   0.88001   0.46059   0.00000  Uiso   1.00
C1515  C     0.09312   0.84352   0.50025   0.00000  Uiso   1.00
C1516  C     0.41080   0.65310   0.49963   0.00000  Uiso   1.00
C1517  C     0.40086   0.83753   0.50012   0.00000  Uiso   1.00
C1518  C     0.08895   0.65327   0.50182   0.00000  Uiso   1.00
C1519  C     0.34717   0.58938   0.50050   0.00000  Uiso   1.00
C1520  C     0.15869   0.90519   0.49876   0.00000  Uiso   1.00
C1521  C     0.15559   0.59273   0.50055   0.00000  Uiso   1.00
C1522  C     0.05986   0.81022   0.50021   0.00000  Uiso   1.00
C1523  C     0.33759   0.90174   0.50083   0.00000  Uiso   1.00
C1524  C     0.37800   0.69315   0.40794   0.00000  Uiso   1.00
C1525  C     0.34400   0.70899   0.44286   0.00000  Uiso   1.00
C1526  C     0.32220   0.74993   0.42744   0.00000  Uiso   1.00
C1527  C     0.06897   0.85674   0.60115   0.00000  Uiso   1.00
C1528  C     0.07789   0.90212   0.61905   0.00000  Uiso   1.00
C1529  C     0.04688   0.91188   0.65759   0.00000  Uiso   1.00
C1530  C     0.10988   0.81474   0.39951   0.00000  Uiso   1.00
C1531  C     0.14490   0.83081   0.36774   0.00000  Uiso   1.00
C1532  C     0.15846   0.79596   0.33459   0.00000  Uiso   1.00
C1533  C     0.30841   0.93857   0.50013   0.00000  Uiso   1.00
C1534  C     0.46373   0.62293   0.57797   0.00000  Uiso   1.00
C1535  C     0.46718   0.58754   0.61252   0.00000  Uiso   1.00
C1536  C     0.48589   0.60418   0.65694   0.00000  Uiso   1.00
C1537  C     0.14055   0.69878   0.58296   0.00000  Uiso   1.00
C1538  C     0.17111   0.68900   0.62246   0.00000  Uiso   1.00
C1539  C     0.21459   0.71206   0.61757   0.00000  Uiso   1.00
C1540  C     0.42785   0.88861   0.40835   0.00000  Uiso   1.00
C1541  C     0.45779   0.90732   0.44615   0.00000  Uiso   1.00
C1542  C     0.00071   0.92436   0.42868   0.00000  Uiso   1.00
C1543  C     0.37615   0.79484   0.58942   0.00000  Uiso   1.00
C1544  C     0.19017   0.56042   0.50002   0.00000  Uiso   1.00
C1545  C     0.33987   0.80082   0.62335   0.00000  Uiso   1.00
C1546  C     0.32133   0.75749   0.63708   0.00000  Uiso   1.00
C1547  C     0.02619   0.60936   0.44203   0.00000  Uiso   1.00
C1548  C     0.02694   0.56003   0.44651   0.00000  Uiso   1.00
C1549  C     0.49082   0.54389   0.47714   0.00000  Uiso   1.00
C1550  C     0.11729   0.95234   0.41638   0.00000  Uiso   1.00
C1551  C     0.13561   0.98053   0.37981   0.00000  Uiso   1.00
C1552  C     0.11365   0.52421   0.37942   0.00000  Uiso   1.00
C1553  C     0.31847   0.60444   0.60133   0.00000  Uiso   1.00
C1554  C     0.32959   0.63436   0.64057   0.00000  Uiso   1.00
C1555  C     0.19043   0.93968   0.49962   0.00000  Uiso   1.00
C1556  C     0.29043   0.63837   0.33869   0.00000  Uiso   1.00
C1557  C     0.36873   0.54601   0.41044   0.00000  Uiso   1.00
C1558  C     0.40877   0.54918   0.38098   0.00000  Uiso   1.00
C1559  C     0.42935   0.50501   0.37422   0.00000  Uiso   1.00
C1560  C     0.22088   0.85714   0.55516   0.00000  Uiso   1.00
C1561  C     0.21163   0.81152   0.53647   0.00000  Uiso   1.00
C1562  C     0.25296   0.78436   0.53494   0.00000  Uiso   1.00
C1563  C     0.37993   0.94584   0.58305   0.00000  Uiso   1.00
C1564  C     0.42697   0.93304   0.59485   0.00000  Uiso   1.00
C1565  C     0.45730   0.97128   0.59034   0.00000  Uiso   1.00
C1566  C     0.31116   0.55890   0.50026   0.00000  Uiso   1.00
C1567  C     0.19169   0.63744   0.41981   0.00000  Uiso   1.00
C1568  C     0.17587   0.68432   0.42642   0.00000  Uiso   1.00
C1569  C     0.21374   0.71588   0.42441   0.00000  Uiso   1.00
C1570  C     0.12814   0.55180   0.58809   0.00000  Uiso   1.00
C1571  C     0.08237   0.55953   0.60610   0.00000  Uiso   1.00
C1572  C     0.05995   0.51635   0.61162   0.00000  Uiso   1.00
C1573  C     0.28144   0.86556   0.42679   0.00000  Uiso   1.00
C1574  C     0.27205   0.83526   0.38744   0.00000  Uiso   1.00
C1575  C     0.25874   0.85868   0.34510   0.00000  Uiso   1.00
C1576  C     0.48301   0.78373   0.35738   0.00000  Uiso   1.00
H1577  H     0.46973   0.81089   0.37532   0.00000  Uiso   1.00
H1578  H     0.40082   0.71995   0.40083   0.00000  Uiso   1.00
H1579  H     0.20795   0.63542   0.38674   0.00000  Uiso   1.00
H1580  H     0.21695   0.62940   0.44544   0.00000  Uiso   1.00
H1581  H     0.15113   0.69240   0.40043   0.00000  Uiso   1.00
H1582  H     0.16088   0.68857   0.45990   0.00000  Uiso   1.00
H1583  H     0.23847   0.70774   0.45036   0.00000  Uiso   1.00
H1584  H     0.20175   0.74910   0.43088   0.00000  Uiso   1.00
H1585  H     0.22911   0.71462   0.39098   0.00000  Uiso   1.00
H1586  H     0.14671   0.53210   0.61251   0.00000  Uiso   1.00
H1587  H     0.12592   0.53187   0.55678   0.00000  Uiso   1.00
H1588  H     0.08426   0.57697   0.63869   0.00000  Uiso   1.00
H1589  H     0.31856   0.68402   0.44778   0.00000  Uiso   1.00
H1590  H     0.06308   0.57941   0.58234   0.00000  Uiso   1.00
H1591  H     0.04788   0.50473   0.57845   0.00000  Uiso   1.00
H1592  H     0.03273   0.51894   0.63575   0.00000  Uiso   1.00
H1593  H     0.08343   0.99257   0.62490   0.00000  Uiso   1.00
H1594  H     0.25566   0.89063   0.42843   0.00000  Uiso   1.00
H1595  H     0.27819   0.84623   0.45789   0.00000  Uiso   1.00
H1596  H     0.30189   0.81687   0.37981   0.00000  Uiso   1.00
H1597  H     0.24585   0.81236   0.39667   0.00000  Uiso   1.00
H1598  H     0.23099   0.88094   0.35122   0.00000  Uiso   1.00
H1599  H     0.24865   0.83421   0.65334   0.00000  Uiso   1.00
H1600  H     0.35984   0.71659   0.47553   0.00000  Uiso   1.00
H1601  H     0.28708   0.87644   0.66505   0.00000  Uiso   1.00
H1602  H     0.29966   0.76192   0.45356   0.00000  Uiso   1.00
H1603  H     0.30315   0.74328   0.39651   0.00000  Uiso   1.00
H1604  H     0.34730   0.77490   0.42134   0.00000  Uiso   1.00
H1605  H     0.05909   0.83548   0.62906   0.00000  Uiso   1.00
H1606  H     0.04032   0.85912   0.57818   0.00000  Uiso   1.00
H1607  H     0.11221   0.90555   0.63052   0.00000  Uiso   1.00
H1608  H     0.07232   0.92535   0.59150   0.00000  Uiso   1.00
H1609  H     0.03420   0.69095   0.62499   0.00000  Uiso   1.00
H1610  H     0.01248   0.90593   0.64738   0.00000  Uiso   1.00
H1611  H     0.04999   0.94557   0.33600   0.00000  Uiso   1.00
H1612  H     0.05502   0.89033   0.35233   0.00000  Uiso   1.00
H1613  H     0.08565   0.79534   0.38017   0.00000  Uiso   1.00
H1614  H     0.12470   0.79263   0.42478   0.00000  Uiso   1.00
H1615  H     0.13228   0.85864   0.34890   0.00000  Uiso   1.00
H1616  H     0.17371   0.84148   0.38758   0.00000  Uiso   1.00
H1617  H     0.17712   0.77056   0.35227   0.00000  Uiso   1.00
H1618  H     0.17908   0.81037   0.64170   0.00000  Uiso   1.00
H1619  H     0.12946   0.78152   0.65112   0.00000  Uiso   1.00
H1620  H     0.03257   0.68998   0.37458   0.00000  Uiso   1.00
H1621  H     0.48895   0.64769   0.58444   0.00000  Uiso   1.00
H1622  H     0.47231   0.60916   0.54452   0.00000  Uiso   1.00
H1623  H     0.43478   0.57280   0.61767   0.00000  Uiso   1.00
H1624  H     0.48841   0.56214   0.59875   0.00000  Uiso   1.00
H1625  H     0.01789   0.61996   0.65186   0.00000  Uiso   1.00
H1626  H     0.49151   0.57682   0.34637   0.00000  Uiso   1.00
H1627  H     0.46295   0.62745   0.33936   0.00000  Uiso   1.00
H1628  H     0.12518   0.73074   0.58874   0.00000  Uiso   1.00
H1629  H     0.15985   0.70213   0.55139   0.00000  Uiso   1.00
H1630  H     0.15520   0.69922   0.65413   0.00000  Uiso   1.00
H1631  H     0.46995   0.81131   0.62558   0.00000  Uiso   1.00
H1632  H     0.17773   0.65403   0.62468   0.00000  Uiso   1.00
H1633  H     0.23317   0.69823   0.58898   0.00000  Uiso   1.00
H1634  H     0.23416   0.70860   0.64856   0.00000  Uiso   1.00
H1635  H     0.20925   0.74672   0.61209   0.00000  Uiso   1.00
H1636  H     0.40311   0.91302   0.39838   0.00000  Uiso   1.00
H1637  H     0.44734   0.88246   0.37769   0.00000  Uiso   1.00
H1638  H     0.44020   0.93338   0.46439   0.00000  Uiso   1.00
H1639  H     0.46680   0.88253   0.47089   0.00000  Uiso   1.00
H1640  H     0.02024   0.89668   0.41691   0.00000  Uiso   1.00
H1641  H     0.01900   0.94057   0.45632   0.00000  Uiso   1.00
H1642  H     0.21889   0.56057   0.37524   0.00000  Uiso   1.00
H1643  H     0.49577   0.94713   0.40077   0.00000  Uiso   1.00
H1644  H     0.40086   0.77258   0.60371   0.00000  Uiso   1.00
H1645  H     0.36305   0.77866   0.55844   0.00000  Uiso   1.00
H1646  H     0.35293   0.81788   0.65351   0.00000  Uiso   1.00
H1647  H     0.31385   0.82094   0.60819   0.00000  Uiso   1.00
H1648  H     0.31419   0.73695   0.60726   0.00000  Uiso   1.00
H1649  H     0.29061   0.76250   0.65576   0.00000  Uiso   1.00
H1650  H     0.34533   0.74068   0.65867   0.00000  Uiso   1.00
H1651  H     0.00088   0.61812   0.41695   0.00000  Uiso   1.00
H1652  H     0.01471   0.62419   0.47386   0.00000  Uiso   1.00
H1653  H     0.28296   0.94045   0.62458   0.00000  Uiso   1.00
H1654  H     0.02274   0.54507   0.41284   0.00000  Uiso   1.00
H1655  H     0.05849   0.54918   0.46102   0.00000  Uiso   1.00
H1656  H     0.00064   0.54874   0.51271   0.00000  Uiso   1.00
H1657  H     0.48576   0.50894   0.47164   0.00000  Uiso   1.00
H1658  H     0.45952   0.56083   0.47068   0.00000  Uiso   1.00
H1659  H     0.11672   0.97121   0.44849   0.00000  Uiso   1.00
H1660  H     0.08358   0.94299   0.40733   0.00000  Uiso   1.00
H1661  H     0.17056   0.98514   0.38687   0.00000  Uiso   1.00
H1662  H     0.13226   0.96450   0.34657   0.00000  Uiso   1.00
H1663  H     0.11479   0.53831   0.41343   0.00000  Uiso   1.00
H1664  H     0.28465   0.94157   0.37452   0.00000  Uiso   1.00
H1665  H     0.07917   0.52096   0.36870   0.00000  Uiso   1.00
H1666  H     0.13137   0.54592   0.35664   0.00000  Uiso   1.00
H1667  H     0.29916   0.57747   0.61462   0.00000  Uiso   1.00
H1668  H     0.29703   0.62175   0.57688   0.00000  Uiso   1.00
H1669  H     0.35805   0.62183   0.65964   0.00000  Uiso   1.00
H1670  H     0.33840   0.66634   0.62726   0.00000  Uiso   1.00
H1671  H     0.25942   0.63922   0.65264   0.00000  Uiso   1.00
H1672  H     0.29250   0.66805   0.35943   0.00000  Uiso   1.00
H1673  H     0.28923   0.61019   0.36121   0.00000  Uiso   1.00
H1674  H     0.34403   0.52606   0.39236   0.00000  Uiso   1.00
H1675  H     0.21929   0.56095   0.62565   0.00000  Uiso   1.00
H1676  H     0.37718   0.52844   0.44190   0.00000  Uiso   1.00
H1677  H     0.39891   0.56232   0.34810   0.00000  Uiso   1.00
H1678  H     0.43279   0.57118   0.39706   0.00000  Uiso   1.00
H1679  H     0.43552   0.99022   0.40729   0.00000  Uiso   1.00
H1680  H     0.46090   0.50797   0.35658   0.00000  Uiso   1.00
H1681  H     0.40718   0.98388   0.35429   0.00000  Uiso   1.00
H1682  H     0.24449   0.85516   0.58320   0.00000  Uiso   1.00
H1683  H     0.23778   0.87627   0.52929   0.00000  Uiso   1.00
H1684  H     0.18708   0.79520   0.55754   0.00000  Uiso   1.00
H1685  H     0.19811   0.81385   0.50185   0.00000  Uiso   1.00
H1686  H     0.36111   0.68671   0.37588   0.00000  Uiso   1.00
H1687  H     0.27969   0.80164   0.51797   0.00000  Uiso   1.00
H1688  H     0.24629   0.75345   0.51728   0.00000  Uiso   1.00
H1689  H     0.26362   0.77729   0.56943   0.00000  Uiso   1.00
H1690  H     0.36791   0.96834   0.60941   0.00000  Uiso   1.00
H1691  H     0.37927   0.96426   0.55110   0.00000  Uiso   1.00
H1692  H     0.42841   0.92069   0.62971   0.00000  Uiso   1.00
H1693  H     0.43914   0.90764   0.57176   0.00000  Uiso   1.00
H1694  H     0.45728   0.98305   0.55526   0.00000  Uiso   1.00
H1695  H     0.49074   0.96106   0.59928   0.00000  Uiso   1.00
H1696  H     0.44690   0.99756   0.61309   0.00000  Uiso   1.00
N1697  N     0.00000   0.75000   0.61907   0.00000  Uiso   1.00
N1698  N     0.00000   0.75000   0.38093   0.00000  Uiso   1.00
N1699  N     0.25000   0.50000   0.61907   0.00000  Uiso   1.00
N1700  N     0.25000   0.50000   0.38093   0.00000  Uiso   1.00
O1701  O     0.04581   0.70419   0.53821   0.00000  Uiso   1.00
O1702  O     0.20420   0.54581   0.46179   0.00000  Uiso   1.00
O1703  O     0.20420   0.54581   0.53821   0.00000  Uiso   1.00
O1704  O     0.29581   0.95419   0.46179   0.00000  Uiso   1.00
O1705  O     0.20420   0.95419   0.46179   0.00000  Uiso   1.00
O1706  O     0.29581   0.54581   0.53821   0.00000  Uiso   1.00
O1707  O     0.29581   0.54581   0.46179   0.00000  Uiso   1.00
O1708  O     0.20420   0.95419   0.53821   0.00000  Uiso   1.00
O1709  O     0.40337   0.65587   0.41820   0.00000  Uiso   1.00
O1710  O     0.10598   0.83708   0.58129   0.00000  Uiso   1.00
O1711  O     0.08688   0.84988   0.41865   0.00000  Uiso   1.00
O1712  O     0.45420   0.79581   0.46179   0.00000  Uiso   1.00
O1713  O     0.42186   0.64237   0.58002   0.00000  Uiso   1.00
O1714  O     0.10691   0.66753   0.58054   0.00000  Uiso   1.00
O1715  O     0.40714   0.84922   0.41984   0.00000  Uiso   1.00
O1716  O     0.39655   0.83494   0.58189   0.00000  Uiso   1.00
O1717  O     0.06699   0.62607   0.42732   0.00000  Uiso   1.00
O1718  O     0.14393   0.91554   0.41948   0.00000  Uiso   1.00
O1719  O     0.35629   0.58570   0.58235   0.00000  Uiso   1.00
O1720  O     0.35035   0.58736   0.41795   0.00000  Uiso   1.00
O1721  O     0.18287   0.87840   0.57154   0.00000  Uiso   1.00
O1722  O     0.35167   0.90969   0.58180   0.00000  Uiso   1.00
O1723  O     0.45420   0.79581   0.53821   0.00000  Uiso   1.00
O1724  O     0.15728   0.60670   0.41945   0.00000  Uiso   1.00
O1725  O     0.15098   0.59090   0.58259   0.00000  Uiso   1.00
O1726  O     0.32309   0.88509   0.42160   0.00000  Uiso   1.00
O1727  O     0.04581   0.70419   0.46179   0.00000  Uiso   1.00
O1728  O     0.45420   0.70419   0.46179   0.00000  Uiso   1.00
O1729  O     0.04581   0.79581   0.53821   0.00000  Uiso   1.00
O1730  O     0.04581   0.79581   0.46179   0.00000  Uiso   1.00
O1731  O     0.45420   0.70419   0.53821   0.00000  Uiso   1.00
O1732  O     0.29581   0.95419   0.53821   0.00000  Uiso   1.00
Zn1733 Zn    0.00000   0.75000   0.55104   0.00000  Uiso   1.00
Zn1734 Zn    0.00000   0.75000   0.44896   0.00000  Uiso   1.00
Zn1735 Zn    0.25000   0.50000   0.55104   0.00000  Uiso   1.00
Zn1736 Zn    0.25000   0.50000   0.44896   0.00000  Uiso   1.00
C1737  C     0.55918   0.68937   0.50031   0.00000  Uiso   1.00
C1738  C     0.51848   0.71702   0.64270   0.00000  Uiso   1.00
C1739  C     0.51805   0.71675   0.35702   0.00000  Uiso   1.00
C1740  C     0.98303   0.78379   0.64306   0.00000  Uiso   1.00
C1741  C     0.73286   0.53367   0.35737   0.00000  Uiso   1.00
C1742  C     0.76834   0.96699   0.64259   0.00000  Uiso   1.00
C1743  C     0.76879   0.96729   0.35694   0.00000  Uiso   1.00
C1744  C     0.73259   0.53355   0.64308   0.00000  Uiso   1.00
C1745  C     0.89280   0.63790   0.45898   0.00000  Uiso   1.00
C1746  C     0.61479   0.85574   0.54044   0.00000  Uiso   1.00
C1747  C     0.60585   0.86174   0.45914   0.00000  Uiso   1.00
C1748  C     0.93818   0.80824   0.50000   0.00000  Uiso   1.00
C1749  C     0.89945   0.63368   0.54046   0.00000  Uiso   1.00
C1750  C     0.61179   0.64356   0.54158   0.00000  Uiso   1.00
C1751  C     0.88453   0.85446   0.45955   0.00000  Uiso   1.00
C1752  C     0.88272   0.85124   0.54116   0.00000  Uiso   1.00
C1753  C     0.59616   0.62820   0.46318   0.00000  Uiso   1.00
C1754  C     0.63526   0.89538   0.45937   0.00000  Uiso   1.00
C1755  C     0.86562   0.60431   0.54149   0.00000  Uiso   1.00
C1756  C     0.86417   0.60364   0.45914   0.00000  Uiso   1.00
C1757  C     0.65182   0.88110   0.53760   0.00000  Uiso   1.00
C1758  C     0.85696   0.88792   0.54144   0.00000  Uiso   1.00
C1759  C     0.94125   0.68888   0.49980   0.00000  Uiso   1.00
C1760  C     0.63630   0.60763   0.46040   0.00000  Uiso   1.00
C1761  C     0.63925   0.60820   0.54180   0.00000  Uiso   1.00
C1762  C     0.84739   0.88001   0.46059   0.00000  Uiso   1.00
C1763  C     0.59312   0.84352   0.50025   0.00000  Uiso   1.00
C1764  C     0.91080   0.65310   0.49963   0.00000  Uiso   1.00
C1765  C     0.90086   0.83753   0.50012   0.00000  Uiso   1.00
C1766  C     0.58895   0.65327   0.50182   0.00000  Uiso   1.00
C1767  C     0.84717   0.58938   0.50050   0.00000  Uiso   1.00
C1768  C     0.65869   0.90519   0.49876   0.00000  Uiso   1.00
C1769  C     0.65559   0.59273   0.50055   0.00000  Uiso   1.00
C1770  C     0.55986   0.81022   0.50021   0.00000  Uiso   1.00
C1771  C     0.83759   0.90174   0.50083   0.00000  Uiso   1.00
C1772  C     0.87800   0.69315   0.40794   0.00000  Uiso   1.00
C1773  C     0.84400   0.70899   0.44286   0.00000  Uiso   1.00
C1774  C     0.82220   0.74993   0.42744   0.00000  Uiso   1.00
C1775  C     0.56897   0.85674   0.60115   0.00000  Uiso   1.00
C1776  C     0.57789   0.90212   0.61905   0.00000  Uiso   1.00
C1777  C     0.54688   0.91188   0.65759   0.00000  Uiso   1.00
C1778  C     0.60988   0.81474   0.39951   0.00000  Uiso   1.00
C1779  C     0.64490   0.83081   0.36774   0.00000  Uiso   1.00
C1780  C     0.65846   0.79596   0.33459   0.00000  Uiso   1.00
C1781  C     0.80841   0.93857   0.50013   0.00000  Uiso   1.00
C1782  C     0.96373   0.62293   0.57797   0.00000  Uiso   1.00
C1783  C     0.96718   0.58754   0.61252   0.00000  Uiso   1.00
C1784  C     0.98589   0.60418   0.65694   0.00000  Uiso   1.00
C1785  C     0.64055   0.69878   0.58296   0.00000  Uiso   1.00
C1786  C     0.67111   0.68900   0.62246   0.00000  Uiso   1.00
C1787  C     0.71459   0.71206   0.61757   0.00000  Uiso   1.00
C1788  C     0.92785   0.88861   0.40835   0.00000  Uiso   1.00
C1789  C     0.95779   0.90732   0.44615   0.00000  Uiso   1.00
C1790  C     0.50071   0.92436   0.42868   0.00000  Uiso   1.00
C1791  C     0.87615   0.79484   0.58942   0.00000  Uiso   1.00
C1792  C     0.69017   0.56042   0.50002   0.00000  Uiso   1.00
C1793  C     0.83987   0.80082   0.62335   0.00000  Uiso   1.00
C1794  C     0.82133   0.75749   0.63708   0.00000  Uiso   1.00
C1795  C     0.52619   0.60936   0.44203   0.00000  Uiso   1.00
C1796  C     0.52694   0.56003   0.44651   0.00000  Uiso   1.00
C1797  C     0.99082   0.54389   0.47714   0.00000  Uiso   1.00
C1798  C     0.61729   0.95234   0.41638   0.00000  Uiso   1.00
C1799  C     0.63561   0.98053   0.37981   0.00000  Uiso   1.00
C1800  C     0.61365   0.52421   0.37942   0.00000  Uiso   1.00
C1801  C     0.81847   0.60444   0.60133   0.00000  Uiso   1.00
C1802  C     0.82959   0.63436   0.64057   0.00000  Uiso   1.00
C1803  C     0.69043   0.93968   0.49962   0.00000  Uiso   1.00
C1804  C     0.79043   0.63837   0.33869   0.00000  Uiso   1.00
C1805  C     0.86873   0.54601   0.41044   0.00000  Uiso   1.00
C1806  C     0.90877   0.54918   0.38098   0.00000  Uiso   1.00
C1807  C     0.92935   0.50501   0.37422   0.00000  Uiso   1.00
C1808  C     0.72088   0.85714   0.55516   0.00000  Uiso   1.00
C1809  C     0.71163   0.81152   0.53647   0.00000  Uiso   1.00
C1810  C     0.75296   0.78436   0.53494   0.00000  Uiso   1.00
C1811  C     0.87993   0.94584   0.58305   0.00000  Uiso   1.00
C1812  C     0.92697   0.93304   0.59485   0.00000  Uiso   1.00
C1813  C     0.95730   0.97128   0.59034   0.00000  Uiso   1.00
C1814  C     0.81116   0.55890   0.50026   0.00000  Uiso   1.00
C1815  C     0.69169   0.63744   0.41981   0.00000  Uiso   1.00
C1816  C     0.67587   0.68432   0.42642   0.00000  Uiso   1.00
C1817  C     0.71374   0.71588   0.42441   0.00000  Uiso   1.00
C1818  C     0.62814   0.55180   0.58809   0.00000  Uiso   1.00
C1819  C     0.58237   0.55953   0.60610   0.00000  Uiso   1.00
C1820  C     0.55995   0.51635   0.61162   0.00000  Uiso   1.00
C1821  C     0.78144   0.86556   0.42679   0.00000  Uiso   1.00
C1822  C     0.77205   0.83526   0.38744   0.00000  Uiso   1.00
C1823  C     0.75874   0.85868   0.34510   0.00000  Uiso   1.00
C1824  C     0.98301   0.78373   0.35738   0.00000  Uiso   1.00
H1825  H     0.96973   0.81089   0.37532   0.00000  Uiso   1.00
H1826  H     0.90082   0.71995   0.40083   0.00000  Uiso   1.00
H1827  H     0.70795   0.63542   0.38674   0.00000  Uiso   1.00
H1828  H     0.71695   0.62940   0.44544   0.00000  Uiso   1.00
H1829  H     0.65113   0.69240   0.40043   0.00000  Uiso   1.00
H1830  H     0.66088   0.68857   0.45990   0.00000  Uiso   1.00
H1831  H     0.73847   0.70774   0.45036   0.00000  Uiso   1.00
H1832  H     0.70175   0.74910   0.43088   0.00000  Uiso   1.00
H1833  H     0.72911   0.71462   0.39098   0.00000  Uiso   1.00
H1834  H     0.64671   0.53210   0.61251   0.00000  Uiso   1.00
H1835  H     0.62592   0.53187   0.55678   0.00000  Uiso   1.00
H1836  H     0.58426   0.57697   0.63869   0.00000  Uiso   1.00
H1837  H     0.81856   0.68402   0.44778   0.00000  Uiso   1.00
H1838  H     0.56308   0.57941   0.58234   0.00000  Uiso   1.00
H1839  H     0.54788   0.50473   0.57845   0.00000  Uiso   1.00
H1840  H     0.53273   0.51894   0.63575   0.00000  Uiso   1.00
H1841  H     0.58343   0.99257   0.62490   0.00000  Uiso   1.00
H1842  H     0.75566   0.89063   0.42843   0.00000  Uiso   1.00
H1843  H     0.77819   0.84623   0.45789   0.00000  Uiso   1.00
H1844  H     0.80189   0.81687   0.37981   0.00000  Uiso   1.00
H1845  H     0.74585   0.81236   0.39667   0.00000  Uiso   1.00
H1846  H     0.73099   0.88094   0.35122   0.00000  Uiso   1.00
H1847  H     0.74865   0.83421   0.65334   0.00000  Uiso   1.00
H1848  H     0.85984   0.71659   0.47553   0.00000  Uiso   1.00
H1849  H     0.78708   0.87644   0.66505   0.00000  Uiso   1.00
H1850  H     0.79966   0.76192   0.45356   0.00000  Uiso   1.00
H1851  H     0.80315   0.74328   0.39651   0.00000  Uiso   1.00
H1852  H     0.84730   0.77490   0.42134   0.00000  Uiso   1.00
H1853  H     0.55909   0.83548   0.62906   0.00000  Uiso   1.00
H1854  H     0.54032   0.85912   0.57818   0.00000  Uiso   1.00
H1855  H     0.61221   0.90555   0.63052   0.00000  Uiso   1.00
H1856  H     0.57232   0.92535   0.59150   0.00000  Uiso   1.00
H1857  H     0.53420   0.69095   0.62499   0.00000  Uiso   1.00
H1858  H     0.51248   0.90593   0.64738   0.00000  Uiso   1.00
H1859  H     0.54999   0.94557   0.33600   0.00000  Uiso   1.00
H1860  H     0.55502   0.89033   0.35233   0.00000  Uiso   1.00
H1861  H     0.58565   0.79534   0.38017   0.00000  Uiso   1.00
H1862  H     0.62470   0.79263   0.42478   0.00000  Uiso   1.00
H1863  H     0.63228   0.85864   0.34890   0.00000  Uiso   1.00
H1864  H     0.67371   0.84148   0.38758   0.00000  Uiso   1.00
H1865  H     0.67712   0.77056   0.35227   0.00000  Uiso   1.00
H1866  H     0.67908   0.81037   0.64170   0.00000  Uiso   1.00
H1867  H     0.62946   0.78152   0.65112   0.00000  Uiso   1.00
H1868  H     0.53257   0.68998   0.37458   0.00000  Uiso   1.00
H1869  H     0.98895   0.64769   0.58444   0.00000  Uiso   1.00
H1870  H     0.97231   0.60916   0.54452   0.00000  Uiso   1.00
H1871  H     0.93478   0.57280   0.61767   0.00000  Uiso   1.00
H1872  H     0.98841   0.56214   0.59875   0.00000  Uiso   1.00
H1873  H     0.51789   0.61996   0.65186   0.00000  Uiso   1.00
H1874  H     0.99151   0.57682   0.34637   0.00000  Uiso   1.00
H1875  H     0.96295   0.62745   0.33936   0.00000  Uiso   1.00
H1876  H     0.62518   0.73074   0.58874   0.00000  Uiso   1.00
H1877  H     0.65985   0.70213   0.55139   0.00000  Uiso   1.00
H1878  H     0.65520   0.69922   0.65413   0.00000  Uiso   1.00
H1879  H     0.96995   0.81131   0.62558   0.00000  Uiso   1.00
H1880  H     0.67773   0.65403   0.62468   0.00000  Uiso   1.00
H1881  H     0.73317   0.69823   0.58898   0.00000  Uiso   1.00
H1882  H     0.73416   0.70860   0.64856   0.00000  Uiso   1.00
H1883  H     0.70925   0.74672   0.61209   0.00000  Uiso   1.00
H1884  H     0.90311   0.91302   0.39838   0.00000  Uiso   1.00
H1885  H     0.94734   0.88246   0.37769   0.00000  Uiso   1.00
H1886  H     0.94020   0.93338   0.46439   0.00000  Uiso   1.00
H1887  H     0.96680   0.88253   0.47089   0.00000  Uiso   1.00
H1888  H     0.52024   0.89668   0.41691   0.00000  Uiso   1.00
H1889  H     0.51900   0.94057   0.45632   0.00000  Uiso   1.00
H1890  H     0.71889   0.56057   0.37524   0.00000  Uiso   1.00
H1891  H     0.99577   0.94713   0.40077   0.00000  Uiso   1.00
H1892  H     0.90086   0.77258   0.60371   0.00000  Uiso   1.00
H1893  H     0.86305   0.77866   0.55844   0.00000  Uiso   1.00
H1894  H     0.85293   0.81788   0.65351   0.00000  Uiso   1.00
H1895  H     0.81385   0.82094   0.60819   0.00000  Uiso   1.00
H1896  H     0.81419   0.73695   0.60726   0.00000  Uiso   1.00
H1897  H     0.79061   0.76250   0.65576   0.00000  Uiso   1.00
H1898  H     0.84533   0.74068   0.65867   0.00000  Uiso   1.00
H1899  H     0.50088   0.61812   0.41695   0.00000  Uiso   1.00
H1900  H     0.51471   0.62419   0.47386   0.00000  Uiso   1.00
H1901  H     0.78296   0.94045   0.62458   0.00000  Uiso   1.00
H1902  H     0.52274   0.54507   0.41284   0.00000  Uiso   1.00
H1903  H     0.55849   0.54918   0.46102   0.00000  Uiso   1.00
H1904  H     0.50064   0.54874   0.51271   0.00000  Uiso   1.00
H1905  H     0.98576   0.50894   0.47164   0.00000  Uiso   1.00
H1906  H     0.95952   0.56083   0.47068   0.00000  Uiso   1.00
H1907  H     0.61672   0.97121   0.44849   0.00000  Uiso   1.00
H1908  H     0.58358   0.94299   0.40733   0.00000  Uiso   1.00
H1909  H     0.67056   0.98514   0.38687   0.00000  Uiso   1.00
H1910  H     0.63226   0.96450   0.34657   0.00000  Uiso   1.00
H1911  H     0.61479   0.53831   0.41343   0.00000  Uiso   1.00
H1912  H     0.78465   0.94157   0.37452   0.00000  Uiso   1.00
H1913  H     0.57917   0.52096   0.36870   0.00000  Uiso   1.00
H1914  H     0.63137   0.54592   0.35664   0.00000  Uiso   1.00
H1915  H     0.79916   0.57747   0.61462   0.00000  Uiso   1.00
H1916  H     0.79703   0.62175   0.57688   0.00000  Uiso   1.00
H1917  H     0.85805   0.62183   0.65964   0.00000  Uiso   1.00
H1918  H     0.83840   0.66634   0.62726   0.00000  Uiso   1.00
H1919  H     0.75942   0.63922   0.65264   0.00000  Uiso   1.00
H1920  H     0.79250   0.66805   0.35943   0.00000  Uiso   1.00
H1921  H     0.78923   0.61019   0.36121   0.00000  Uiso   1.00
H1922  H     0.84403   0.52606   0.39236   0.00000  Uiso   1.00
H1923  H     0.71929   0.56095   0.62565   0.00000  Uiso   1.00
H1924  H     0.87718   0.52844   0.44190   0.00000  Uiso   1.00
H1925  H     0.89891   0.56232   0.34810   0.00000  Uiso   1.00
H1926  H     0.93279   0.57118   0.39706   0.00000  Uiso   1.00
H1927  H     0.93552   0.99022   0.40729   0.00000  Uiso   1.00
H1928  H     0.96090   0.50797   0.35658   0.00000  Uiso   1.00
H1929  H     0.90718   0.98388   0.35429   0.00000  Uiso   1.00
H1930  H     0.74449   0.85516   0.58320   0.00000  Uiso   1.00
H1931  H     0.73778   0.87627   0.52929   0.00000  Uiso   1.00
H1932  H     0.68708   0.79520   0.55754   0.00000  Uiso   1.00
H1933  H     0.69811   0.81385   0.50185   0.00000  Uiso   1.00
H1934  H     0.86111   0.68671   0.37588   0.00000  Uiso   1.00
H1935  H     0.77969   0.80164   0.51797   0.00000  Uiso   1.00
H1936  H     0.74629   0.75345   0.51728   0.00000  Uiso   1.00
H1937  H     0.76362   0.77729   0.56943   0.00000  Uiso   1.00
H1938  H     0.86791   0.96834   0.60941   0.00000  Uiso   1.00
H1939  H     0.87927   0.96426   0.55110   0.00000  Uiso   1.00
H1940  H     0.92841   0.92069   0.62971   0.00000  Uiso   1.00
H1941  H     0.93914   0.90764   0.57176   0.00000  Uiso   1.00
H1942  H     0.95728   0.98305   0.55526   0.00000  Uiso   1.00
H1943  H     0.99074   0.96106   0.59928   0.00000  Uiso   1.00
H1944  H     0.94690   0.99756   0.61309   0.00000  Uiso   1.00
N1945  N     0.50000   0.75000   0.61907   0.00000  Uiso   1.00
N1946  N     0.50000   0.75000   0.38093   0.00000  Uiso   1.00
N1947  N     0.75000   0.50000   0.61907   0.00000  Uiso   1.00
N1948  N     0.75000   0.50000   0.38093   0.00000  Uiso   1.00
O1949  O     0.54581   0.70419   0.53821   0.00000  Uiso   1.00
O1950  O     0.70420   0.54581   0.46179   0.00000  Uiso   1.00
O1951  O     0.70420   0.54581   0.53821   0.00000  Uiso   1.00
O1952  O     0.79581   0.95419   0.46179   0.00000  Uiso   1.00
O1953  O     0.70420   0.95419   0.46179   0.00000  Uiso   1.00
O1954  O     0.79581   0.54581   0.53821   0.00000  Uiso   1.00
O1955  O     0.79581   0.54581   0.46179   0.00000  Uiso   1.00
O1956  O     0.70420   0.95419   0.53821   0.00000  Uiso   1.00
O1957  O     0.90337   0.65587   0.41820   0.00000  Uiso   1.00
O1958  O     0.60598   0.83708   0.58129   0.00000  Uiso   1.00
O1959  O     0.58688   0.84988   0.41865   0.00000  Uiso   1.00
O1960  O     0.95420   0.79581   0.46179   0.00000  Uiso   1.00
O1961  O     0.92186   0.64237   0.58002   0.00000  Uiso   1.00
O1962  O     0.60691   0.66753   0.58054   0.00000  Uiso   1.00
O1963  O     0.90714   0.84922   0.41984   0.00000  Uiso   1.00
O1964  O     0.89655   0.83494   0.58189   0.00000  Uiso   1.00
O1965  O     0.56699   0.62607   0.42732   0.00000  Uiso   1.00
O1966  O     0.64393   0.91554   0.41948   0.00000  Uiso   1.00
O1967  O     0.85629   0.58570   0.58235   0.00000  Uiso   1.00
O1968  O     0.85035   0.58736   0.41795   0.00000  Uiso   1.00
O1969  O     0.68287   0.87840   0.57154   0.00000  Uiso   1.00
O1970  O     0.85167   0.90969   0.58180   0.00000  Uiso   1.00
O1971  O     0.95420   0.79581   0.53821   0.00000  Uiso   1.00
O1972  O     0.65728   0.60670   0.41945   0.00000  Uiso   1.00
O1973  O     0.65098   0.59090   0.58259   0.00000  Uiso   1.00
O1974  O     0.82309   0.88509   0.42160   0.00000  Uiso   1.00
O1975  O     0.54581   0.70419   0.46179   0.00000  Uiso   1.00
O1976  O     0.95420   0.70419   0.46179   0.00000  Uiso   1.00
O1977  O     0.54581   0.79581   0.53821   0.00000  Uiso   1.00
O1978  O     0.54581   0.79581   0.46179   0.00000  Uiso   1.00
O1979  O     0.95420   0.70419   0.53821   0.00000  Uiso   1.00
O1980  O     0.79581   0.95419   0.53821   0.00000  Uiso   1.00
Zn1981 Zn    0.50000   0.75000   0.55104   0.00000  Uiso   1.00
Zn1982 Zn    0.50000   0.75000   0.44896   0.00000  Uiso   1.00
Zn1983 Zn    0.75000   0.50000   0.55104   0.00000  Uiso   1.00
Zn1984 Zn    0.75000   0.50000   0.44896   0.00000  Uiso   1.00
C1985  C     0.05918   0.18937   0.83364   0.00000  Uiso   1.00
C1986  C     0.01848   0.21702   0.97604   0.00000  Uiso   1.00
C1987  C     0.01805   0.21675   0.69036   0.00000  Uiso   1.00
C1988  C     0.48303   0.28379   0.97639   0.00000  Uiso   1.00
C1989  C     0.23286   0.03367   0.69070   0.00000  Uiso   1.00
C1990  C     0.26834   0.46699   0.97592   0.00000  Uiso   1.00
C1991  C     0.26879   0.46729   0.69027   0.00000  Uiso   1.00
C1992  C     0.23259   0.03355   0.97642   0.00000  Uiso   1.00
C1993  C     0.39280   0.13790   0.79231   0.00000  Uiso   1.00
C1994  C     0.11479   0.35574   0.87377   0.00000  Uiso   1.00
C1995  C     0.10585   0.36174   0.79247   0.00000  Uiso   1.00
C1996  C     0.43818   0.30824   0.83334   0.00000  Uiso   1.00
C1997  C     0.39945   0.13368   0.87380   0.00000  Uiso   1.00
C1998  C     0.11179   0.14356   0.87492   0.00000  Uiso   1.00
C1999  C     0.38453   0.35446   0.79289   0.00000  Uiso   1.00
C2000  C     0.38272   0.35124   0.87449   0.00000  Uiso   1.00
C2001  C     0.09616   0.12820   0.79652   0.00000  Uiso   1.00
C2002  C     0.13526   0.39538   0.79270   0.00000  Uiso   1.00
C2003  C     0.36562   0.10431   0.87482   0.00000  Uiso   1.00
C2004  C     0.36417   0.10364   0.79247   0.00000  Uiso   1.00
C2005  C     0.15182   0.38110   0.87093   0.00000  Uiso   1.00
C2006  C     0.35696   0.38792   0.87477   0.00000  Uiso   1.00
C2007  C     0.44125   0.18888   0.83313   0.00000  Uiso   1.00
C2008  C     0.13630   0.10763   0.79373   0.00000  Uiso   1.00
C2009  C     0.13925   0.10820   0.87513   0.00000  Uiso   1.00
C2010  C     0.34739   0.38001   0.79392   0.00000  Uiso   1.00
C2011  C     0.09312   0.34352   0.83359   0.00000  Uiso   1.00
C2012  C     0.41080   0.15310   0.83296   0.00000  Uiso   1.00
C2013  C     0.40086   0.33753   0.83345   0.00000  Uiso   1.00
C2014  C     0.08895   0.15327   0.83515   0.00000  Uiso   1.00
C2015  C     0.34717   0.08938   0.83383   0.00000  Uiso   1.00
C2016  C     0.15869   0.40519   0.83210   0.00000  Uiso   1.00
C2017  C     0.15559   0.09273   0.83388   0.00000  Uiso   1.00
C2018  C     0.05986   0.31022   0.83354   0.00000  Uiso   1.00
C2019  C     0.33759   0.40174   0.83417   0.00000  Uiso   1.00
C2020  C     0.37800   0.19315   0.74127   0.00000  Uiso   1.00
C2021  C     0.34400   0.20899   0.77620   0.00000  Uiso   1.00
C2022  C     0.32220   0.24993   0.76077   0.00000  Uiso   1.00
C2023  C     0.06897   0.35674   0.93448   0.00000  Uiso   1.00
C2024  C     0.07789   0.40212   0.95238   0.00000  Uiso   1.00
C2025  C     0.04688   0.41188   0.99092   0.00000  Uiso   1.00
C2026  C     0.10988   0.31474   0.73284   0.00000  Uiso   1.00
C2027  C     0.14490   0.33081   0.70108   0.00000  Uiso   1.00
C2028  C     0.15846   0.29596   0.66792   0.00000  Uiso   1.00
C2029  C     0.30841   0.43857   0.83346   0.00000  Uiso   1.00
C2030  C     0.46373   0.12293   0.91130   0.00000  Uiso   1.00
C2031  C     0.46718   0.08754   0.94586   0.00000  Uiso   1.00
C2032  C     0.48589   0.10418   0.99027   0.00000  Uiso   1.00
C2033  C     0.14055   0.19878   0.91629   0.00000  Uiso   1.00
C2034  C     0.17111   0.18900   0.95579   0.00000  Uiso   1.00
C2035  C     0.21459   0.21206   0.95091   0.00000  Uiso   1.00
C2036  C     0.42785   0.38861   0.74168   0.00000  Uiso   1.00
C2037  C     0.45779   0.40732   0.77948   0.00000  Uiso   1.00
C2038  C     0.00071   0.42436   0.76202   0.00000  Uiso   1.00
C2039  C     0.37615   0.29484   0.92275   0.00000  Uiso   1.00
C2040  C     0.19017   0.06042   0.83335   0.00000  Uiso   1.00
C2041  C     0.33987   0.30082   0.95668   0.00000  Uiso   1.00
C2042  C     0.32133   0.25749   0.97041   0.00000  Uiso   1.00
C2043  C     0.02619   0.10936   0.77536   0.00000  Uiso   1.00
C2044  C     0.02694   0.06003   0.77984   0.00000  Uiso   1.00
C2045  C     0.49082   0.04389   0.81048   0.00000  Uiso   1.00
C2046  C     0.11729   0.45234   0.74971   0.00000  Uiso   1.00
C2047  C     0.13561   0.48053   0.71314   0.00000  Uiso   1.00
C2048  C     0.11365   0.02421   0.71275   0.00000  Uiso   1.00
C2049  C     0.31847   0.10444   0.93466   0.00000  Uiso   1.00
C2050  C     0.32959   0.13436   0.97390   0.00000  Uiso   1.00
C2051  C     0.19043   0.43968   0.83296   0.00000  Uiso   1.00
C2052  C     0.29043   0.13837   0.67203   0.00000  Uiso   1.00
C2053  C     0.36873   0.04601   0.74377   0.00000  Uiso   1.00
C2054  C     0.40877   0.04918   0.71432   0.00000  Uiso   1.00
C2055  C     0.42935   0.00501   0.70756   0.00000  Uiso   1.00
C2056  C     0.22088   0.35714   0.88849   0.00000  Uiso   1.00
C2057  C     0.21163   0.31152   0.86980   0.00000  Uiso   1.00
C2058  C     0.25296   0.28436   0.86827   0.00000  Uiso   1.00
C2059  C     0.37993   0.44584   0.91638   0.00000  Uiso   1.00
C2060  C     0.42697   0.43304   0.92818   0.00000  Uiso   1.00
C2061  C     0.45730   0.47128   0.92368   0.00000  Uiso   1.00
C2062  C     0.31116   0.05890   0.83359   0.00000  Uiso   1.00
C2063  C     0.19169   0.13744   0.75314   0.00000  Uiso   1.00
C2064  C     0.17587   0.18432   0.75976   0.00000  Uiso   1.00
C2065  C     0.21374   0.21588   0.75774   0.00000  Uiso   1.00
C2066  C     0.12814   0.05180   0.92143   0.00000  Uiso   1.00
C2067  C     0.08237   0.05953   0.93943   0.00000  Uiso   1.00
C2068  C     0.05995   0.01635   0.94496   0.00000  Uiso   1.00
C2069  C     0.28144   0.36556   0.76013   0.00000  Uiso   1.00
C2070  C     0.27205   0.33526   0.72077   0.00000  Uiso   1.00
C2071  C     0.25874   0.35868   0.67843   0.00000  Uiso   1.00
C2072  C     0.48301   0.28373   0.69072   0.00000  Uiso   1.00
H2073  H     0.46973   0.31089   0.70865   0.00000  Uiso   1.00
H2074  H     0.40082   0.21995   0.73416   0.00000  Uiso   1.00
H2075  H     0.20795   0.13542   0.72007   0.00000  Uiso   1.00
H2076  H     0.21695   0.12940   0.77877   0.00000  Uiso   1.00
H2077  H     0.15113   0.19240   0.73376   0.00000  Uiso   1.00
H2078  H     0.16088   0.18857   0.79324   0.00000  Uiso   1.00
H2079  H     0.23847   0.20774   0.78369   0.00000  Uiso   1.00
H2080  H     0.20175   0.24910   0.76421   0.00000  Uiso   1.00
H2081  H     0.22911   0.21462   0.72431   0.00000  Uiso   1.00
H2082  H     0.14671   0.03210   0.94584   0.00000  Uiso   1.00
H2083  H     0.12592   0.03187   0.89011   0.00000  Uiso   1.00
H2084  H     0.08426   0.07697   0.97203   0.00000  Uiso   1.00
H2085  H     0.31856   0.18402   0.78111   0.00000  Uiso   1.00
H2086  H     0.06308   0.07941   0.91568   0.00000  Uiso   1.00
H2087  H     0.04788   0.00473   0.91178   0.00000  Uiso   1.00
H2088  H     0.03273   0.01894   0.96908   0.00000  Uiso   1.00
H2089  H     0.08343   0.49257   0.95823   0.00000  Uiso   1.00
H2090  H     0.25566   0.39063   0.76176   0.00000  Uiso   1.00
H2091  H     0.27819   0.34623   0.79122   0.00000  Uiso   1.00
H2092  H     0.30189   0.31687   0.71314   0.00000  Uiso   1.00
H2093  H     0.24585   0.31236   0.73000   0.00000  Uiso   1.00
H2094  H     0.23099   0.38094   0.68456   0.00000  Uiso   1.00
H2095  H     0.24865   0.33421   0.98668   0.00000  Uiso   1.00
H2096  H     0.35984   0.21659   0.80886   0.00000  Uiso   1.00
H2097  H     0.28708   0.37644   0.99839   0.00000  Uiso   1.00
H2098  H     0.29966   0.26192   0.78689   0.00000  Uiso   1.00
H2099  H     0.30315   0.24328   0.72984   0.00000  Uiso   1.00
H2100  H     0.34730   0.27490   0.75467   0.00000  Uiso   1.00
H2101  H     0.05909   0.33548   0.96239   0.00000  Uiso   1.00
H2102  H     0.04032   0.35912   0.91152   0.00000  Uiso   1.00
H2103  H     0.11221   0.40555   0.96385   0.00000  Uiso   1.00
H2104  H     0.07232   0.42535   0.92483   0.00000  Uiso   1.00
H2105  H     0.03420   0.19095   0.95833   0.00000  Uiso   1.00
H2106  H     0.01248   0.40593   0.98071   0.00000  Uiso   1.00
H2107  H     0.04999   0.44557   0.66933   0.00000  Uiso   1.00
H2108  H     0.05502   0.39033   0.68567   0.00000  Uiso   1.00
H2109  H     0.08565   0.29534   0.71351   0.00000  Uiso   1.00
H2110  H     0.12470   0.29263   0.75811   0.00000  Uiso   1.00
H2111  H     0.13228   0.35864   0.68224   0.00000  Uiso   1.00
H2112  H     0.17371   0.34148   0.72092   0.00000  Uiso   1.00
H2113  H     0.17712   0.27056   0.68560   0.00000  Uiso   1.00
H2114  H     0.17908   0.31037   0.97503   0.00000  Uiso   1.00
H2115  H     0.12946   0.28152   0.98446   0.00000  Uiso   1.00
H2116  H     0.03257   0.18998   0.70791   0.00000  Uiso   1.00
H2117  H     0.48895   0.14769   0.91778   0.00000  Uiso   1.00
H2118  H     0.47231   0.10916   0.87786   0.00000  Uiso   1.00
H2119  H     0.43478   0.07280   0.95101   0.00000  Uiso   1.00
H2120  H     0.48841   0.06214   0.93208   0.00000  Uiso   1.00
H2121  H     0.01789   0.11996   0.98520   0.00000  Uiso   1.00
H2122  H     0.49151   0.07682   0.67970   0.00000  Uiso   1.00
H2123  H     0.46295   0.12745   0.67269   0.00000  Uiso   1.00
H2124  H     0.12518   0.23074   0.92208   0.00000  Uiso   1.00
H2125  H     0.15985   0.20213   0.88473   0.00000  Uiso   1.00
H2126  H     0.15520   0.19922   0.98746   0.00000  Uiso   1.00
H2127  H     0.46995   0.31131   0.95891   0.00000  Uiso   1.00
H2128  H     0.17773   0.15403   0.95802   0.00000  Uiso   1.00
H2129  H     0.23317   0.19823   0.92231   0.00000  Uiso   1.00
H2130  H     0.23416   0.20860   0.98189   0.00000  Uiso   1.00
H2131  H     0.20925   0.24672   0.94542   0.00000  Uiso   1.00
H2132  H     0.40311   0.41302   0.73172   0.00000  Uiso   1.00
H2133  H     0.44734   0.38246   0.71103   0.00000  Uiso   1.00
H2134  H     0.44020   0.43338   0.79772   0.00000  Uiso   1.00
H2135  H     0.46680   0.38253   0.80423   0.00000  Uiso   1.00
H2136  H     0.02024   0.39668   0.75024   0.00000  Uiso   1.00
H2137  H     0.01900   0.44057   0.78966   0.00000  Uiso   1.00
H2138  H     0.21889   0.06057   0.70857   0.00000  Uiso   1.00
H2139  H     0.49577   0.44713   0.73410   0.00000  Uiso   1.00
H2140  H     0.40086   0.27258   0.93705   0.00000  Uiso   1.00
H2141  H     0.36305   0.27866   0.89178   0.00000  Uiso   1.00
H2142  H     0.35293   0.31788   0.98685   0.00000  Uiso   1.00
H2143  H     0.31385   0.32094   0.94152   0.00000  Uiso   1.00
H2144  H     0.31419   0.23695   0.94060   0.00000  Uiso   1.00
H2145  H     0.29061   0.26250   0.98909   0.00000  Uiso   1.00
H2146  H     0.34533   0.24068   0.99201   0.00000  Uiso   1.00
H2147  H     0.00088   0.11812   0.75028   0.00000  Uiso   1.00
H2148  H     0.01471   0.12419   0.80720   0.00000  Uiso   1.00
H2149  H     0.28296   0.44045   0.95791   0.00000  Uiso   1.00
H2150  H     0.02274   0.04507   0.74618   0.00000  Uiso   1.00
H2151  H     0.05849   0.04918   0.79435   0.00000  Uiso   1.00
H2152  H     0.00064   0.04874   0.84605   0.00000  Uiso   1.00
H2153  H     0.48576   0.00894   0.80497   0.00000  Uiso   1.00
H2154  H     0.45952   0.06083   0.80402   0.00000  Uiso   1.00
H2155  H     0.11672   0.47121   0.78183   0.00000  Uiso   1.00
H2156  H     0.08358   0.44299   0.74067   0.00000  Uiso   1.00
H2157  H     0.17056   0.48514   0.72021   0.00000  Uiso   1.00
H2158  H     0.13226   0.46450   0.67991   0.00000  Uiso   1.00
H2159  H     0.11479   0.03831   0.74677   0.00000  Uiso   1.00
H2160  H     0.28465   0.44157   0.70785   0.00000  Uiso   1.00
H2161  H     0.07917   0.02096   0.70204   0.00000  Uiso   1.00
H2162  H     0.13137   0.04592   0.68997   0.00000  Uiso   1.00
H2163  H     0.29916   0.07747   0.94796   0.00000  Uiso   1.00
H2164  H     0.29703   0.12175   0.91022   0.00000  Uiso   1.00
H2165  H     0.35805   0.12183   0.99297   0.00000  Uiso   1.00
H2166  H     0.33840   0.16634   0.96059   0.00000  Uiso   1.00
H2167  H     0.25942   0.13922   0.98597   0.00000  Uiso   1.00
H2168  H     0.29250   0.16805   0.69277   0.00000  Uiso   1.00
H2169  H     0.28923   0.11019   0.69455   0.00000  Uiso   1.00
H2170  H     0.34403   0.02606   0.72569   0.00000  Uiso   1.00
H2171  H     0.21929   0.06095   0.95898   0.00000  Uiso   1.00
H2172  H     0.37718   0.02844   0.77523   0.00000  Uiso   1.00
H2173  H     0.39891   0.06232   0.68143   0.00000  Uiso   1.00
H2174  H     0.43279   0.07118   0.73039   0.00000  Uiso   1.00
H2175  H     0.43552   0.49022   0.74062   0.00000  Uiso   1.00
H2176  H     0.46090   0.00797   0.68991   0.00000  Uiso   1.00
H2177  H     0.40718   0.48388   0.68763   0.00000  Uiso   1.00
H2178  H     0.24449   0.35516   0.91653   0.00000  Uiso   1.00
H2179  H     0.23778   0.37627   0.86262   0.00000  Uiso   1.00
H2180  H     0.18708   0.29520   0.89087   0.00000  Uiso   1.00
H2181  H     0.19811   0.31385   0.83518   0.00000  Uiso   1.00
H2182  H     0.36111   0.18671   0.70921   0.00000  Uiso   1.00
H2183  H     0.27969   0.30164   0.85131   0.00000  Uiso   1.00
H2184  H     0.24629   0.25345   0.85062   0.00000  Uiso   1.00
H2185  H     0.26362   0.27729   0.90276   0.00000  Uiso   1.00
H2186  H     0.36791   0.46834   0.94274   0.00000  Uiso   1.00
H2187  H     0.37927   0.46426   0.88443   0.00000  Uiso   1.00
H2188  H     0.42841   0.42069   0.96304   0.00000  Uiso   1.00
H2189  H     0.43914   0.40764   0.90510   0.00000  Uiso   1.00
H2190  H     0.45728   0.48305   0.88860   0.00000  Uiso   1.00
H2191  H     0.49074   0.46106   0.93261   0.00000  Uiso   1.00
H2192  H     0.44690   0.49756   0.94643   0.00000  Uiso   1.00
N2193  N     0.00000   0.25000   0.95240   0.00000  Uiso   1.00
N2194  N     0.00000   0.25000   0.71427   0.00000  Uiso   1.00
N2195  N     0.25000   0.00000   0.95240   0.00000  Uiso   1.00
N2196  N     0.25000   0.00000   0.71427   0.00000  Uiso   1.00
O2197  O     0.04581   0.20419   0.87154   0.00000  Uiso   1.00
O2198  O     0.20420   0.04581   0.79513   0.00000  Uiso   1.00
O2199  O     0.20420   0.04581   0.87154   0.00000  Uiso   1.00
O2200  O     0.29581   0.45419   0.79513   0.00000  Uiso   1.00
O2201  O     0.20420   0.45419   0.79513   0.00000  Uiso   1.00
O2202  O     0.29581   0.04581   0.87154   0.00000  Uiso   1.00
O2203  O     0.29581   0.04581   0.79513   0.00000  Uiso   1.00
O2204  O     0.20420   0.45419   0.87154   0.00000  Uiso   1.00
O2205  O     0.40337   0.15587   0.75153   0.00000  Uiso   1.00
O2206  O     0.10598   0.33708   0.91462   0.00000  Uiso   1.00
O2207  O     0.08688   0.34988   0.75198   0.00000  Uiso   1.00
O2208  O     0.45420   0.29581   0.79513   0.00000  Uiso   1.00
O2209  O     0.42186   0.14237   0.91336   0.00000  Uiso   1.00
O2210  O     0.10691   0.16753   0.91387   0.00000  Uiso   1.00
O2211  O     0.40714   0.34922   0.75317   0.00000  Uiso   1.00
O2212  O     0.39655   0.33494   0.91522   0.00000  Uiso   1.00
O2213  O     0.06699   0.12607   0.76066   0.00000  Uiso   1.00
O2214  O     0.14393   0.41554   0.75282   0.00000  Uiso   1.00
O2215  O     0.35629   0.08570   0.91568   0.00000  Uiso   1.00
O2216  O     0.35035   0.08736   0.75128   0.00000  Uiso   1.00
O2217  O     0.18287   0.37840   0.90488   0.00000  Uiso   1.00
O2218  O     0.35167   0.40969   0.91513   0.00000  Uiso   1.00
O2219  O     0.45420   0.29581   0.87154   0.00000  Uiso   1.00
O2220  O     0.15728   0.10670   0.75279   0.00000  Uiso   1.00
O2221  O     0.15098   0.09090   0.91593   0.00000  Uiso   1.00
O2222  O     0.32309   0.38509   0.75493   0.00000  Uiso   1.00
O2223  O     0.04581   0.20419   0.79513   0.00000  Uiso   1.00
O2224  O     0.45420   0.20419   0.79513   0.00000  Uiso   1.00
O2225  O     0.04581   0.29581   0.87154   0.00000  Uiso   1.00
O2226  O     0.04581   0.29581   0.79513   0.00000  Uiso   1.00
O2227  O     0.45420   0.20419   0.87154   0.00000  Uiso   1.00
O2228  O     0.29581   0.45419   0.87154   0.00000  Uiso   1.00
Zn2229 Zn    0.00000   0.25000   0.88437   0.00000  Uiso   1.00
Zn2230 Zn    0.00000   0.25000   0.78229   0.00000  Uiso   1.00
Zn2231 Zn    0.25000   0.00000   0.88437   0.00000  Uiso   1.00
Zn2232 Zn    0.25000   0.00000   0.78229   0.00000  Uiso   1.00
C2233  C     0.55918   0.18937   0.83364   0.00000  Uiso   1.00
C2234  C     0.51848   0.21702   0.97604   0.00000  Uiso   1.00
C2235  C     0.51805   0.21675   0.69036   0.00000  Uiso   1.00
C2236  C     0.98303   0.28379   0.97639   0.00000  Uiso   1.00
C2237  C     0.73286   0.03367   0.69070   0.00000  Uiso   1.00
C2238  C     0.76834   0.46699   0.97592   0.00000  Uiso   1.00
C2239  C     0.76879   0.46729   0.69027   0.00000  Uiso   1.00
C2240  C     0.73259   0.03355   0.97642   0.00000  Uiso   1.00
C2241  C     0.89280   0.13790   0.79231   0.00000  Uiso   1.00
C2242  C     0.61479   0.35574   0.87377   0.00000  Uiso   1.00
C2243  C     0.60585   0.36174   0.79247   0.00000  Uiso   1.00
C2244  C     0.93818   0.30824   0.83334   0.00000  Uiso   1.00
C2245  C     0.89945   0.13368   0.87380   0.00000  Uiso   1.00
C2246  C     0.61179   0.14356   0.87492   0.00000  Uiso   1.00
C2247  C     0.88453   0.35446   0.79289   0.00000  Uiso   1.00
C2248  C     0.88272   0.35124   0.87449   0.00000  Uiso   1.00
C2249  C     0.59616   0.12820   0.79652   0.00000  Uiso   1.00
C2250  C     0.63526   0.39538   0.79270   0.00000  Uiso   1.00
C2251  C     0.86562   0.10431   0.87482   0.00000  Uiso   1.00
C2252  C     0.86417   0.10364   0.79247   0.00000  Uiso   1.00
C2253  C     0.65182   0.38110   0.87093   0.00000  Uiso   1.00
C2254  C     0.85696   0.38792   0.87477   0.00000  Uiso   1.00
C2255  C     0.94125   0.18888   0.83313   0.00000  Uiso   1.00
C2256  C     0.63630   0.10763   0.79373   0.00000  Uiso   1.00
C2257  C     0.63925   0.10820   0.87513   0.00000  Uiso   1.00
C2258  C     0.84739   0.38001   0.79392   0.00000  Uiso   1.00
C2259  C     0.59312   0.34352   0.83359   0.00000  Uiso   1.00
C2260  C     0.91080   0.15310   0.83296   0.00000  Uiso   1.00
C2261  C     0.90086   0.33753   0.83345   0.00000  Uiso   1.00
C2262  C     0.58895   0.15327   0.83515   0.00000  Uiso   1.00
C2263  C     0.84717   0.08938   0.83383   0.00000  Uiso   1.00
C2264  C     0.65869   0.40519   0.83210   0.00000  Uiso   1.00
C2265  C     0.65559   0.09273   0.83388   0.00000  Uiso   1.00
C2266  C     0.55986   0.31022   0.83354   0.00000  Uiso   1.00
C2267  C     0.83759   0.40174   0.83417   0.00000  Uiso   1.00
C2268  C     0.87800   0.19315   0.74127   0.00000  Uiso   1.00
C2269  C     0.84400   0.20899   0.77620   0.00000  Uiso   1.00
C2270  C     0.82220   0.24993   0.76077   0.00000  Uiso   1.00
C2271  C     0.56897   0.35674   0.93448   0.00000  Uiso   1.00
C2272  C     0.57789   0.40212   0.95238   0.00000  Uiso   1.00
C2273  C     0.54688   0.41188   0.99092   0.00000  Uiso   1.00
C2274  C     0.60988   0.31474   0.73284   0.00000  Uiso   1.00
C2275  C     0.64490   0.33081   0.70108   0.00000  Uiso   1.00
C2276  C     0.65846   0.29596   0.66792   0.00000  Uiso   1.00
C2277  C     0.80841   0.43857   0.83346   0.00000  Uiso   1.00
C2278  C     0.96373   0.12293   0.91130   0.00000  Uiso   1.00
C2279  C     0.96718   0.08754   0.94586   0.00000  Uiso   1.00
C2280  C     0.98589   0.10418   0.99027   0.00000  Uiso   1.00
C2281  C     0.64055   0.19878   0.91629   0.00000  Uiso   1.00
C2282  C     0.67111   0.18900   0.95579   0.00000  Uiso   1.00
C2283  C     0.71459   0.21206   0.95091   0.00000  Uiso   1.00
C2284  C     0.92785   0.38861   0.74168   0.00000  Uiso   1.00
C2285  C     0.95779   0.40732   0.77948   0.00000  Uiso   1.00
C2286  C     0.50071   0.42436   0.76202   0.00000  Uiso   1.00
C2287  C     0.87615   0.29484   0.92275   0.00000  Uiso   1.00
C2288  C     0.69017   0.06042   0.83335   0.00000  Uiso   1.00
C2289  C     0.83987   0.30082   0.95668   0.00000  Uiso   1.00
C2290  C     0.82133   0.25749   0.97041   0.00000  Uiso   1.00
C2291  C     0.52619   0.10936   0.77536   0.00000  Uiso   1.00
C2292  C     0.52694   0.06003   0.77984   0.00000  Uiso   1.00
C2293  C     0.99082   0.04389   0.81048   0.00000  Uiso   1.00
C2294  C     0.61729   0.45234   0.74971   0.00000  Uiso   1.00
C2295  C     0.63561   0.48053   0.71314   0.00000  Uiso   1.00
C2296  C     0.61365   0.02421   0.71275   0.00000  Uiso   1.00
C2297  C     0.81847   0.10444   0.93466   0.00000  Uiso   1.00
C2298  C     0.82959   0.13436   0.97390   0.00000  Uiso   1.00
C2299  C     0.69043   0.43968   0.83296   0.00000  Uiso   1.00
C2300  C     0.79043   0.13837   0.67203   0.00000  Uiso   1.00
C2301  C     0.86873   0.04601   0.74377   0.00000  Uiso   1.00
C2302  C     0.90877   0.04918   0.71432   0.00000  Uiso   1.00
C2303  C     0.92935   0.00501   0.70756   0.00000  Uiso   1.00
C2304  C     0.72088   0.35714   0.88849   0.00000  Uiso   1.00
C2305  C     0.71163   0.31152   0.86980   0.00000  Uiso   1.00
C2306  C     0.75296   0.28436   0.86827   0.00000  Uiso   1.00
C2307  C     0.87993   0.44584   0.91638   0.00000  Uiso   1.00
C2308  C     0.92697   0.43304   0.92818   0.00000  Uiso   1.00
C2309  C     0.95730   0.47128   0.92368   0.00000  Uiso   1.00
C2310  C     0.81116   0.05890   0.83359   0.00000  Uiso   1.00
C2311  C     0.69169   0.13744   0.75314   0.00000  Uiso   1.00
C2312  C     0.67587   0.18432   0.75976   0.00000  Uiso   1.00
C2313  C     0.71374   0.21588   0.75774   0.00000  Uiso   1.00
C2314  C     0.62814   0.05180   0.92143   0.00000  Uiso   1.00
C2315  C     0.58237   0.05953   0.93943   0.00000  Uiso   1.00
C2316  C     0.55995   0.01635   0.94496   0.00000  Uiso   1.00
C2317  C     0.78144   0.36556   0.76013   0.00000  Uiso   1.00
C2318  C     0.77205   0.33526   0.72077   0.00000  Uiso   1.00
C2319  C     0.75874   0.35868   0.67843   0.00000  Uiso   1.00
C2320  C     0.98301   0.28373   0.69072   0.00000  Uiso   1.00
H2321  H     0.96973   0.31089   0.70865   0.00000  Uiso   1.00
H2322  H     0.90082   0.21995   0.73416   0.00000  Uiso   1.00
H2323  H     0.70795   0.13542   0.72007   0.00000  Uiso   1.00
H2324  H     0.71695   0.12940   0.77877   0.00000  Uiso   1.00
H2325  H     0.65113   0.19240   0.73376   0.00000  Uiso   1.00
H2326  H     0.66088   0.18857   0.79324   0.00000  Uiso   1.00
H2327  H     0.73847   0.20774   0.78369   0.00000  Uiso   1.00
H2328  H     0.70175   0.24910   0.76421   0.00000  Uiso   1.00
H2329  H     0.72911   0.21462   0.72431   0.00000  Uiso   1.00
H2330  H     0.64671   0.03210   0.94584   0.00000  Uiso   1.00
H2331  H     0.62592   0.03187   0.89011   0.00000  Uiso   1.00
H2332  H     0.58426   0.07697   0.97203   0.00000  Uiso   1.00
H2333  H     0.81856   0.18402   0.78111   0.00000  Uiso   1.00
H2334  H     0.56308   0.07941   0.91568   0.00000  Uiso   1.00
H2335  H     0.54788   0.00473   0.91178   0.00000  Uiso   1.00
H2336  H     0.53273   0.01894   0.96908   0.00000  Uiso   1.00
H2337  H     0.58343   0.49257   0.95823   0.00000  Uiso   1.00
H2338  H     0.75566   0.39063   0.76176   0.00000  Uiso   1.00
H2339  H     0.77819   0.34623   0.79122   0.00000  Uiso   1.00
H2340  H     0.80189   0.31687   0.71314   0.00000  Uiso   1.00
H2341  H     0.74585   0.31236   0.73000   0.00000  Uiso   1.00
H2342  H     0.73099   0.38094   0.68456   0.00000  Uiso   1.00
H2343  H     0.74865   0.33421   0.98668   0.00000  Uiso   1.00
H2344  H     0.85984   0.21659   0.80886   0.00000  Uiso   1.00
H2345  H     0.78708   0.37644   0.99839   0.00000  Uiso   1.00
H2346  H     0.79966   0.26192   0.78689   0.00000  Uiso   1.00
H2347  H     0.80315   0.24328   0.72984   0.00000  Uiso   1.00
H2348  H     0.84730   0.27490   0.75467   0.00000  Uiso   1.00
H2349  H     0.55909   0.33548   0.96239   0.00000  Uiso   1.00
H2350  H     0.54032   0.35912   0.91152   0.00000  Uiso   1.00
H2351  H     0.61221   0.40555   0.96385   0.00000  Uiso   1.00
H2352  H     0.57232   0.42535   0.92483   0.00000  Uiso   1.00
H2353  H     0.53420   0.19095   0.95833   0.00000  Uiso   1.00
H2354  H     0.51248   0.40593   0.98071   0.00000  Uiso   1.00
H2355  H     0.54999   0.44557   0.66933   0.00000  Uiso   1.00
H2356  H     0.55502   0.39033   0.68567   0.00000  Uiso   1.00
H2357  H     0.58565   0.29534   0.71351   0.00000  Uiso   1.00
H2358  H     0.62470   0.29263   0.75811   0.00000  Uiso   1.00
H2359  H     0.63228   0.35864   0.68224   0.00000  Uiso   1.00
H2360  H     0.67371   0.34148   0.72092   0.00000  Uiso   1.00
H2361  H     0.67712   0.27056   0.68560   0.00000  Uiso   1.00
H2362  H     0.67908   0.31037   0.97503   0.00000  Uiso   1.00
H2363  H     0.62946   0.28152   0.98446   0.00000  Uiso   1.00
H2364  H     0.53257   0.18998   0.70791   0.00000  Uiso   1.00
H2365  H     0.98895   0.14769   0.91778   0.00000  Uiso   1.00
H2366  H     0.97231   0.10916   0.87786   0.00000  Uiso   1.00
H2367  H     0.93478   0.07280   0.95101   0.00000  Uiso   1.00
H2368  H     0.98841   0.06214   0.93208   0.00000  Uiso   1.00
H2369  H     0.51789   0.11996   0.98520   0.00000  Uiso   1.00
H2370  H     0.99151   0.07682   0.67970   0.00000  Uiso   1.00
H2371  H     0.96295   0.12745   0.67269   0.00000  Uiso   1.00
H2372  H     0.62518   0.23074   0.92208   0.00000  Uiso   1.00
H2373  H     0.65985   0.20213   0.88473   0.00000  Uiso   1.00
H2374  H     0.65520   0.19922   0.98746   0.00000  Uiso   1.00
H2375  H     0.96995   0.31131   0.95891   0.00000  Uiso   1.00
H2376  H     0.67773   0.15403   0.95802   0.00000  Uiso   1.00
H2377  H     0.73317   0.19823   0.92231   0.00000  Uiso   1.00
H2378  H     0.73416   0.20860   0.98189   0.00000  Uiso   1.00
H2379  H     0.70925   0.24672   0.94542   0.00000  Uiso   1.00
H2380  H     0.90311   0.41302   0.73172   0.00000  Uiso   1.00
H2381  H     0.94734   0.38246   0.71103   0.00000  Uiso   1.00
H2382  H     0.94020   0.43338   0.79772   0.00000  Uiso   1.00
H2383  H     0.96680   0.38253   0.80423   0.00000  Uiso   1.00
H2384  H     0.52024   0.39668   0.75024   0.00000  Uiso   1.00
H2385  H     0.51900   0.44057   0.78966   0.00000  Uiso   1.00
H2386  H     0.71889   0.06057   0.70857   0.00000  Uiso   1.00
H2387  H     0.99577   0.44713   0.73410   0.00000  Uiso   1.00
H2388  H     0.90086   0.27258   0.93705   0.00000  Uiso   1.00
H2389  H     0.86305   0.27866   0.89178   0.00000  Uiso   1.00
H2390  H     0.85293   0.31788   0.98685   0.00000  Uiso   1.00
H2391  H     0.81385   0.32094   0.94152   0.00000  Uiso   1.00
H2392  H     0.81419   0.23695   0.94060   0.00000  Uiso   1.00
H2393  H     0.79061   0.26250   0.98909   0.00000  Uiso   1.00
H2394  H     0.84533   0.24068   0.99201   0.00000  Uiso   1.00
H2395  H     0.50088   0.11812   0.75028   0.00000  Uiso   1.00
H2396  H     0.51471   0.12419   0.80720   0.00000  Uiso   1.00
H2397  H     0.78296   0.44045   0.95791   0.00000  Uiso   1.00
H2398  H     0.52274   0.04507   0.74618   0.00000  Uiso   1.00
H2399  H     0.55849   0.04918   0.79435   0.00000  Uiso   1.00
H2400  H     0.50064   0.04874   0.84605   0.00000  Uiso   1.00
H2401  H     0.98576   0.00894   0.80497   0.00000  Uiso   1.00
H2402  H     0.95952   0.06083   0.80402   0.00000  Uiso   1.00
H2403  H     0.61672   0.47121   0.78183   0.00000  Uiso   1.00
H2404  H     0.58358   0.44299   0.74067   0.00000  Uiso   1.00
H2405  H     0.67056   0.48514   0.72021   0.00000  Uiso   1.00
H2406  H     0.63226   0.46450   0.67991   0.00000  Uiso   1.00
H2407  H     0.61479   0.03831   0.74677   0.00000  Uiso   1.00
H2408  H     0.78465   0.44157   0.70785   0.00000  Uiso   1.00
H2409  H     0.57917   0.02096   0.70204   0.00000  Uiso   1.00
H2410  H     0.63137   0.04592   0.68997   0.00000  Uiso   1.00
H2411  H     0.79916   0.07747   0.94796   0.00000  Uiso   1.00
H2412  H     0.79703   0.12175   0.91022   0.00000  Uiso   1.00
H2413  H     0.85805   0.12183   0.99297   0.00000  Uiso   1.00
H2414  H     0.83840   0.16634   0.96059   0.00000  Uiso   1.00
H2415  H     0.75942   0.13922   0.98597   0.00000  Uiso   1.00
H2416  H     0.79250   0.16805   0.69277   0.00000  Uiso   1.00
H2417  H     0.78923   0.11019   0.69455   0.00000  Uiso   1.00
H2418  H     0.84403   0.02606   0.72569   0.00000  Uiso   1.00
H2419  H     0.71929   0.06095   0.95898   0.00000  Uiso   1.00
H2420  H     0.87718   0.02844   0.77523   0.00000  Uiso   1.00
H2421  H     0.89891   0.06232   0.68143   0.00000  Uiso   1.00
H2422  H     0.93279   0.07118   0.73039   0.00000  Uiso   1.00
H2423  H     0.93552   0.49022   0.74062   0.00000  Uiso   1.00
H2424  H     0.96090   0.00797   0.68991   0.00000  Uiso   1.00
H2425  H     0.90718   0.48388   0.68763   0.00000  Uiso   1.00
H2426  H     0.74449   0.35516   0.91653   0.00000  Uiso   1.00
H2427  H     0.73778   0.37627   0.86262   0.00000  Uiso   1.00
H2428  H     0.68708   0.29520   0.89087   0.00000  Uiso   1.00
H2429  H     0.69811   0.31385   0.83518   0.00000  Uiso   1.00
H2430  H     0.86111   0.18671   0.70921   0.00000  Uiso   1.00
H2431  H     0.77969   0.30164   0.85131   0.00000  Uiso   1.00
H2432  H     0.74629   0.25345   0.85062   0.00000  Uiso   1.00
H2433  H     0.76362   0.27729   0.90276   0.00000  Uiso   1.00
H2434  H     0.86791   0.46834   0.94274   0.00000  Uiso   1.00
H2435  H     0.87927   0.46426   0.88443   0.00000  Uiso   1.00
H2436  H     0.92841   0.42069   0.96304   0.00000  Uiso   1.00
H2437  H     0.93914   0.40764   0.90510   0.00000  Uiso   1.00
H2438  H     0.95728   0.48305   0.88860   0.00000  Uiso   1.00
H2439  H     0.99074   0.46106   0.93261   0.00000  Uiso   1.00
H2440  H     0.94690   0.49756   0.94643   0.00000  Uiso   1.00
N2441  N     0.50000   0.25000   0.95240   0.00000  Uiso   1.00
N2442  N     0.50000   0.25000   0.71427   0.00000  Uiso   1.00
N2443  N     0.75000   0.00000   0.95240   0.00000  Uiso   1.00
N2444  N     0.75000   0.00000   0.71427   0.00000  Uiso   1.00
O2445  O     0.54581   0.20419   0.87154   0.00000  Uiso   1.00
O2446  O     0.70420   0.04581   0.79513   0.00000  Uiso   1.00
O2447  O     0.70420   0.04581   0.87154   0.00000  Uiso   1.00
O2448  O     0.79581   0.45419   0.79513   0.00000  Uiso   1.00
O2449  O     0.70420   0.45419   0.79513   0.00000  Uiso   1.00
O2450  O     0.79581   0.04581   0.87154   0.00000  Uiso   1.00
O2451  O     0.79581   0.04581   0.79513   0.00000  Uiso   1.00
O2452  O     0.70420   0.45419   0.87154   0.00000  Uiso   1.00
O2453  O     0.90337   0.15587   0.75153   0.00000  Uiso   1.00
O2454  O     0.60598   0.33708   0.91462   0.00000  Uiso   1.00
O2455  O     0.58688   0.34988   0.75198   0.00000  Uiso   1.00
O2456  O     0.95420   0.29581   0.79513   0.00000  Uiso   1.00
O2457  O     0.92186   0.14237   0.91336   0.00000  Uiso   1.00
O2458  O     0.60691   0.16753   0.91387   0.00000  Uiso   1.00
O2459  O     0.90714   0.34922   0.75317   0.00000  Uiso   1.00
O2460  O     0.89655   0.33494   0.91522   0.00000  Uiso   1.00
O2461  O     0.56699   0.12607   0.76066   0.00000  Uiso   1.00
O2462  O     0.64393   0.41554   0.75282   0.00000  Uiso   1.00
O2463  O     0.85629   0.08570   0.91568   0.00000  Uiso   1.00
O2464  O     0.85035   0.08736   0.75128   0.00000  Uiso   1.00
O2465  O     0.68287   0.37840   0.90488   0.00000  Uiso   1.00
O2466  O     0.85167   0.40969   0.91513   0.00000  Uiso   1.00
O2467  O     0.95420   0.29581   0.87154   0.00000  Uiso   1.00
O2468  O     0.65728   0.10670   0.75279   0.00000  Uiso   1.00
O2469  O     0.65098   0.09090   0.91593   0.00000  Uiso   1.00
O2470  O     0.82309   0.38509   0.75493   0.00000  Uiso   1.00
O2471  O     0.54581   0.20419   0.79513   0.00000  Uiso   1.00
O2472  O     0.95420   0.20419   0.79513   0.00000  Uiso   1.00
O2473  O     0.54581   0.29581   0.87154   0.00000  Uiso   1.00
O2474  O     0.54581   0.29581   0.79513   0.00000  Uiso   1.00
O2475  O     0.95420   0.20419   0.87154   0.00000  Uiso   1.00
O2476  O     0.79581   0.45419   0.87154   0.00000  Uiso   1.00
Zn2477 Zn    0.50000   0.25000   0.88437   0.00000  Uiso   1.00
Zn2478 Zn    0.50000   0.25000   0.78229   0.00000  Uiso   1.00
Zn2479 Zn    0.75000   0.00000   0.88437   0.00000  Uiso   1.00
Zn2480 Zn    0.75000   0.00000   0.78229   0.00000  Uiso   1.00
C2481  C     0.05918   0.68937   0.83364   0.00000  Uiso   1.00
C2482  C     0.01848   0.71702   0.97604   0.00000  Uiso   1.00
C2483  C     0.01805   0.71675   0.69036   0.00000  Uiso   1.00
C2484  C     0.48303   0.78379   0.97639   0.00000  Uiso   1.00
C2485  C     0.23286   0.53367   0.69070   0.00000  Uiso   1.00
C2486  C     0.26834   0.96699   0.97592   0.00000  Uiso   1.00
C2487  C     0.26879   0.96729   0.69027   0.00000  Uiso   1.00
C2488  C     0.23259   0.53355   0.97642   0.00000  Uiso   1.00
C2489  C     0.39280   0.63790   0.79231   0.00000  Uiso   1.00
C2490  C     0.11479   0.85574   0.87377   0.00000  Uiso   1.00
C2491  C     0.10585   0.86174   0.79247   0.00000  Uiso   1.00
C2492  C     0.43818   0.80824   0.83334   0.00000  Uiso   1.00
C2493  C     0.39945   0.63368   0.87380   0.00000  Uiso   1.00
C2494  C     0.11179   0.64356   0.87492   0.00000  Uiso   1.00
C2495  C     0.38453   0.85446   0.79289   0.00000  Uiso   1.00
C2496  C     0.38272   0.85124   0.87449   0.00000  Uiso   1.00
C2497  C     0.09616   0.62820   0.79652   0.00000  Uiso   1.00
C2498  C     0.13526   0.89538   0.79270   0.00000  Uiso   1.00
C2499  C     0.36562   0.60431   0.87482   0.00000  Uiso   1.00
C2500  C     0.36417   0.60364   0.79247   0.00000  Uiso   1.00
C2501  C     0.15182   0.88110   0.87093   0.00000  Uiso   1.00
C2502  C     0.35696   0.88792   0.87477   0.00000  Uiso   1.00
C2503  C     0.44125   0.68888   0.83313   0.00000  Uiso   1.00
C2504  C     0.13630   0.60763   0.79373   0.00000  Uiso   1.00
C2505  C     0.13925   0.60820   0.87513   0.00000  Uiso   1.00
C2506  C     0.34739   0.88001   0.79392   0.00000  Uiso   1.00
C2507  C     0.09312   0.84352   0.83359   0.00000  Uiso   1.00
C2508  C     0.41080   0.65310   0.83296   0.00000  Uiso   1.00
C2509  C     0.40086   0.83753   0.83345   0.00000  Uiso   1.00
C2510  C     0.08895   0.65327   0.83515   0.00000  Uiso   1.00
C2511  C     0.34717   0.58938   0.83383   0.00000  Uiso   1.00
C2512  C     0.15869   0.90519   0.83210   0.00000  Uiso   1.00
C2513  C     0.15559   0.59273   0.83388   0.00000  Uiso   1.00
C2514  C     0.05986   0.81022   0.83354   0.00000  Uiso   1.00
C2515  C     0.33759   0.90174   0.83417   0.00000  Uiso   1.00
C2516  C     0.37800   0.69315   0.74127   0.00000  Uiso   1.00
C2517  C     0.34400   0.70899   0.77620   0.00000  Uiso   1.00
C2518  C     0.32220   0.74993   0.76077   0.00000  Uiso   1.00
C2519  C     0.06897   0.85674   0.93448   0.00000  Uiso   1.00
C2520  C     0.07789   0.90212   0.95238   0.00000  Uiso   1.00
C2521  C     0.04688   0.91188   0.99092   0.00000  Uiso   1.00
C2522  C     0.10988   0.81474   0.73284   0.00000  Uiso   1.00
C2523  C     0.14490   0.83081   0.70108   0.00000  Uiso   1.00
C2524  C     0.15846   0.79596   0.66792   0.00000  Uiso   1.00
C2525  C     0.30841   0.93857   0.83346   0.00000  Uiso   1.00
C2526  C     0.46373   0.62293   0.91130   0.00000  Uiso   1.00
C2527  C     0.46718   0.58754   0.94586   0.00000  Uiso   1.00
C2528  C     0.48589   0.60418   0.99027   0.00000  Uiso   1.00
C2529  C     0.14055   0.69878   0.91629   0.00000  Uiso   1.00
C2530  C     0.17111   0.68900   0.95579   0.00000  Uiso   1.00
C2531  C     0.21459   0.71206   0.95091   0.00000  Uiso   1.00
C2532  C     0.42785   0.88861   0.74168   0.00000  Uiso   1.00
C2533  C     0.45779   0.90732   0.77948   0.00000  Uiso   1.00
C2534  C     0.00071   0.92436   0.76202   0.00000  Uiso   1.00
C2535  C     0.37615   0.79484   0.92275   0.00000  Uiso   1.00
C2536  C     0.19017   0.56042   0.83335   0.00000  Uiso   1.00
C2537  C     0.33987   0.80082   0.95668   0.00000  Uiso   1.00
C2538  C     0.32133   0.75749   0.97041   0.00000  Uiso   1.00
C2539  C     0.02619   0.60936   0.77536   0.00000  Uiso   1.00
C2540  C     0.02694   0.56003   0.77984   0.00000  Uiso   1.00
C2541  C     0.49082   0.54389   0.81048   0.00000  Uiso   1.00
C2542  C     0.11729   0.95234   0.74971   0.00000  Uiso   1.00
C2543  C     0.13561   0.98053   0.71314   0.00000  Uiso   1.00
C2544  C     0.11365   0.52421   0.71275   0.00000  Uiso   1.00
C2545  C     0.31847   0.60444   0.93466   0.00000  Uiso   1.00
C2546  C     0.32959   0.63436   0.97390   0.00000  Uiso   1.00
C2547  C     0.19043   0.93968   0.83296   0.00000  Uiso   1.00
C2548  C     0.29043   0.63837   0.67203   0.00000  Uiso   1.00
C2549  C     0.36873   0.54601   0.74377   0.00000  Uiso   1.00
C2550  C     0.40877   0.54918   0.71432   0.00000  Uiso   1.00
C2551  C     0.42935   0.50501   0.70756   0.00000  Uiso   1.00
C2552  C     0.22088   0.85714   0.88849   0.00000  Uiso   1.00
C2553  C     0.21163   0.81152   0.86980   0.00000  Uiso   1.00
C2554  C     0.25296   0.78436   0.86827   0.00000  Uiso   1.00
C2555  C     0.37993   0.94584   0.91638   0.00000  Uiso   1.00
C2556  C     0.42697   0.93304   0.92818   0.00000  Uiso   1.00
C2557  C     0.45730   0.97128   0.92368   0.00000  Uiso   1.00
C2558  C     0.31116   0.55890   0.83359   0.00000  Uiso   1.00
C2559  C     0.19169   0.63744   0.75314   0.00000  Uiso   1.00
C2560  C     0.17587   0.68432   0.75976   0.00000  Uiso   1.00
C2561  C     0.21374   0.71588   0.75774   0.00000  Uiso   1.00
C2562  C     0.12814   0.55180   0.92143   0.00000  Uiso   1.00
C2563  C     0.08237   0.55953   0.93943   0.00000  Uiso   1.00
C2564  C     0.05995   0.51635   0.94496   0.00000  Uiso   1.00
C2565  C     0.28144   0.86556   0.76013   0.00000  Uiso   1.00
C2566  C     0.27205   0.83526   0.72077   0.00000  Uiso   1.00
C2567  C     0.25874   0.85868   0.67843   0.00000  Uiso   1.00
C2568  C     0.48301   0.78373   0.69072   0.00000  Uiso   1.00
H2569  H     0.46973   0.81089   0.70865   0.00000  Uiso   1.00
H2570  H     0.40082   0.71995   0.73416   0.00000  Uiso   1.00
H2571  H     0.20795   0.63542   0.72007   0.00000  Uiso   1.00
H2572  H     0.21695   0.62940   0.77877   0.00000  Uiso   1.00
H2573  H     0.15113   0.69240   0.73376   0.00000  Uiso   1.00
H2574  H     0.16088   0.68857   0.79324   0.00000  Uiso   1.00
H2575  H     0.23847   0.70774   0.78369   0.00000  Uiso   1.00
H2576  H     0.20175   0.74910   0.76421   0.00000  Uiso   1.00
H2577  H     0.22911   0.71462   0.72431   0.00000  Uiso   1.00
H2578  H     0.14671   0.53210   0.94584   0.00000  Uiso   1.00
H2579  H     0.12592   0.53187   0.89011   0.00000  Uiso   1.00
H2580  H     0.08426   0.57697   0.97203   0.00000  Uiso   1.00
H2581  H     0.31856   0.68402   0.78111   0.00000  Uiso   1.00
H2582  H     0.06308   0.57941   0.91568   0.00000  Uiso   1.00
H2583  H     0.04788   0.50473   0.91178   0.00000  Uiso   1.00
H2584  H     0.03273   0.51894   0.96908   0.00000  Uiso   1.00
H2585  H     0.08343   0.99257   0.95823   0.00000  Uiso   1.00
H2586  H     0.25566   0.89063   0.76176   0.00000  Uiso   1.00
H2587  H     0.27819   0.84623   0.79122   0.00000  Uiso   1.00
H2588  H     0.30189   0.81687   0.71314   0.00000  Uiso   1.00
H2589  H     0.24585   0.81236   0.73000   0.00000  Uiso   1.00
H2590  H     0.23099   0.88094   0.68456   0.00000  Uiso   1.00
H2591  H     0.24865   0.83421   0.98668   0.00000  Uiso   1.00
H2592  H     0.35984   0.71659   0.80886   0.00000  Uiso   1.00
H2593  H     0.28708   0.87644   0.99839   0.00000  Uiso   1.00
H2594  H     0.29966   0.76192   0.78689   0.00000  Uiso   1.00
H2595  H     0.30315   0.74328   0.72984   0.00000  Uiso   1.00
H2596  H     0.34730   0.77490   0.75467   0.00000  Uiso   1.00
H2597  H     0.05909   0.83548   0.96239   0.00000  Uiso   1.00
H2598  H     0.04032   0.85912   0.91152   0.00000  Uiso   1.00
H2599  H     0.11221   0.90555   0.96385   0.00000  Uiso   1.00
H2600  H     0.07232   0.92535   0.92483   0.00000  Uiso   1.00
H2601  H     0.03420   0.69095   0.95833   0.00000  Uiso   1.00
H2602  H     0.01248   0.90593   0.98071   0.00000  Uiso   1.00
H2603  H     0.04999   0.94557   0.66933   0.00000  Uiso   1.00
H2604  H     0.05502   0.89033   0.68567   0.00000  Uiso   1.00
H2605  H     0.08565   0.79534   0.71351   0.00000  Uiso   1.00
H2606  H     0.12470   0.79263   0.75811   0.00000  Uiso   1.00
H2607  H     0.13228   0.85864   0.68224   0.00000  Uiso   1.00
H2608  H     0.17371   0.84148   0.72092   0.00000  Uiso   1.00
H2609  H     0.17712   0.77056   0.68560   0.00000  Uiso   1.00
H2610  H     0.17908   0.81037   0.97503   0.00000  Uiso   1.00
H2611  H     0.12946   0.78152   0.98446   0.00000  Uiso   1.00
H2612  H     0.03257   0.68998   0.70791   0.00000  Uiso   1.00
H2613  H     0.48895   0.64769   0.91778   0.00000  Uiso   1.00
H2614  H     0.47231   0.60916   0.87786   0.00000  Uiso   1.00
H2615  H     0.43478   0.57280   0.95101   0.00000  Uiso   1.00
H2616  H     0.48841   0.56214   0.93208   0.00000  Uiso   1.00
H2617  H     0.01789   0.61996   0.98520   0.00000  Uiso   1.00
H2618  H     0.49151   0.57682   0.67970   0.00000  Uiso   1.00
H2619  H     0.46295   0.62745   0.67269   0.00000  Uiso   1.00
H2620  H     0.12518   0.73074   0.92208   0.00000  Uiso   1.00
H2621  H     0.15985   0.70213   0.88473   0.00000  Uiso   1.00
H2622  H     0.15520   0.69922   0.98746   0.00000  Uiso   1.00
H2623  H     0.46995   0.81131   0.95891   0.00000  Uiso   1.00
H2624  H     0.17773   0.65403   0.95802   0.00000  Uiso   1.00
H2625  H     0.23317   0.69823   0.92231   0.00000  Uiso   1.00
H2626  H     0.23416   0.70860   0.98189   0.00000  Uiso   1.00
H2627  H     0.20925   0.74672   0.94542   0.00000  Uiso   1.00
H2628  H     0.40311   0.91302   0.73172   0.00000  Uiso   1.00
H2629  H     0.44734   0.88246   0.71103   0.00000  Uiso   1.00
H2630  H     0.44020   0.93338   0.79772   0.00000  Uiso   1.00
H2631  H     0.46680   0.88253   0.80423   0.00000  Uiso   1.00
H2632  H     0.02024   0.89668   0.75024   0.00000  Uiso   1.00
H2633  H     0.01900   0.94057   0.78966   0.00000  Uiso   1.00
H2634  H     0.21889   0.56057   0.70857   0.00000  Uiso   1.00
H2635  H     0.49577   0.94713   0.73410   0.00000  Uiso   1.00
H2636  H     0.40086   0.77258   0.93705   0.00000  Uiso   1.00
H2637  H     0.36305   0.77866   0.89178   0.00000  Uiso   1.00
H2638  H     0.35293   0.81788   0.98685   0.00000  Uiso   1.00
H2639  H     0.31385   0.82094   0.94152   0.00000  Uiso   1.00
H2640  H     0.31419   0.73695   0.94060   0.00000  Uiso   1.00
H2641  H     0.29061   0.76250   0.98909   0.00000  Uiso   1.00
H2642  H     0.34533   0.74068   0.99201   0.00000  Uiso   1.00
H2643  H     0.00088   0.61812   0.75028   0.00000  Uiso   1.00
H2644  H     0.01471   0.62419   0.80720   0.00000  Uiso   1.00
H2645  H     0.28296   0.94045   0.95791   0.00000  Uiso   1.00
H2646  H     0.02274   0.54507   0.74618   0.00000  Uiso   1.00
H2647  H     0.05849   0.54918   0.79435   0.00000  Uiso   1.00
H2648  H     0.00064   0.54874   0.84605   0.00000  Uiso   1.00
H2649  H     0.48576   0.50894   0.80497   0.00000  Uiso   1.00
H2650  H     0.45952   0.56083   0.80402   0.00000  Uiso   1.00
H2651  H     0.11672   0.97121   0.78183   0.00000  Uiso   1.00
H2652  H     0.08358   0.94299   0.74067   0.00000  Uiso   1.00
H2653  H     0.17056   0.98514   0.72021   0.00000  Uiso   1.00
H2654  H     0.13226   0.96450   0.67991   0.00000  Uiso   1.00
H2655  H     0.11479   0.53831   0.74677   0.00000  Uiso   1.00
H2656  H     0.28465   0.94157   0.70785   0.00000  Uiso   1.00
H2657  H     0.07917   0.52096   0.70204   0.00000  Uiso   1.00
H2658  H     0.13137   0.54592   0.68997   0.00000  Uiso   1.00
H2659  H     0.29916   0.57747   0.94796   0.00000  Uiso   1.00
H2660  H     0.29703   0.62175   0.91022   0.00000  Uiso   1.00
H2661  H     0.35805   0.62183   0.99297   0.00000  Uiso   1.00
H2662  H     0.33840   0.66634   0.96059   0.00000  Uiso   1.00
H2663  H     0.25942   0.63922   0.98597   0.00000  Uiso   1.00
H2664  H     0.29250   0.66805   0.69277   0.00000  Uiso   1.00
H2665  H     0.28923   0.61019   0.69455   0.00000  Uiso   1.00
H2666  H     0.34403   0.52606   0.72569   0.00000  Uiso   1.00
H2667  H     0.21929   0.56095   0.95898   0.00000  Uiso   1.00
H2668  H     0.37718   0.52844   0.77523   0.00000  Uiso   1.00
H2669  H     0.39891   0.56232   0.68143   0.00000  Uiso   1.00
H2670  H     0.43279   0.57118   0.73039   0.00000  Uiso   1.00
H2671  H     0.43552   0.99022   0.74062   0.00000  Uiso   1.00
H2672  H     0.46090   0.50797   0.68991   0.00000  Uiso   1.00
H2673  H     0.40718   0.98388   0.68763   0.00000  Uiso   1.00
H2674  H     0.24449   0.85516   0.91653   0.00000  Uiso   1.00
H2675  H     0.23778   0.87627   0.86262   0.00000  Uiso   1.00
H2676  H     0.18708   0.79520   0.89087   0.00000  Uiso   1.00
H2677  H     0.19811   0.81385   0.83518   0.00000  Uiso   1.00
H2678  H     0.36111   0.68671   0.70921   0.00000  Uiso   1.00
H2679  H     0.27969   0.80164   0.85131   0.00000  Uiso   1.00
H2680  H     0.24629   0.75345   0.85062   0.00000  Uiso   1.00
H2681  H     0.26362   0.77729   0.90276   0.00000  Uiso   1.00
H2682  H     0.36791   0.96834   0.94274   0.00000  Uiso   1.00
H2683  H     0.37927   0.96426   0.88443   0.00000  Uiso   1.00
H2684  H     0.42841   0.92069   0.96304   0.00000  Uiso   1.00
H2685  H     0.43914   0.90764   0.90510   0.00000  Uiso   1.00
H2686  H     0.45728   0.98305   0.88860   0.00000  Uiso   1.00
H2687  H     0.49074   0.96106   0.93261   0.00000  Uiso   1.00
H2688  H     0.44690   0.99756   0.94643   0.00000  Uiso   1.00
N2689  N     0.00000   0.75000   0.95240   0.00000  Uiso   1.00
N2690  N     0.00000   0.75000   0.71427   0.00000  Uiso   1.00
N2691  N     0.25000   0.50000   0.95240   0.00000  Uiso   1.00
N2692  N     0.25000   0.50000   0.71427   0.00000  Uiso   1.00
O2693  O     0.04581   0.70419   0.87154   0.00000  Uiso   1.00
O2694  O     0.20420   0.54581   0.79513   0.00000  Uiso   1.00
O2695  O     0.20420   0.54581   0.87154   0.00000  Uiso   1.00
O2696  O     0.29581   0.95419   0.79513   0.00000  Uiso   1.00
O2697  O     0.20420   0.95419   0.79513   0.00000  Uiso   1.00
O2698  O     0.29581   0.54581   0.87154   0.00000  Uiso   1.00
O2699  O     0.29581   0.54581   0.79513   0.00000  Uiso   1.00
O2700  O     0.20420   0.95419   0.87154   0.00000  Uiso   1.00
O2701  O     0.40337   0.65587   0.75153   0.00000  Uiso   1.00
O2702  O     0.10598   0.83708   0.91462   0.00000  Uiso   1.00
O2703  O     0.08688   0.84988   0.75198   0.00000  Uiso   1.00
O2704  O     0.45420   0.79581   0.79513   0.00000  Uiso   1.00
O2705  O     0.42186   0.64237   0.91336   0.00000  Uiso   1.00
O2706  O     0.10691   0.66753   0.91387   0.00000  Uiso   1.00
O2707  O     0.40714   0.84922   0.75317   0.00000  Uiso   1.00
O2708  O     0.39655   0.83494   0.91522   0.00000  Uiso   1.00
O2709  O     0.06699   0.62607   0.76066   0.00000  Uiso   1.00
O2710  O     0.14393   0.91554   0.75282   0.00000  Uiso   1.00
O2711  O     0.35629   0.58570   0.91568   0.00000  Uiso   1.00
O2712  O     0.35035   0.58736   0.75128   0.00000  Uiso   1.00
O2713  O     0.18287   0.87840   0.90488   0.00000  Uiso   1.00
O2714  O     0.35167   0.90969   0.91513   0.00000  Uiso   1.00
O2715  O     0.45420   0.79581   0.87154   0.00000  Uiso   1.00
O2716  O     0.15728   0.60670   0.75279   0.00000  Uiso   1.00
O2717  O     0.15098   0.59090   0.91593   0.00000  Uiso   1.00
O2718  O     0.32309   0.88509   0.75493   0.00000  Uiso   1.00
O2719  O     0.04581   0.70419   0.79513   0.00000  Uiso   1.00
O2720  O     0.45420   0.70419   0.79513   0.00000  Uiso   1.00
O2721  O     0.04581   0.79581   0.87154   0.00000  Uiso   1.00
O2722  O     0.04581   0.79581   0.79513   0.00000  Uiso   1.00
O2723  O     0.45420   0.70419   0.87154   0.00000  Uiso   1.00
O2724  O     0.29581   0.95419   0.87154   0.00000  Uiso   1.00
Zn2725 Zn    0.00000   0.75000   0.88437   0.00000  Uiso   1.00
Zn2726 Zn    0.00000   0.75000   0.78229   0.00000  Uiso   1.00
Zn2727 Zn    0.25000   0.50000   0.88437   0.00000  Uiso   1.00
Zn2728 Zn    0.25000   0.50000   0.78229   0.00000  Uiso   1.00
C2729  C     0.55918   0.68937   0.83364   0.00000  Uiso   1.00
C2730  C     0.51848   0.71702   0.97604   0.00000  Uiso   1.00
C2731  C     0.51805   0.71675   0.69036   0.00000  Uiso   1.00
C2732  C     0.98303   0.78379   0.97639   0.00000  Uiso   1.00
C2733  C     0.73286   0.53367   0.69070   0.00000  Uiso   1.00
C2734  C     0.76834   0.96699   0.97592   0.00000  Uiso   1.00
C2735  C     0.76879   0.96729   0.69027   0.00000  Uiso   1.00
C2736  C     0.73259   0.53355   0.97642   0.00000  Uiso   1.00
C2737  C     0.89280   0.63790   0.79231   0.00000  Uiso   1.00
C2738  C     0.61479   0.85574   0.87377   0.00000  Uiso   1.00
C2739  C     0.60585   0.86174   0.79247   0.00000  Uiso   1.00
C2740  C     0.93818   0.80824   0.83334   0.00000  Uiso   1.00
C2741  C     0.89945   0.63368   0.87380   0.00000  Uiso   1.00
C2742  C     0.61179   0.64356   0.87492   0.00000  Uiso   1.00
C2743  C     0.88453   0.85446   0.79289   0.00000  Uiso   1.00
C2744  C     0.88272   0.85124   0.87449   0.00000  Uiso   1.00
C2745  C     0.59616   0.62820   0.79652   0.00000  Uiso   1.00
C2746  C     0.63526   0.89538   0.79270   0.00000  Uiso   1.00
C2747  C     0.86562   0.60431   0.87482   0.00000  Uiso   1.00
C2748  C     0.86417   0.60364   0.79247   0.00000  Uiso   1.00
C2749  C     0.65182   0.88110   0.87093   0.00000  Uiso   1.00
C2750  C     0.85696   0.88792   0.87477   0.00000  Uiso   1.00
C2751  C     0.94125   0.68888   0.83313   0.00000  Uiso   1.00
C2752  C     0.63630   0.60763   0.79373   0.00000  Uiso   1.00
C2753  C     0.63925   0.60820   0.87513   0.00000  Uiso   1.00
C2754  C     0.84739   0.88001   0.79392   0.00000  Uiso   1.00
C2755  C     0.59312   0.84352   0.83359   0.00000  Uiso   1.00
C2756  C     0.91080   0.65310   0.83296   0.00000  Uiso   1.00
C2757  C     0.90086   0.83753   0.83345   0.00000  Uiso   1.00
C2758  C     0.58895   0.65327   0.83515   0.00000  Uiso   1.00
C2759  C     0.84717   0.58938   0.83383   0.00000  Uiso   1.00
C2760  C     0.65869   0.90519   0.83210   0.00000  Uiso   1.00
C2761  C     0.65559   0.59273   0.83388   0.00000  Uiso   1.00
C2762  C     0.55986   0.81022   0.83354   0.00000  Uiso   1.00
C2763  C     0.83759   0.90174   0.83417   0.00000  Uiso   1.00
C2764  C     0.87800   0.69315   0.74127   0.00000  Uiso   1.00
C2765  C     0.84400   0.70899   0.77620   0.00000  Uiso   1.00
C2766  C     0.82220   0.74993   0.76077   0.00000  Uiso   1.00
C2767  C     0.56897   0.85674   0.93448   0.00000  Uiso   1.00
C2768  C     0.57789   0.90212   0.95238   0.00000  Uiso   1.00
C2769  C     0.54688   0.91188   0.99092   0.00000  Uiso   1.00
C2770  C     0.60988   0.81474   0.73284   0.00000  Uiso   1.00
C2771  C     0.64490   0.83081   0.70108   0.00000  Uiso   1.00
C2772  C     0.65846   0.79596   0.66792   0.00000  Uiso   1.00
C2773  C     0.80841   0.93857   0.83346   0.00000  Uiso   1.00
C2774  C     0.96373   0.62293   0.91130   0.00000  Uiso   1.00
C2775  C     0.96718   0.58754   0.94586   0.00000  Uiso   1.00
C2776  C     0.98589   0.60418   0.99027   0.00000  Uiso   1.00
C2777  C     0.64055   0.69878   0.91629   0.00000  Uiso   1.00
C2778  C     0.67111   0.68900   0.95579   0.00000  Uiso   1.00
C2779  C     0.71459   0.71206   0.95091   0.00000  Uiso   1.00
C2780  C     0.92785   0.88861   0.74168   0.00000  Uiso   1.00
C2781  C     0.95779   0.90732   0.77948   0.00000  Uiso   1.00
C2782  C     0.50071   0.92436   0.76202   0.00000  Uiso   1.00
C2783  C     0.87615   0.79484   0.92275   0.00000  Uiso   1.00
C2784  C     0.69017   0.56042   0.83335   0.00000  Uiso   1.00
C2785  C     0.83987   0.80082   0.95668   0.00000  Uiso   1.00
C2786  C     0.82133   0.75749   0.97041   0.00000  Uiso   1.00
C2787  C     0.52619   0.60936   0.77536   0.00000  Uiso   1.00
C2788  C     0.52694   0.56003   0.77984   0.00000  Uiso   1.00
C2789  C     0.99082   0.54389   0.81048   0.00000  Uiso   1.00
C2790  C     0.61729   0.95234   0.74971   0.00000  Uiso   1.00
C2791  C     0.63561   0.98053   0.71314   0.00000  Uiso   1.00
C2792  C     0.61365   0.52421   0.71275   0.00000  Uiso   1.00
C2793  C     0.81847   0.60444   0.93466   0.00000  Uiso   1.00
C2794  C     0.82959   0.63436   0.97390   0.00000  Uiso   1.00
C2795  C     0.69043   0.93968   0.83296   0.00000  Uiso   1.00
C2796  C     0.79043   0.63837   0.67203   0.00000  Uiso   1.00
C2797  C     0.86873   0.54601   0.74377   0.00000  Uiso   1.00
C2798  C     0.90877   0.54918   0.71432   0.00000  Uiso   1.00
C2799  C     0.92935   0.50501   0.70756   0.00000  Uiso   1.00
C2800  C     0.72088   0.85714   0.88849   0.00000  Uiso   1.00
C2801  C     0.71163   0.81152   0.86980   0.00000  Uiso   1.00
C2802  C     0.75296   0.78436   0.86827   0.00000  Uiso   1.00
C2803  C     0.87993   0.94584   0.91638   0.00000  Uiso   1.00
C2804  C     0.92697   0.93304   0.92818   0.00000  Uiso   1.00
C2805  C     0.95730   0.97128   0.92368   0.00000  Uiso   1.00
C2806  C     0.81116   0.55890   0.83359   0.00000  Uiso   1.00
C2807  C     0.69169   0.63744   0.75314   0.00000  Uiso   1.00
C2808  C     0.67587   0.68432   0.75976   0.00000  Uiso   1.00
C2809  C     0.71374   0.71588   0.75774   0.00000  Uiso   1.00
C2810  C     0.62814   0.55180   0.92143   0.00000  Uiso   1.00
C2811  C     0.58237   0.55953   0.93943   0.00000  Uiso   1.00
C2812  C     0.55995   0.51635   0.94496   0.00000  Uiso   1.00
C2813  C     0.78144   0.86556   0.76013   0.00000  Uiso   1.00
C2814  C     0.77205   0.83526   0.72077   0.00000  Uiso   1.00
C2815  C     0.75874   0.85868   0.67843   0.00000  Uiso   1.00
C2816  C     0.98301   0.78373   0.69072   0.00000  Uiso   1.00
H2817  H     0.96973   0.81089   0.70865   0.00000  Uiso   1.00
H2818  H     0.90082   0.71995   0.73416   0.00000  Uiso   1.00
H2819  H     0.70795   0.63542   0.72007   0.00000  Uiso   1.00
H2820  H     0.71695   0.62940   0.77877   0.00000  Uiso   1.00
H2821  H     0.65113   0.69240   0.73376   0.00000  Uiso   1.00
H2822  H     0.66088   0.68857   0.79324   0.00000  Uiso   1.00
H2823  H     0.73847   0.70774   0.78369   0.00000  Uiso   1.00
H2824  H     0.70175   0.74910   0.76421   0.00000  Uiso   1.00
H2825  H     0.72911   0.71462   0.72431   0.00000  Uiso   1.00
H2826  H     0.64671   0.53210   0.94584   0.00000  Uiso   1.00
H2827  H     0.62592   0.53187   0.89011   0.00000  Uiso   1.00
H2828  H     0.58426   0.57697   0.97203   0.00000  Uiso   1.00
H2829  H     0.81856   0.68402   0.78111   0.00000  Uiso   1.00
H2830  H     0.56308   0.57941   0.91568   0.00000  Uiso   1.00
H2831  H     0.54788   0.50473   0.91178   0.00000  Uiso   1.00
H2832  H     0.53273   0.51894   0.96908   0.00000  Uiso   1.00
H2833  H     0.58343   0.99257   0.95823   0.00000  Uiso   1.00
H2834  H     0.75566   0.89063   0.76176   0.00000  Uiso   1.00
H2835  H     0.77819   0.84623   0.79122   0.00000  Uiso   1.00
H2836  H     0.80189   0.81687   0.71314   0.00000  Uiso   1.00
H2837  H     0.74585   0.81236   0.73000   0.00000  Uiso   1.00
H2838  H     0.73099   0.88094   0.68456   0.00000  Uiso   1.00
H2839  H     0.74865   0.83421   0.98668   0.00000  Uiso   1.00
H2840  H     0.85984   0.71659   0.80886   0.00000  Uiso   1.00
H2841  H     0.78708   0.87644   0.99839   0.00000  Uiso   1.00
H2842  H     0.79966   0.76192   0.78689   0.00000  Uiso   1.00
H2843  H     0.80315   0.74328   0.72984   0.00000  Uiso   1.00
H2844  H     0.84730   0.77490   0.75467   0.00000  Uiso   1.00
H2845  H     0.55909   0.83548   0.96239   0.00000  Uiso   1.00
H2846  H     0.54032   0.85912   0.91152   0.00000  Uiso   1.00
H2847  H     0.61221   0.90555   0.96385   0.00000  Uiso   1.00
H2848  H     0.57232   0.92535   0.92483   0.00000  Uiso   1.00
H2849  H     0.53420   0.69095   0.95833   0.00000  Uiso   1.00
H2850  H     0.51248   0.90593   0.98071   0.00000  Uiso   1.00
H2851  H     0.54999   0.94557   0.66933   0.00000  Uiso   1.00
H2852  H     0.55502   0.89033   0.68567   0.00000  Uiso   1.00
H2853  H     0.58565   0.79534   0.71351   0.00000  Uiso   1.00
H2854  H     0.62470   0.79263   0.75811   0.00000  Uiso   1.00
H2855  H     0.63228   0.85864   0.68224   0.00000  Uiso   1.00
H2856  H     0.67371   0.84148   0.72092   0.00000  Uiso   1.00
H2857  H     0.67712   0.77056   0.68560   0.00000  Uiso   1.00
H2858  H     0.67908   0.81037   0.97503   0.00000  Uiso   1.00
H2859  H     0.62946   0.78152   0.98446   0.00000  Uiso   1.00
H2860  H     0.53257   0.68998   0.70791   0.00000  Uiso   1.00
H2861  H     0.98895   0.64769   0.91778   0.00000  Uiso   1.00
H2862  H     0.97231   0.60916   0.87786   0.00000  Uiso   1.00
H2863  H     0.93478   0.57280   0.95101   0.00000  Uiso   1.00
H2864  H     0.98841   0.56214   0.93208   0.00000  Uiso   1.00
H2865  H     0.51789   0.61996   0.98520   0.00000  Uiso   1.00
H2866  H     0.99151   0.57682   0.67970   0.00000  Uiso   1.00
H2867  H     0.96295   0.62745   0.67269   0.00000  Uiso   1.00
H2868  H     0.62518   0.73074   0.92208   0.00000  Uiso   1.00
H2869  H     0.65985   0.70213   0.88473   0.00000  Uiso   1.00
H2870  H     0.65520   0.69922   0.98746   0.00000  Uiso   1.00
H2871  H     0.96995   0.81131   0.95891   0.00000  Uiso   1.00
H2872  H     0.67773   0.65403   0.95802   0.00000  Uiso   1.00
H2873  H     0.73317   0.69823   0.92231   0.00000  Uiso   1.00
H2874  H     0.73416   0.70860   0.98189   0.00000  Uiso   1.00
H2875  H     0.70925   0.74672   0.94542   0.00000  Uiso   1.00
H2876  H     0.90311   0.91302   0.73172   0.00000  Uiso   1.00
H2877  H     0.94734   0.88246   0.71103   0.00000  Uiso   1.00
H2878  H     0.94020   0.93338   0.79772   0.00000  Uiso   1.00
H2879  H     0.96680   0.88253   0.80423   0.00000  Uiso   1.00
H2880  H     0.52024   0.89668   0.75024   0.00000  Uiso   1.00
H2881  H     0.51900   0.94057   0.78966   0.00000  Uiso   1.00
H2882  H     0.71889   0.56057   0.70857   0.00000  Uiso   1.00
H2883  H     0.99577   0.94713   0.73410   0.00000  Uiso   1.00
H2884  H     0.90086   0.77258   0.93705   0.00000  Uiso   1.00
H2885  H     0.86305   0.77866   0.89178   0.00000  Uiso   1.00
H2886  H     0.85293   0.81788   0.98685   0.00000  Uiso   1.00
H2887  H     0.81385   0.82094   0.94152   0.00000  Uiso   1.00
H2888  H     0.81419   0.73695   0.94060   0.00000  Uiso   1.00
H2889  H     0.79061   0.76250   0.98909   0.00000  Uiso   1.00
H2890  H     0.84533   0.74068   0.99201   0.00000  Uiso   1.00
H2891  H     0.50088   0.61812   0.75028   0.00000  Uiso   1.00
H2892  H     0.51471   0.62419   0.80720   0.00000  Uiso   1.00
H2893  H     0.78296   0.94045   0.95791   0.00000  Uiso   1.00
H2894  H     0.52274   0.54507   0.74618   0.00000  Uiso   1.00
H2895  H     0.55849   0.54918   0.79435   0.00000  Uiso   1.00
H2896  H     0.50064   0.54874   0.84605   0.00000  Uiso   1.00
H2897  H     0.98576   0.50894   0.80497   0.00000  Uiso   1.00
H2898  H     0.95952   0.56083   0.80402   0.00000  Uiso   1.00
H2899  H     0.61672   0.97121   0.78183   0.00000  Uiso   1.00
H2900  H     0.58358   0.94299   0.74067   0.00000  Uiso   1.00
H2901  H     0.67056   0.98514   0.72021   0.00000  Uiso   1.00
H2902  H     0.63226   0.96450   0.67991   0.00000  Uiso   1.00
H2903  H     0.61479   0.53831   0.74677   0.00000  Uiso   1.00
H2904  H     0.78465   0.94157   0.70785   0.00000  Uiso   1.00
H2905  H     0.57917   0.52096   0.70204   0.00000  Uiso   1.00
H2906  H     0.63137   0.54592   0.68997   0.00000  Uiso   1.00
H2907  H     0.79916   0.57747   0.94796   0.00000  Uiso   1.00
H2908  H     0.79703   0.62175   0.91022   0.00000  Uiso   1.00
H2909  H     0.85805   0.62183   0.99297   0.00000  Uiso   1.00
H2910  H     0.83840   0.66634   0.96059   0.00000  Uiso   1.00
H2911  H     0.75942   0.63922   0.98597   0.00000  Uiso   1.00
H2912  H     0.79250   0.66805   0.69277   0.00000  Uiso   1.00
H2913  H     0.78923   0.61019   0.69455   0.00000  Uiso   1.00
H2914  H     0.84403   0.52606   0.72569   0.00000  Uiso   1.00
H2915  H     0.71929   0.56095   0.95898   0.00000  Uiso   1.00
H2916  H     0.87718   0.52844   0.77523   0.00000  Uiso   1.00
H2917  H     0.89891   0.56232   0.68143   0.00000  Uiso   1.00
H2918  H     0.93279   0.57118   0.73039   0.00000  Uiso   1.00
H2919  H     0.93552   0.99022   0.74062   0.00000  Uiso   1.00
H2920  H     0.96090   0.50797   0.68991   0.00000  Uiso   1.00
H2921  H     0.90718   0.98388   0.68763   0.00000  Uiso   1.00
H2922  H     0.74449   0.85516   0.91653   0.00000  Uiso   1.00
H2923  H     0.73778   0.87627   0.86262   0.00000  Uiso   1.00
H2924  H     0.68708   0.79520   0.89087   0.00000  Uiso   1.00
H2925  H     0.69811   0.81385   0.83518   0.00000  Uiso   1.00
H2926  H     0.86111   0.68671   0.70921   0.00000  Uiso   1.00
H2927  H     0.77969   0.80164   0.85131   0.00000  Uiso   1.00
H2928  H     0.74629   0.75345   0.85062   0.00000  Uiso   1.00
H2929  H     0.76362   0.77729   0.90276   0.00000  Uiso   1.00
H2930  H     0.86791   0.96834   0.94274   0.00000  Uiso   1.00
H2931  H     0.87927   0.96426   0.88443   0.00000  Uiso   1.00
H2932  H     0.92841   0.92069   0.96304   0.00000  Uiso   1.00
H2933  H     0.93914   0.90764   0.90510   0.00000  Uiso   1.00
H2934  H     0.95728   0.98305   0.88860   0.00000  Uiso   1.00
H2935  H     0.99074   0.96106   0.93261   0.00000  Uiso   1.00
H2936  H     0.94690   0.99756   0.94643   0.00000  Uiso   1.00
N2937  N     0.50000   0.75000   0.95240   0.00000  Uiso   1.00
N2938  N     0.50000   0.75000   0.71427   0.00000  Uiso   1.00
N2939  N     0.75000   0.50000   0.95240   0.00000  Uiso   1.00
N2940  N     0.75000   0.50000   0.71427   0.00000  Uiso   1.00
O2941  O     0.54581   0.70419   0.87154   0.00000  Uiso   1.00
O2942  O     0.70420   0.54581   0.79513   0.00000  Uiso   1.00
O2943  O     0.70420   0.54581   0.87154   0.00000  Uiso   1.00
O2944  O     0.79581   0.95419   0.79513   0.00000  Uiso   1.00
O2945  O     0.70420   0.95419   0.79513   0.00000  Uiso   1.00
O2946  O     0.79581   0.54581   0.87154   0.00000  Uiso   1.00
O2947  O     0.79581   0.54581   0.79513   0.00000  Uiso   1.00
O2948  O     0.70420   0.95419   0.87154   0.00000  Uiso   1.00
O2949  O     0.90337   0.65587   0.75153   0.00000  Uiso   1.00
O2950  O     0.60598   0.83708   0.91462   0.00000  Uiso   1.00
O2951  O     0.58688   0.84988   0.75198   0.00000  Uiso   1.00
O2952  O     0.95420   0.79581   0.79513   0.00000  Uiso   1.00
O2953  O     0.92186   0.64237   0.91336   0.00000  Uiso   1.00
O2954  O     0.60691   0.66753   0.91387   0.00000  Uiso   1.00
O2955  O     0.90714   0.84922   0.75317   0.00000  Uiso   1.00
O2956  O     0.89655   0.83494   0.91522   0.00000  Uiso   1.00
O2957  O     0.56699   0.62607   0.76066   0.00000  Uiso   1.00
O2958  O     0.64393   0.91554   0.75282   0.00000  Uiso   1.00
O2959  O     0.85629   0.58570   0.91568   0.00000  Uiso   1.00
O2960  O     0.85035   0.58736   0.75128   0.00000  Uiso   1.00
O2961  O     0.68287   0.87840   0.90488   0.00000  Uiso   1.00
O2962  O     0.85167   0.90969   0.91513   0.00000  Uiso   1.00
O2963  O     0.95420   0.79581   0.87154   0.00000  Uiso   1.00
O2964  O     0.65728   0.60670   0.75279   0.00000  Uiso   1.00
O2965  O     0.65098   0.59090   0.91593   0.00000  Uiso   1.00
O2966  O     0.82309   0.88509   0.75493   0.00000  Uiso   1.00
O2967  O     0.54581   0.70419   0.79513   0.00000  Uiso   1.00
O2968  O     0.95420   0.70419   0.79513   0.00000  Uiso   1.00
O2969  O     0.54581   0.79581   0.87154   0.00000  Uiso   1.00
O2970  O     0.54581   0.79581   0.79513   0.00000  Uiso   1.00
O2971  O     0.95420   0.70419   0.87154   0.00000  Uiso   1.00
O2972  O     0.79581   0.95419   0.87154   0.00000  Uiso   1.00
Zn2973 Zn    0.50000   0.75000   0.88437   0.00000  Uiso   1.00
Zn2974 Zn    0.50000   0.75000   0.78229   0.00000  Uiso   1.00
Zn2975 Zn    0.75000   0.50000   0.88437   0.00000  Uiso   1.00
Zn2976 Zn    0.75000   0.50000   0.78229   0.00000  Uiso   1.00
loop_
_geom_bond_atom_site_label_1
_geom_bond_atom_site_label_2
_geom_bond_distance
_geom_bond_site_symmetry_2
_ccdc_geom_bond_type
C1     O239    1.304   .     A
C1     O213    1.286   .     A
C1     C30     1.445   .     S
C2     H121    1.077   .     S
C2     C995    1.421   .     S
C2     N209    1.368   .     S
C3     N210    1.368   .     A
C3     H132    1.080   .     S
C3     C1986   1.421   1_554 S
C4     H143    1.080   .     S
C4     N457    1.369   .     A
C4     C1080   1.421   .     S
C5     H154    1.076   .     S
C5     C1992   1.419   1_554 S
C5     N212    1.367   .     S
C6     H165    1.078   .     S
C6     N707    1.365   .     A
C6     C999    1.421   .     S
C7     N708    1.366   .     A
C7     H176    1.073   .     S
C7     C1990   1.421   1_554 S
C8     H187    1.079   .     S
C8     C997    1.419   .     S
C8     N211    1.369   .     S
C9     C20     1.380   .     A
C9     O221    1.383   .     S
C9     C28     1.405   .     A
C10    C27     1.414   .     A
C10    C21     1.386   .     A
C10    O222    1.382   .     S
C11    C18     1.381   .     A
C11    C27     1.413   .     A
C11    O223    1.383   .     S
C12    O235    1.298   .     A
C12    O224    1.299   .     A
C12    C29     1.460   .     S
C13    O225    1.385   .     S
C13    C28     1.410   .     A
C13    C19     1.382   .     A
C14    O226    1.382   .     S
C14    C30     1.407   .     A
C14    C25     1.383   .     A
C15    C29     1.411   .     A
C15    C26     1.386   .     A
C15    O227    1.384   .     S
C16    C29     1.409   .     A
C16    O228    1.383   .     S
C16    C22     1.385   .     A
C17    C30     1.403   .     A
C17    C24     1.388   .     A
C17    O229    1.389   .     S
C18    O230    1.377   .     S
C18    C32     1.403   .     A
C19    C31     1.417   .     A
C19    O231    1.385   .     S
C20    O232    1.387   .     S
C20    C31     1.417   .     A
C21    O233    1.386   .     S
C21    C32     1.402   .     A
C22    C35     1.414   .     A
C22    O234    1.385   .     S
C23    O243    1.295   .     A
C23    C28     1.452   .     S
C23    O240    1.298   .     A
C24    O236    1.383   .     S
C24    C33     1.412   .     A
C25    O237    1.379   .     S
C25    C33     1.411   .     A
C26    O238    1.386   .     S
C26    C35     1.405   .     A
C27    C34     1.453   .     S
C31    C78     1.455   .     S
C32    C67     1.448   .     S
C33    C56     1.458   .     S
C34    O242    1.296   .     A
C34    O241    1.298   .     A
C35    C45     1.451   .     S
C36    H198    1.100   .     S
C36    H90     1.111   .     S
C36    C37     1.554   .     S
C36    O221    1.428   .     S
C37    H112    1.108   .     S
C37    C38     1.509   .     S
C37    H101    1.112   .     S
C38    H114    1.106   .     S
C38    H116    1.110   .     S
C38    H115    1.105   .     S
C39    O222    1.418   .     S
C39    C40     1.527   .     S
C39    H118    1.112   .     S
C39    H117    1.111   .     S
C40    H119    1.108   .     S
C40    C41     1.524   .     S
C40    H120    1.110   .     S
C41    H122    1.110   .     S
C41    H1115   1.104   .     S
C41    H1116   1.104   .     S
C42    H125    1.111   .     S
C42    C43     1.524   .     S
C42    H126    1.117   .     S
C42    O223    1.416   .     S
C43    H128    1.108   .     S
C43    C44     1.518   .     S
C43    H127    1.103   .     S
C44    H129    1.108   .     S
C44    H2114   1.107   1_554 S
C44    H2115   1.110   1_554 S
C45    O216    1.301   .     A
C45    O244    1.292   .     A
C46    H134    1.114   .     S
C46    C47     1.517   .     S
C46    H133    1.105   .     S
C46    O225    1.418   .     S
C47    H136    1.100   .     S
C47    C48     1.525   .     S
C47    H135    1.106   .     S
C48    H385    1.109   .     S
C48    H1130   1.105   .     S
C48    H1131   1.111   .     S
C49    C50     1.531   .     S
C49    H140    1.110   .     S
C49    H141    1.121   .     S
C49    O226    1.418   .     S
C50    H144    1.107   .     S
C50    C51     1.522   .     S
C50    H142    1.109   .     S
C51    H145    1.111   .     S
C51    H146    1.103   .     S
C51    H147    1.102   .     S
C52    H149    1.110   .     S
C52    H148    1.112   .     S
C52    O227    1.425   .     S
C52    C53     1.556   .     S
C53    H150    1.112   .     S
C53    H151    1.105   .     S
C53    C302    1.515   .     S
C54    H153    1.110   .     S
C54    H152    1.103   .     S
C54    C301    1.515   1_455 S
C54    H403    1.107   1_455 S
C55    H156    1.110   .     S
C55    O228    1.415   .     S
C55    C57     1.518   .     S
C55    H157    1.119   .     S
C56    O214    1.298   .     A
C56    O215    1.299   .     A
C57    H158    1.111   .     S
C57    H159    1.108   .     S
C57    C58     1.522   .     S
C58    H160    1.110   .     S
C58    H162    1.107   .     S
C58    H161    1.107   .     S
C59    O229    1.427   .     S
C59    H164    1.110   .     S
C59    C60     1.540   .     S
C59    H163    1.108   .     S
C60    H167    1.109   .     S
C60    H166    1.108   .     S
C60    C309    1.528   1_455 S
C61    H169    1.107   .     S
C61    H170    1.110   .     S
C61    C308    1.528   .     S
C61    H416    1.109   .     S
C62    O230    1.407   .     S
C62    H171    1.118   .     S
C62    C63     1.516   .     S
C62    H172    1.104   .     S
C63    H174    1.109   .     S
C63    H173    1.099   .     S
C63    C560    1.514   .     S
C64    H177    1.106   .     S
C64    H178    1.107   .     S
C64    H175    1.101   .     S
C64    C559    1.514   1_545 S
C65    O231    1.415   .     S
C65    H179    1.105   .     S
C65    C66     1.524   .     S
C65    H180    1.118   .     S
C66    H181    1.109   .     S
C66    H182    1.108   .     S
C66    C1060   1.532   .     S
C67    O220    1.299   .     A
C67    O217    1.292   .     A
C68    H184    1.107   .     S
C68    H185    1.109   .     S
C68    C2050   1.532   1_554 S
C68    H2167   1.109   1_554 S
C69    H188    1.118   .     S
C69    O232    1.418   .     S
C69    H186    1.112   .     S
C69    C70     1.518   .     S
C70    C71     1.521   .     S
C70    H190    1.108   .     S
C70    H189    1.105   .     S
C71    H192    1.108   .     S
C71    H687    1.106   1_545 S
C71    H689    1.110   1_545 S
C72    H195    1.110   .     S
C72    O233    1.425   .     S
C72    C73     1.543   .     S
C72    H194    1.103   .     S
C73    C74     1.521   .     S
C73    H197    1.112   .     S
C73    H196    1.110   .     S
C74    H199    1.108   .     S
C74    H200    1.109   .     S
C74    H201    1.100   .     S
C75    O234    1.419   .     S
C75    H202    1.111   .     S
C75    H203    1.116   .     S
C75    C76     1.534   .     S
C76    C77     1.517   .     S
C76    H205    1.108   .     S
C76    H204    1.112   .     S
C77    H207    1.103   .     S
C77    H208    1.104   .     S
C77    H206    1.111   .     S
C78    O219    1.298   .     A
C78    O218    1.297   .     A
C79    O236    1.423   .     S
C79    H92     1.113   .     S
C79    H91     1.109   .     S
C79    C80     1.545   .     S
C80    H93     1.110   .     S
C80    C81     1.522   .     S
C80    H94     1.109   .     S
C81    H96     1.110   .     S
C81    H97     1.106   .     S
C81    H95     1.109   .     S
C82    H99     1.117   .     S
C82    O237    1.414   .     S
C82    H98     1.109   .     S
C82    C83     1.523   .     S
C83    H102    1.110   .     S
C83    C84     1.519   .     S
C83    H100    1.109   .     S
C84    H104    1.108   .     S
C84    H103    1.110   .     S
C84    H601    1.104   1_545 S
C85    O238    1.424   .     S
C85    C86     1.523   .     S
C85    H106    1.109   .     S
C85    H107    1.114   .     S
C86    H109    1.111   .     S
C86    C87     1.516   .     S
C86    H108    1.101   .     S
C87    H110    1.110   .     S
C87    H2095   1.104   1_554 S
C87    H2097   1.108   1_554 S
C88    H89     1.076   .     S
C88    C1988   1.421   1_554 S
C88    N458    1.367   .     S
H105   C580    1.104   .     S
H111   C1079   1.104   .     S
H113   C1079   1.108   .     S
H123   C2025   1.104   1_554 S
H124   C2025   1.104   1_554 S
H130   C1036   1.107   .     S
H131   C1036   1.110   .     S
H137   C296    1.109   1_455 S
H138   C2032   1.105   1_554 S
H139   C2032   1.111   1_554 S
H155   C302    1.107   .     S
H168   C309    1.109   1_455 S
H183   C1060   1.109   .     S
H191   C567    1.106   .     S
H193   C567    1.110   .     S
N209   C252    1.369   1_455 A
N209   Zn245   2.028   .     S
N210   Zn246   2.028   .     S
N210   C336    1.367   1_455 S
N211   Zn247   2.028   .     S
N211   C502    1.365   1_545 A
N212   Zn248   2.028   .     S
N212   C503    1.366   1_545 A
O213   Zn245   2.033   .     S
O214   Zn248   2.033   .     S
O215   Zn247   2.034   .     S
O216   Zn744   2.034   .     S
O217   Zn744   2.041   .     S
O218   Zn247   2.041   .     S
O219   Zn248   2.032   .     S
O220   Zn743   2.032   .     S
O224   Zn494   2.033   .     S
O235   Zn493   2.034   .     S
O239   Zn246   2.034   .     S
O240   Zn494   2.041   .     S
O241   Zn245   2.041   .     S
O242   Zn246   2.032   .     S
O243   Zn493   2.032   .     S
O244   Zn743   2.033   .     S
Zn245  O491    2.032   1_455 S
Zn245  O483    2.034   1_455 S
Zn246  O488    2.041   1_455 S
Zn246  O472    2.033   1_455 S
Zn247  O716    2.032   1_545 S
Zn247  O740    2.033   1_545 S
Zn248  O713    2.041   1_545 S
Zn248  O712    2.034   1_545 S
C249   O487    1.304   .     A
C249   O461    1.286   .     A
C249   C278    1.445   .     S
C250   H369    1.077   .     S
C250   C1243   1.421   .     S
C250   N457    1.368   .     S
C251   N458    1.368   .     A
C251   H380    1.080   .     S
C251   C2234   1.421   1_554 S
C252   H391    1.080   .     S
C252   N209    1.369   1_655 A
C252   C1328   1.421   .     S
C253   H402    1.076   .     S
C253   C2240   1.419   1_554 S
C253   N460    1.367   .     S
C254   H413    1.078   .     S
C254   N955    1.365   .     A
C254   C1247   1.421   .     S
C255   N956    1.366   .     A
C255   H424    1.073   .     S
C255   C2238   1.421   1_554 S
C256   H435    1.079   .     S
C256   C1245   1.419   .     S
C256   N459    1.369   .     S
C257   C268    1.380   .     A
C257   O469    1.383   .     S
C257   C276    1.405   .     A
C258   C275    1.414   .     A
C258   C269    1.386   .     A
C258   O470    1.382   .     S
C259   C266    1.381   .     A
C259   C275    1.413   .     A
C259   O471    1.383   .     S
C260   O483    1.298   .     A
C260   O472    1.299   .     A
C260   C277    1.460   .     S
C261   O473    1.385   .     S
C261   C276    1.410   .     A
C261   C267    1.382   .     A
C262   O474    1.382   .     S
C262   C278    1.407   .     A
C262   C273    1.383   .     A
C263   C277    1.411   .     A
C263   C274    1.386   .     A
C263   O475    1.384   .     S
C264   C277    1.409   .     A
C264   O476    1.383   .     S
C264   C270    1.385   .     A
C265   C278    1.403   .     A
C265   C272    1.388   .     A
C265   O477    1.389   .     S
C266   O478    1.377   .     S
C266   C280    1.403   .     A
C267   C279    1.417   .     A
C267   O479    1.385   .     S
C268   O480    1.387   .     S
C268   C279    1.417   .     A
C269   O481    1.386   .     S
C269   C280    1.402   .     A
C270   C283    1.414   .     A
C270   O482    1.385   .     S
C271   O491    1.295   .     A
C271   C276    1.452   .     S
C271   O488    1.298   .     A
C272   O484    1.383   .     S
C272   C281    1.412   .     A
C273   O485    1.379   .     S
C273   C281    1.411   .     A
C274   O486    1.386   .     S
C274   C283    1.405   .     A
C275   C282    1.453   .     S
C279   C326    1.455   .     S
C280   C315    1.448   .     S
C281   C304    1.458   .     S
C282   O490    1.296   .     A
C282   O489    1.298   .     A
C283   C293    1.451   .     S
C284   H446    1.100   .     S
C284   H338    1.111   .     S
C284   C285    1.554   .     S
C284   O469    1.428   .     S
C285   H360    1.108   .     S
C285   C286    1.509   .     S
C285   H349    1.112   .     S
C286   H362    1.106   .     S
C286   H364    1.110   .     S
C286   H363    1.105   .     S
C287   O470    1.418   .     S
C287   C288    1.527   .     S
C287   H366    1.112   .     S
C287   H365    1.111   .     S
C288   H367    1.108   .     S
C288   C289    1.524   .     S
C288   H368    1.110   .     S
C289   H370    1.110   .     S
C289   H1363   1.104   .     S
C289   H1364   1.104   .     S
C290   H373    1.111   .     S
C290   C291    1.524   .     S
C290   H374    1.117   .     S
C290   O471    1.416   .     S
C291   H376    1.108   .     S
C291   C292    1.518   .     S
C291   H375    1.103   .     S
C292   H377    1.108   .     S
C292   H2362   1.107   1_554 S
C292   H2363   1.110   1_554 S
C293   O464    1.301   .     A
C293   O492    1.292   .     A
C294   H382    1.114   .     S
C294   C295    1.517   .     S
C294   H381    1.105   .     S
C294   O473    1.418   .     S
C295   H384    1.100   .     S
C295   C296    1.525   .     S
C295   H383    1.106   .     S
C296   H137    1.109   1_655 S
C296   H1378   1.105   .     S
C296   H1379   1.111   .     S
C297   C298    1.531   .     S
C297   H388    1.110   .     S
C297   H389    1.121   .     S
C297   O474    1.418   .     S
C298   H392    1.107   .     S
C298   C299    1.522   .     S
C298   H390    1.109   .     S
C299   H393    1.111   .     S
C299   H394    1.103   .     S
C299   H395    1.102   .     S
C300   H397    1.110   .     S
C300   H396    1.112   .     S
C300   O475    1.425   .     S
C300   C301    1.556   .     S
C301   H398    1.112   .     S
C301   H399    1.105   .     S
C301   C54     1.515   1_655 S
C302   H401    1.110   .     S
C302   H400    1.103   .     S
C303   H404    1.110   .     S
C303   O476    1.415   .     S
C303   C305    1.518   .     S
C303   H405    1.119   .     S
C304   O462    1.298   .     A
C304   O463    1.299   .     A
C305   H406    1.111   .     S
C305   H407    1.108   .     S
C305   C306    1.522   .     S
C306   H408    1.110   .     S
C306   H410    1.107   .     S
C306   H409    1.107   .     S
C307   O477    1.427   .     S
C307   H412    1.110   .     S
C307   C308    1.540   .     S
C307   H411    1.108   .     S
C308   H415    1.109   .     S
C308   H414    1.108   .     S
C309   H417    1.107   .     S
C309   H418    1.110   .     S
C309   C60     1.528   1_655 S
C309   H168    1.109   1_655 S
C310   O478    1.407   .     S
C310   H419    1.118   .     S
C310   C311    1.516   .     S
C310   H420    1.104   .     S
C311   H422    1.109   .     S
C311   H421    1.099   .     S
C311   C808    1.514   .     S
C312   H425    1.106   .     S
C312   H426    1.107   .     S
C312   H423    1.101   .     S
C312   C807    1.514   1_545 S
C313   O479    1.415   .     S
C313   H427    1.105   .     S
C313   C314    1.524   .     S
C313   H428    1.118   .     S
C314   H429    1.109   .     S
C314   H430    1.108   .     S
C314   C1308   1.532   .     S
C315   O468    1.299   .     A
C315   O465    1.292   .     A
C316   H432    1.107   .     S
C316   H433    1.109   .     S
C316   C2298   1.532   1_554 S
C316   H2415   1.109   1_554 S
C317   H436    1.118   .     S
C317   O480    1.418   .     S
C317   H434    1.112   .     S
C317   C318    1.518   .     S
C318   C319    1.521   .     S
C318   H438    1.108   .     S
C318   H437    1.105   .     S
C319   H440    1.108   .     S
C319   H935    1.106   1_545 S
C319   H937    1.110   1_545 S
C320   H443    1.110   .     S
C320   O481    1.425   .     S
C320   C321    1.543   .     S
C320   H442    1.103   .     S
C321   C322    1.521   .     S
C321   H445    1.112   .     S
C321   H444    1.110   .     S
C322   H447    1.108   .     S
C322   H448    1.109   .     S
C322   H449    1.100   .     S
C323   O482    1.419   .     S
C323   H450    1.111   .     S
C323   H451    1.116   .     S
C323   C324    1.534   .     S
C324   C325    1.517   .     S
C324   H453    1.108   .     S
C324   H452    1.112   .     S
C325   H455    1.103   .     S
C325   H456    1.104   .     S
C325   H454    1.111   .     S
C326   O467    1.298   .     A
C326   O466    1.297   .     A
C327   O484    1.423   .     S
C327   H340    1.113   .     S
C327   H339    1.109   .     S
C327   C328    1.545   .     S
C328   H341    1.110   .     S
C328   C329    1.522   .     S
C328   H342    1.109   .     S
C329   H344    1.110   .     S
C329   H345    1.106   .     S
C329   H343    1.109   .     S
C330   H347    1.117   .     S
C330   O485    1.414   .     S
C330   H346    1.109   .     S
C330   C331    1.523   .     S
C331   H350    1.110   .     S
C331   C332    1.519   .     S
C331   H348    1.109   .     S
C332   H352    1.108   .     S
C332   H351    1.110   .     S
C332   H849    1.104   1_545 S
C333   O486    1.424   .     S
C333   C334    1.523   .     S
C333   H354    1.109   .     S
C333   H355    1.114   .     S
C334   H357    1.111   .     S
C334   C335    1.516   .     S
C334   H356    1.101   .     S
C335   H358    1.110   .     S
C335   H2343   1.104   1_554 S
C335   H2345   1.108   1_554 S
C336   H337    1.076   .     S
C336   C2236   1.421   1_554 S
C336   N210    1.367   1_655 S
H353   C828    1.104   .     S
H359   C1327   1.104   .     S
H361   C1327   1.108   .     S
H371   C2273   1.104   1_554 S
H372   C2273   1.104   1_554 S
H378   C1284   1.107   .     S
H379   C1284   1.110   .     S
H386   C2280   1.105   1_554 S
H387   C2280   1.111   1_554 S
H403   C54     1.107   1_655 S
H431   C1308   1.109   .     S
H439   C815    1.106   .     S
H441   C815    1.110   .     S
N457   Zn493   2.028   .     S
N458   Zn494   2.028   .     S
N459   Zn495   2.028   .     S
N459   C750    1.365   1_545 A
N460   Zn496   2.028   .     S
N460   C751    1.366   1_545 A
O461   Zn493   2.033   .     S
O462   Zn496   2.033   .     S
O463   Zn495   2.034   .     S
O464   Zn992   2.034   .     S
O465   Zn992   2.041   .     S
O466   Zn495   2.041   .     S
O467   Zn496   2.032   .     S
O468   Zn991   2.032   .     S
O472   Zn246   2.033   1_655 S
O483   Zn245   2.034   1_655 S
O487   Zn494   2.034   .     S
O488   Zn246   2.041   1_655 S
O489   Zn493   2.041   .     S
O490   Zn494   2.032   .     S
O491   Zn245   2.032   1_655 S
O492   Zn991   2.033   .     S
Zn495  O964    2.032   1_545 S
Zn495  O988    2.033   1_545 S
Zn496  O961    2.041   1_545 S
Zn496  O960    2.034   1_545 S
C497   O735    1.304   .     A
C497   O709    1.286   .     A
C497   C526    1.445   .     S
C498   H617    1.077   .     S
C498   C1491   1.421   .     S
C498   N705    1.368   .     S
C499   N706    1.368   .     A
C499   H628    1.080   .     S
C499   C2482   1.421   1_554 S
C500   H639    1.080   .     S
C500   N953    1.369   .     A
C500   C1576   1.421   .     S
C501   H650    1.076   .     S
C501   C2488   1.419   1_554 S
C501   N708    1.367   .     S
C502   H661    1.078   .     S
C502   N211    1.365   1_565 A
C502   C1495   1.421   .     S
C503   N212    1.366   1_565 A
C503   H672    1.073   .     S
C503   C2486   1.421   1_554 S
C504   H683    1.079   .     S
C504   C1493   1.419   .     S
C504   N707    1.369   .     S
C505   C516    1.380   .     A
C505   O717    1.383   .     S
C505   C524    1.405   .     A
C506   C523    1.414   .     A
C506   C517    1.386   .     A
C506   O718    1.382   .     S
C507   C514    1.381   .     A
C507   C523    1.413   .     A
C507   O719    1.383   .     S
C508   O731    1.298   .     A
C508   O720    1.299   .     A
C508   C525    1.460   .     S
C509   O721    1.385   .     S
C509   C524    1.410   .     A
C509   C515    1.382   .     A
C510   O722    1.382   .     S
C510   C526    1.407   .     A
C510   C521    1.383   .     A
C511   C525    1.411   .     A
C511   C522    1.386   .     A
C511   O723    1.384   .     S
C512   C525    1.409   .     A
C512   O724    1.383   .     S
C512   C518    1.385   .     A
C513   C526    1.403   .     A
C513   C520    1.388   .     A
C513   O725    1.389   .     S
C514   O726    1.377   .     S
C514   C528    1.403   .     A
C515   C527    1.417   .     A
C515   O727    1.385   .     S
C516   O728    1.387   .     S
C516   C527    1.417   .     A
C517   O729    1.386   .     S
C517   C528    1.402   .     A
C518   C531    1.414   .     A
C518   O730    1.385   .     S
C519   O739    1.295   .     A
C519   C524    1.452   .     S
C519   O736    1.298   .     A
C520   O732    1.383   .     S
C520   C529    1.412   .     A
C521   O733    1.379   .     S
C521   C529    1.411   .     A
C522   O734    1.386   .     S
C522   C531    1.405   .     A
C523   C530    1.453   .     S
C527   C574    1.455   .     S
C528   C563    1.448   .     S
C529   C552    1.458   .     S
C530   O738    1.296   .     A
C530   O737    1.298   .     A
C531   C541    1.451   .     S
C532   H694    1.100   .     S
C532   H586    1.111   .     S
C532   C533    1.554   .     S
C532   O717    1.428   .     S
C533   H608    1.108   .     S
C533   C534    1.509   .     S
C533   H597    1.112   .     S
C534   H610    1.106   .     S
C534   H612    1.110   .     S
C534   H611    1.105   .     S
C535   O718    1.418   .     S
C535   C536    1.527   .     S
C535   H614    1.112   .     S
C535   H613    1.111   .     S
C536   H615    1.108   .     S
C536   C537    1.524   .     S
C536   H616    1.110   .     S
C537   H618    1.110   .     S
C537   H1611   1.104   .     S
C537   H1612   1.104   .     S
C538   H621    1.111   .     S
C538   C539    1.524   .     S
C538   H622    1.117   .     S
C538   O719    1.416   .     S
C539   H624    1.108   .     S
C539   C540    1.518   .     S
C539   H623    1.103   .     S
C540   H625    1.108   .     S
C540   H2610   1.107   1_554 S
C540   H2611   1.110   1_554 S
C541   O712    1.301   .     A
C541   O740    1.292   .     A
C542   H630    1.114   .     S
C542   C543    1.517   .     S
C542   H629    1.105   .     S
C542   O721    1.418   .     S
C543   H632    1.100   .     S
C543   C544    1.525   .     S
C543   H631    1.106   .     S
C544   H881    1.109   .     S
C544   H1626   1.105   .     S
C544   H1627   1.111   .     S
C545   C546    1.531   .     S
C545   H636    1.110   .     S
C545   H637    1.121   .     S
C545   O722    1.418   .     S
C546   H640    1.107   .     S
C546   C547    1.522   .     S
C546   H638    1.109   .     S
C547   H641    1.111   .     S
C547   H642    1.103   .     S
C547   H643    1.102   .     S
C548   H645    1.110   .     S
C548   H644    1.112   .     S
C548   O723    1.425   .     S
C548   C549    1.556   .     S
C549   H646    1.112   .     S
C549   H647    1.105   .     S
C549   C798    1.515   .     S
C550   H649    1.110   .     S
C550   H648    1.103   .     S
C550   C797    1.515   1_455 S
C550   H899    1.107   1_455 S
C551   H652    1.110   .     S
C551   O724    1.415   .     S
C551   C553    1.518   .     S
C551   H653    1.119   .     S
C552   O710    1.298   .     A
C552   O711    1.299   .     A
C553   H654    1.111   .     S
C553   H655    1.108   .     S
C553   C554    1.522   .     S
C554   H656    1.110   .     S
C554   H658    1.107   .     S
C554   H657    1.107   .     S
C555   O725    1.427   .     S
C555   H660    1.110   .     S
C555   C556    1.540   .     S
C555   H659    1.108   .     S
C556   H663    1.109   .     S
C556   H662    1.108   .     S
C556   C805    1.528   1_455 S
C557   H665    1.107   .     S
C557   H666    1.110   .     S
C557   C804    1.528   .     S
C557   H912    1.109   .     S
C558   O726    1.407   .     S
C558   H667    1.118   .     S
C558   C559    1.516   .     S
C558   H668    1.104   .     S
C559   H670    1.109   .     S
C559   H669    1.099   .     S
C559   C64     1.514   1_565 S
C560   H673    1.106   .     S
C560   H674    1.107   .     S
C560   H671    1.101   .     S
C561   O727    1.415   .     S
C561   H675    1.105   .     S
C561   C562    1.524   .     S
C561   H676    1.118   .     S
C562   H677    1.109   .     S
C562   H678    1.108   .     S
C562   C1556   1.532   .     S
C563   O716    1.299   .     A
C563   O713    1.292   .     A
C564   H680    1.107   .     S
C564   H681    1.109   .     S
C564   C2546   1.532   1_554 S
C564   H2663   1.109   1_554 S
C565   H684    1.118   .     S
C565   O728    1.418   .     S
C565   H682    1.112   .     S
C565   C566    1.518   .     S
C566   C567    1.521   .     S
C566   H686    1.108   .     S
C566   H685    1.105   .     S
C567   H688    1.108   .     S
C568   H691    1.110   .     S
C568   O729    1.425   .     S
C568   C569    1.543   .     S
C568   H690    1.103   .     S
C569   C570    1.521   .     S
C569   H693    1.112   .     S
C569   H692    1.110   .     S
C570   H695    1.108   .     S
C570   H696    1.109   .     S
C570   H697    1.100   .     S
C571   O730    1.419   .     S
C571   H698    1.111   .     S
C571   H699    1.116   .     S
C571   C572    1.534   .     S
C572   C573    1.517   .     S
C572   H701    1.108   .     S
C572   H700    1.112   .     S
C573   H703    1.103   .     S
C573   H704    1.104   .     S
C573   H702    1.111   .     S
C574   O715    1.298   .     A
C574   O714    1.297   .     A
C575   O732    1.423   .     S
C575   H588    1.113   .     S
C575   H587    1.109   .     S
C575   C576    1.545   .     S
C576   H589    1.110   .     S
C576   C577    1.522   .     S
C576   H590    1.109   .     S
C577   H592    1.110   .     S
C577   H593    1.106   .     S
C577   H591    1.109   .     S
C578   H595    1.117   .     S
C578   O733    1.414   .     S
C578   H594    1.109   .     S
C578   C579    1.523   .     S
C579   H598    1.110   .     S
C579   C580    1.519   .     S
C579   H596    1.109   .     S
C580   H600    1.108   .     S
C580   H599    1.110   .     S
C581   O734    1.424   .     S
C581   C582    1.523   .     S
C581   H602    1.109   .     S
C581   H603    1.114   .     S
C582   H605    1.111   .     S
C582   C583    1.516   .     S
C582   H604    1.101   .     S
C583   H606    1.110   .     S
C583   H2591   1.104   1_554 S
C583   H2593   1.108   1_554 S
C584   H585    1.076   .     S
C584   C2484   1.421   1_554 S
C584   N954    1.367   .     S
H601   C84     1.104   1_565 S
H607   C1575   1.104   .     S
H609   C1575   1.108   .     S
H619   C2521   1.104   1_554 S
H620   C2521   1.104   1_554 S
H626   C1532   1.107   .     S
H627   C1532   1.110   .     S
H633   C792    1.109   1_455 S
H634   C2528   1.105   1_554 S
H635   C2528   1.111   1_554 S
H651   C798    1.107   .     S
H664   C805    1.109   1_455 S
H679   C1556   1.109   .     S
H687   C71     1.106   1_565 S
H689   C71     1.110   1_565 S
N705   C748    1.369   1_455 A
N705   Zn741   2.028   .     S
N706   Zn742   2.028   .     S
N706   C832    1.367   1_455 S
N707   Zn743   2.028   .     S
N708   Zn744   2.028   .     S
O709   Zn741   2.033   .     S
O710   Zn744   2.033   .     S
O711   Zn743   2.034   .     S
O712   Zn248   2.034   1_565 S
O713   Zn248   2.041   1_565 S
O714   Zn743   2.041   .     S
O715   Zn744   2.032   .     S
O716   Zn247   2.032   1_565 S
O720   Zn990   2.033   .     S
O731   Zn989   2.034   .     S
O735   Zn742   2.034   .     S
O736   Zn990   2.041   .     S
O737   Zn741   2.041   .     S
O738   Zn742   2.032   .     S
O739   Zn989   2.032   .     S
O740   Zn247   2.033   1_565 S
Zn741  O987    2.032   1_455 S
Zn741  O979    2.034   1_455 S
Zn742  O984    2.041   1_455 S
Zn742  O968    2.033   1_455 S
C745   O983    1.304   .     A
C745   O957    1.286   .     A
C745   C774    1.445   .     S
C746   H865    1.077   .     S
C746   C1739   1.421   .     S
C746   N953    1.368   .     S
C747   N954    1.368   .     A
C747   H876    1.080   .     S
C747   C2730   1.421   1_554 S
C748   H887    1.080   .     S
C748   N705    1.369   1_655 A
C748   C1824   1.421   .     S
C749   H898    1.076   .     S
C749   C2736   1.419   1_554 S
C749   N956    1.367   .     S
C750   H909    1.078   .     S
C750   N459    1.365   1_565 A
C750   C1743   1.421   .     S
C751   N460    1.366   1_565 A
C751   H920    1.073   .     S
C751   C2734   1.421   1_554 S
C752   H931    1.079   .     S
C752   C1741   1.419   .     S
C752   N955    1.369   .     S
C753   C764    1.380   .     A
C753   O965    1.383   .     S
C753   C772    1.405   .     A
C754   C771    1.414   .     A
C754   C765    1.386   .     A
C754   O966    1.382   .     S
C755   C762    1.381   .     A
C755   C771    1.413   .     A
C755   O967    1.383   .     S
C756   O979    1.298   .     A
C756   O968    1.299   .     A
C756   C773    1.460   .     S
C757   O969    1.385   .     S
C757   C772    1.410   .     A
C757   C763    1.382   .     A
C758   O970    1.382   .     S
C758   C774    1.407   .     A
C758   C769    1.383   .     A
C759   C773    1.411   .     A
C759   C770    1.386   .     A
C759   O971    1.384   .     S
C760   C773    1.409   .     A
C760   O972    1.383   .     S
C760   C766    1.385   .     A
C761   C774    1.403   .     A
C761   C768    1.388   .     A
C761   O973    1.389   .     S
C762   O974    1.377   .     S
C762   C776    1.403   .     A
C763   C775    1.417   .     A
C763   O975    1.385   .     S
C764   O976    1.387   .     S
C764   C775    1.417   .     A
C765   O977    1.386   .     S
C765   C776    1.402   .     A
C766   C779    1.414   .     A
C766   O978    1.385   .     S
C767   O987    1.295   .     A
C767   C772    1.452   .     S
C767   O984    1.298   .     A
C768   O980    1.383   .     S
C768   C777    1.412   .     A
C769   O981    1.379   .     S
C769   C777    1.411   .     A
C770   O982    1.386   .     S
C770   C779    1.405   .     A
C771   C778    1.453   .     S
C775   C822    1.455   .     S
C776   C811    1.448   .     S
C777   C800    1.458   .     S
C778   O986    1.296   .     A
C778   O985    1.298   .     A
C779   C789    1.451   .     S
C780   H942    1.100   .     S
C780   H834    1.111   .     S
C780   C781    1.554   .     S
C780   O965    1.428   .     S
C781   H856    1.108   .     S
C781   C782    1.509   .     S
C781   H845    1.112   .     S
C782   H858    1.106   .     S
C782   H860    1.110   .     S
C782   H859    1.105   .     S
C783   O966    1.418   .     S
C783   C784    1.527   .     S
C783   H862    1.112   .     S
C783   H861    1.111   .     S
C784   H863    1.108   .     S
C784   C785    1.524   .     S
C784   H864    1.110   .     S
C785   H866    1.110   .     S
C785   H1859   1.104   .     S
C785   H1860   1.104   .     S
C786   H869    1.111   .     S
C786   C787    1.524   .     S
C786   H870    1.117   .     S
C786   O967    1.416   .     S
C787   H872    1.108   .     S
C787   C788    1.518   .     S
C787   H871    1.103   .     S
C788   H873    1.108   .     S
C788   H2858   1.107   1_554 S
C788   H2859   1.110   1_554 S
C789   O960    1.301   .     A
C789   O988    1.292   .     A
C790   H878    1.114   .     S
C790   C791    1.517   .     S
C790   H877    1.105   .     S
C790   O969    1.418   .     S
C791   H880    1.100   .     S
C791   C792    1.525   .     S
C791   H879    1.106   .     S
C792   H633    1.109   1_655 S
C792   H1874   1.105   .     S
C792   H1875   1.111   .     S
C793   C794    1.531   .     S
C793   H884    1.110   .     S
C793   H885    1.121   .     S
C793   O970    1.418   .     S
C794   H888    1.107   .     S
C794   C795    1.522   .     S
C794   H886    1.109   .     S
C795   H889    1.111   .     S
C795   H890    1.103   .     S
C795   H891    1.102   .     S
C796   H893    1.110   .     S
C796   H892    1.112   .     S
C796   O971    1.425   .     S
C796   C797    1.556   .     S
C797   H894    1.112   .     S
C797   H895    1.105   .     S
C797   C550    1.515   1_655 S
C798   H897    1.110   .     S
C798   H896    1.103   .     S
C799   H900    1.110   .     S
C799   O972    1.415   .     S
C799   C801    1.518   .     S
C799   H901    1.119   .     S
C800   O958    1.298   .     A
C800   O959    1.299   .     A
C801   H902    1.111   .     S
C801   H903    1.108   .     S
C801   C802    1.522   .     S
C802   H904    1.110   .     S
C802   H906    1.107   .     S
C802   H905    1.107   .     S
C803   O973    1.427   .     S
C803   H908    1.110   .     S
C803   C804    1.540   .     S
C803   H907    1.108   .     S
C804   H911    1.109   .     S
C804   H910    1.108   .     S
C805   H913    1.107   .     S
C805   H914    1.110   .     S
C805   C556    1.528   1_655 S
C805   H664    1.109   1_655 S
C806   O974    1.407   .     S
C806   H915    1.118   .     S
C806   C807    1.516   .     S
C806   H916    1.104   .     S
C807   H918    1.109   .     S
C807   H917    1.099   .     S
C807   C312    1.514   1_565 S
C808   H921    1.106   .     S
C808   H922    1.107   .     S
C808   H919    1.101   .     S
C809   O975    1.415   .     S
C809   H923    1.105   .     S
C809   C810    1.524   .     S
C809   H924    1.118   .     S
C810   H925    1.109   .     S
C810   H926    1.108   .     S
C810   C1804   1.532   .     S
C811   O964    1.299   .     A
C811   O961    1.292   .     A
C812   H928    1.107   .     S
C812   H929    1.109   .     S
C812   C2794   1.532   1_554 S
C812   H2911   1.109   1_554 S
C813   H932    1.118   .     S
C813   O976    1.418   .     S
C813   H930    1.112   .     S
C813   C814    1.518   .     S
C814   C815    1.521   .     S
C814   H934    1.108   .     S
C814   H933    1.105   .     S
C815   H936    1.108   .     S
C816   H939    1.110   .     S
C816   O977    1.425   .     S
C816   C817    1.543   .     S
C816   H938    1.103   .     S
C817   C818    1.521   .     S
C817   H941    1.112   .     S
C817   H940    1.110   .     S
C818   H943    1.108   .     S
C818   H944    1.109   .     S
C818   H945    1.100   .     S
C819   O978    1.419   .     S
C819   H946    1.111   .     S
C819   H947    1.116   .     S
C819   C820    1.534   .     S
C820   C821    1.517   .     S
C820   H949    1.108   .     S
C820   H948    1.112   .     S
C821   H951    1.103   .     S
C821   H952    1.104   .     S
C821   H950    1.111   .     S
C822   O963    1.298   .     A
C822   O962    1.297   .     A
C823   O980    1.423   .     S
C823   H836    1.113   .     S
C823   H835    1.109   .     S
C823   C824    1.545   .     S
C824   H837    1.110   .     S
C824   C825    1.522   .     S
C824   H838    1.109   .     S
C825   H840    1.110   .     S
C825   H841    1.106   .     S
C825   H839    1.109   .     S
C826   H843    1.117   .     S
C826   O981    1.414   .     S
C826   H842    1.109   .     S
C826   C827    1.523   .     S
C827   H846    1.110   .     S
C827   C828    1.519   .     S
C827   H844    1.109   .     S
C828   H848    1.108   .     S
C828   H847    1.110   .     S
C829   O982    1.424   .     S
C829   C830    1.523   .     S
C829   H850    1.109   .     S
C829   H851    1.114   .     S
C830   H853    1.111   .     S
C830   C831    1.516   .     S
C830   H852    1.101   .     S
C831   H854    1.110   .     S
C831   H2839   1.104   1_554 S
C831   H2841   1.108   1_554 S
C832   H833    1.076   .     S
C832   C2732   1.421   1_554 S
C832   N706    1.367   1_655 S
H849   C332    1.104   1_565 S
H855   C1823   1.104   .     S
H857   C1823   1.108   .     S
H867   C2769   1.104   1_554 S
H868   C2769   1.104   1_554 S
H874   C1780   1.107   .     S
H875   C1780   1.110   .     S
H882   C2776   1.105   1_554 S
H883   C2776   1.111   1_554 S
H899   C550    1.107   1_655 S
H927   C1804   1.109   .     S
H935   C319    1.106   1_565 S
H937   C319    1.110   1_565 S
N953   Zn989   2.028   .     S
N954   Zn990   2.028   .     S
N955   Zn991   2.028   .     S
N956   Zn992   2.028   .     S
O957   Zn989   2.033   .     S
O958   Zn992   2.033   .     S
O959   Zn991   2.034   .     S
O960   Zn496   2.034   1_565 S
O961   Zn496   2.041   1_565 S
O962   Zn991   2.041   .     S
O963   Zn992   2.032   .     S
O964   Zn495   2.032   1_565 S
O968   Zn742   2.033   1_655 S
O979   Zn741   2.034   1_655 S
O983   Zn990   2.034   .     S
O984   Zn742   2.041   1_655 S
O985   Zn989   2.041   .     S
O986   Zn990   2.032   .     S
O987   Zn741   2.032   1_655 S
O988   Zn495   2.033   1_565 S
C993   O1231   1.304   .     A
C993   O1205   1.286   .     A
C993   C1022   1.445   .     S
C994   H1113   1.077   .     S
C994   C1987   1.421   .     S
C994   N1201   1.368   .     S
C995   N1202   1.368   .     A
C995   H1124   1.080   .     S
C996   H1135   1.080   .     S
C996   N1449   1.369   .     A
C996   C2072   1.421   .     S
C997   H1146   1.076   .     S
C997   N1204   1.367   .     S
C998   H1157   1.078   .     S
C998   N1699   1.365   .     A
C998   C1991   1.421   .     S
C999   N1700   1.366   .     A
C999   H1168   1.073   .     S
C1000  H1179   1.079   .     S
C1000  C1989   1.419   .     S
C1000  N1203   1.369   .     S
C1001  C1012   1.380   .     A
C1001  O1213   1.383   .     S
C1001  C1020   1.405   .     A
C1002  C1019   1.414   .     A
C1002  C1013   1.386   .     A
C1002  O1214   1.382   .     S
C1003  C1010   1.381   .     A
C1003  C1019   1.413   .     A
C1003  O1215   1.383   .     S
C1004  O1227   1.298   .     A
C1004  O1216   1.299   .     A
C1004  C1021   1.460   .     S
C1005  O1217   1.385   .     S
C1005  C1020   1.410   .     A
C1005  C1011   1.382   .     A
C1006  O1218   1.382   .     S
C1006  C1022   1.407   .     A
C1006  C1017   1.383   .     A
C1007  C1021   1.411   .     A
C1007  C1018   1.386   .     A
C1007  O1219   1.384   .     S
C1008  C1021   1.409   .     A
C1008  O1220   1.383   .     S
C1008  C1014   1.385   .     A
C1009  C1022   1.403   .     A
C1009  C1016   1.388   .     A
C1009  O1221   1.389   .     S
C1010  O1222   1.377   .     S
C1010  C1024   1.403   .     A
C1011  C1023   1.417   .     A
C1011  O1223   1.385   .     S
C1012  O1224   1.387   .     S
C1012  C1023   1.417   .     A
C1013  O1225   1.386   .     S
C1013  C1024   1.402   .     A
C1014  C1027   1.414   .     A
C1014  O1226   1.385   .     S
C1015  O1235   1.295   .     A
C1015  C1020   1.452   .     S
C1015  O1232   1.298   .     A
C1016  O1228   1.383   .     S
C1016  C1025   1.412   .     A
C1017  O1229   1.379   .     S
C1017  C1025   1.411   .     A
C1018  O1230   1.386   .     S
C1018  C1027   1.405   .     A
C1019  C1026   1.453   .     S
C1023  C1070   1.455   .     S
C1024  C1059   1.448   .     S
C1025  C1048   1.458   .     S
C1026  O1234   1.296   .     A
C1026  O1233   1.298   .     A
C1027  C1037   1.451   .     S
C1028  H1190   1.100   .     S
C1028  H1082   1.111   .     S
C1028  C1029   1.554   .     S
C1028  O1213   1.428   .     S
C1029  H1104   1.108   .     S
C1029  C1030   1.509   .     S
C1029  H1093   1.112   .     S
C1030  H1106   1.106   .     S
C1030  H1108   1.110   .     S
C1030  H1107   1.105   .     S
C1031  O1214   1.418   .     S
C1031  C1032   1.527   .     S
C1031  H1110   1.112   .     S
C1031  H1109   1.111   .     S
C1032  H1111   1.108   .     S
C1032  C1033   1.524   .     S
C1032  H1112   1.110   .     S
C1033  H1114   1.110   .     S
C1033  H2107   1.104   .     S
C1033  H2108   1.104   .     S
C1034  H1117   1.111   .     S
C1034  C1035   1.524   .     S
C1034  H1118   1.117   .     S
C1034  O1215   1.416   .     S
C1035  H1120   1.108   .     S
C1035  C1036   1.518   .     S
C1035  H1119   1.103   .     S
C1036  H1121   1.108   .     S
C1037  O1208   1.301   .     A
C1037  O1236   1.292   .     A
C1038  H1126   1.114   .     S
C1038  C1039   1.517   .     S
C1038  H1125   1.105   .     S
C1038  O1217   1.418   .     S
C1039  H1128   1.100   .     S
C1039  C1040   1.525   .     S
C1039  H1127   1.106   .     S
C1040  H1377   1.109   .     S
C1040  H2122   1.105   .     S
C1040  H2123   1.111   .     S
C1041  C1042   1.531   .     S
C1041  H1132   1.110   .     S
C1041  H1133   1.121   .     S
C1041  O1218   1.418   .     S
C1042  H1136   1.107   .     S
C1042  C1043   1.522   .     S
C1042  H1134   1.109   .     S
C1043  H1137   1.111   .     S
C1043  H1138   1.103   .     S
C1043  H1139   1.102   .     S
C1044  H1141   1.110   .     S
C1044  H1140   1.112   .     S
C1044  O1219   1.425   .     S
C1044  C1045   1.556   .     S
C1045  H1142   1.112   .     S
C1045  H1143   1.105   .     S
C1045  C1294   1.515   .     S
C1046  H1145   1.110   .     S
C1046  H1144   1.103   .     S
C1046  C1293   1.515   1_455 S
C1046  H1395   1.107   1_455 S
C1047  H1148   1.110   .     S
C1047  O1220   1.415   .     S
C1047  C1049   1.518   .     S
C1047  H1149   1.119   .     S
C1048  O1206   1.298   .     A
C1048  O1207   1.299   .     A
C1049  H1150   1.111   .     S
C1049  H1151   1.108   .     S
C1049  C1050   1.522   .     S
C1050  H1152   1.110   .     S
C1050  H1154   1.107   .     S
C1050  H1153   1.107   .     S
C1051  O1221   1.427   .     S
C1051  H1156   1.110   .     S
C1051  C1052   1.540   .     S
C1051  H1155   1.108   .     S
C1052  H1159   1.109   .     S
C1052  H1158   1.108   .     S
C1052  C1301   1.528   1_455 S
C1053  H1161   1.107   .     S
C1053  H1162   1.110   .     S
C1053  C1300   1.528   .     S
C1053  H1408   1.109   .     S
C1054  O1222   1.407   .     S
C1054  H1163   1.118   .     S
C1054  C1055   1.516   .     S
C1054  H1164   1.104   .     S
C1055  H1166   1.109   .     S
C1055  H1165   1.099   .     S
C1055  C1552   1.514   .     S
C1056  H1169   1.106   .     S
C1056  H1170   1.107   .     S
C1056  H1167   1.101   .     S
C1056  C1551   1.514   1_545 S
C1057  O1223   1.415   .     S
C1057  H1171   1.105   .     S
C1057  C1058   1.524   .     S
C1057  H1172   1.118   .     S
C1058  H1173   1.109   .     S
C1058  H1174   1.108   .     S
C1058  C2052   1.532   .     S
C1059  O1212   1.299   .     A
C1059  O1209   1.292   .     A
C1060  H1176   1.107   .     S
C1060  H1177   1.109   .     S
C1061  H1180   1.118   .     S
C1061  O1224   1.418   .     S
C1061  H1178   1.112   .     S
C1061  C1062   1.518   .     S
C1062  C1063   1.521   .     S
C1062  H1182   1.108   .     S
C1062  H1181   1.105   .     S
C1063  H1184   1.108   .     S
C1063  H1679   1.106   1_545 S
C1063  H1681   1.110   1_545 S
C1064  H1187   1.110   .     S
C1064  O1225   1.425   .     S
C1064  C1065   1.543   .     S
C1064  H1186   1.103   .     S
C1065  C1066   1.521   .     S
C1065  H1189   1.112   .     S
C1065  H1188   1.110   .     S
C1066  H1191   1.108   .     S
C1066  H1192   1.109   .     S
C1066  H1193   1.100   .     S
C1067  O1226   1.419   .     S
C1067  H1194   1.111   .     S
C1067  H1195   1.116   .     S
C1067  C1068   1.534   .     S
C1068  C1069   1.517   .     S
C1068  H1197   1.108   .     S
C1068  H1196   1.112   .     S
C1069  H1199   1.103   .     S
C1069  H1200   1.104   .     S
C1069  H1198   1.111   .     S
C1070  O1211   1.298   .     A
C1070  O1210   1.297   .     A
C1071  O1228   1.423   .     S
C1071  H1084   1.113   .     S
C1071  H1083   1.109   .     S
C1071  C1072   1.545   .     S
C1072  H1085   1.110   .     S
C1072  C1073   1.522   .     S
C1072  H1086   1.109   .     S
C1073  H1088   1.110   .     S
C1073  H1089   1.106   .     S
C1073  H1087   1.109   .     S
C1074  H1091   1.117   .     S
C1074  O1229   1.414   .     S
C1074  H1090   1.109   .     S
C1074  C1075   1.523   .     S
C1075  H1094   1.110   .     S
C1075  C1076   1.519   .     S
C1075  H1092   1.109   .     S
C1076  H1096   1.108   .     S
C1076  H1095   1.110   .     S
C1076  H1593   1.104   1_545 S
C1077  O1230   1.424   .     S
C1077  C1078   1.523   .     S
C1077  H1098   1.109   .     S
C1077  H1099   1.114   .     S
C1078  H1101   1.111   .     S
C1078  C1079   1.516   .     S
C1078  H1100   1.101   .     S
C1079  H1102   1.110   .     S
C1080  H1081   1.076   .     S
C1080  N1450   1.367   .     S
H1097  C1572   1.104   .     S
H1103  C2071   1.104   .     S
H1105  C2071   1.108   .     S
H1122  C2028   1.107   .     S
H1123  C2028   1.110   .     S
H1129  C1288   1.109   1_455 S
H1147  C1294   1.107   .     S
H1160  C1301   1.109   1_455 S
H1175  C2052   1.109   .     S
H1183  C1559   1.106   .     S
H1185  C1559   1.110   .     S
N1201  C1244   1.369   1_455 A
N1201  Zn1237  2.028   .     S
N1202  Zn1238  2.028   .     S
N1202  C1328   1.367   1_455 S
N1203  Zn1239  2.028   .     S
N1203  C1494   1.365   1_545 A
N1204  Zn1240  2.028   .     S
N1204  C1495   1.366   1_545 A
O1205  Zn1237  2.033   .     S
O1206  Zn1240  2.033   .     S
O1207  Zn1239  2.034   .     S
O1208  Zn1736  2.034   .     S
O1209  Zn1736  2.041   .     S
O1210  Zn1239  2.041   .     S
O1211  Zn1240  2.032   .     S
O1212  Zn1735  2.032   .     S
O1216  Zn1486  2.033   .     S
O1227  Zn1485  2.034   .     S
O1231  Zn1238  2.034   .     S
O1232  Zn1486  2.041   .     S
O1233  Zn1237  2.041   .     S
O1234  Zn1238  2.032   .     S
O1235  Zn1485  2.032   .     S
O1236  Zn1735  2.033   .     S
Zn1237 O1483   2.032   1_455 S
Zn1237 O1475   2.034   1_455 S
Zn1238 O1480   2.041   1_455 S
Zn1238 O1464   2.033   1_455 S
Zn1239 O1708   2.032   1_545 S
Zn1239 O1732   2.033   1_545 S
Zn1240 O1705   2.041   1_545 S
Zn1240 O1704   2.034   1_545 S
C1241  O1479   1.304   .     A
C1241  O1453   1.286   .     A
C1241  C1270   1.445   .     S
C1242  H1361   1.077   .     S
C1242  C2235   1.421   .     S
C1242  N1449   1.368   .     S
C1243  N1450   1.368   .     A
C1243  H1372   1.080   .     S
C1244  H1383   1.080   .     S
C1244  N1201   1.369   1_655 A
C1244  C2320   1.421   .     S
C1245  H1394   1.076   .     S
C1245  N1452   1.367   .     S
C1246  H1405   1.078   .     S
C1246  N1947   1.365   .     A
C1246  C2239   1.421   .     S
C1247  N1948   1.366   .     A
C1247  H1416   1.073   .     S
C1248  H1427   1.079   .     S
C1248  C2237   1.419   .     S
C1248  N1451   1.369   .     S
C1249  C1260   1.380   .     A
C1249  O1461   1.383   .     S
C1249  C1268   1.405   .     A
C1250  C1267   1.414   .     A
C1250  C1261   1.386   .     A
C1250  O1462   1.382   .     S
C1251  C1258   1.381   .     A
C1251  C1267   1.413   .     A
C1251  O1463   1.383   .     S
C1252  O1475   1.298   .     A
C1252  O1464   1.299   .     A
C1252  C1269   1.460   .     S
C1253  O1465   1.385   .     S
C1253  C1268   1.410   .     A
C1253  C1259   1.382   .     A
C1254  O1466   1.382   .     S
C1254  C1270   1.407   .     A
C1254  C1265   1.383   .     A
C1255  C1269   1.411   .     A
C1255  C1266   1.386   .     A
C1255  O1467   1.384   .     S
C1256  C1269   1.409   .     A
C1256  O1468   1.383   .     S
C1256  C1262   1.385   .     A
C1257  C1270   1.403   .     A
C1257  C1264   1.388   .     A
C1257  O1469   1.389   .     S
C1258  O1470   1.377   .     S
C1258  C1272   1.403   .     A
C1259  C1271   1.417   .     A
C1259  O1471   1.385   .     S
C1260  O1472   1.387   .     S
C1260  C1271   1.417   .     A
C1261  O1473   1.386   .     S
C1261  C1272   1.402   .     A
C1262  C1275   1.414   .     A
C1262  O1474   1.385   .     S
C1263  O1483   1.295   .     A
C1263  C1268   1.452   .     S
C1263  O1480   1.298   .     A
C1264  O1476   1.383   .     S
C1264  C1273   1.412   .     A
C1265  O1477   1.379   .     S
C1265  C1273   1.411   .     A
C1266  O1478   1.386   .     S
C1266  C1275   1.405   .     A
C1267  C1274   1.453   .     S
C1271  C1318   1.455   .     S
C1272  C1307   1.448   .     S
C1273  C1296   1.458   .     S
C1274  O1482   1.296   .     A
C1274  O1481   1.298   .     A
C1275  C1285   1.451   .     S
C1276  H1438   1.100   .     S
C1276  H1330   1.111   .     S
C1276  C1277   1.554   .     S
C1276  O1461   1.428   .     S
C1277  H1352   1.108   .     S
C1277  C1278   1.509   .     S
C1277  H1341   1.112   .     S
C1278  H1354   1.106   .     S
C1278  H1356   1.110   .     S
C1278  H1355   1.105   .     S
C1279  O1462   1.418   .     S
C1279  C1280   1.527   .     S
C1279  H1358   1.112   .     S
C1279  H1357   1.111   .     S
C1280  H1359   1.108   .     S
C1280  C1281   1.524   .     S
C1280  H1360   1.110   .     S
C1281  H1362   1.110   .     S
C1281  H2355   1.104   .     S
C1281  H2356   1.104   .     S
C1282  H1365   1.111   .     S
C1282  C1283   1.524   .     S
C1282  H1366   1.117   .     S
C1282  O1463   1.416   .     S
C1283  H1368   1.108   .     S
C1283  C1284   1.518   .     S
C1283  H1367   1.103   .     S
C1284  H1369   1.108   .     S
C1285  O1456   1.301   .     A
C1285  O1484   1.292   .     A
C1286  H1374   1.114   .     S
C1286  C1287   1.517   .     S
C1286  H1373   1.105   .     S
C1286  O1465   1.418   .     S
C1287  H1376   1.100   .     S
C1287  C1288   1.525   .     S
C1287  H1375   1.106   .     S
C1288  H1129   1.109   1_655 S
C1288  H2370   1.105   .     S
C1288  H2371   1.111   .     S
C1289  C1290   1.531   .     S
C1289  H1380   1.110   .     S
C1289  H1381   1.121   .     S
C1289  O1466   1.418   .     S
C1290  H1384   1.107   .     S
C1290  C1291   1.522   .     S
C1290  H1382   1.109   .     S
C1291  H1385   1.111   .     S
C1291  H1386   1.103   .     S
C1291  H1387   1.102   .     S
C1292  H1389   1.110   .     S
C1292  H1388   1.112   .     S
C1292  O1467   1.425   .     S
C1292  C1293   1.556   .     S
C1293  H1390   1.112   .     S
C1293  H1391   1.105   .     S
C1293  C1046   1.515   1_655 S
C1294  H1393   1.110   .     S
C1294  H1392   1.103   .     S
C1295  H1396   1.110   .     S
C1295  O1468   1.415   .     S
C1295  C1297   1.518   .     S
C1295  H1397   1.119   .     S
C1296  O1454   1.298   .     A
C1296  O1455   1.299   .     A
C1297  H1398   1.111   .     S
C1297  H1399   1.108   .     S
C1297  C1298   1.522   .     S
C1298  H1400   1.110   .     S
C1298  H1402   1.107   .     S
C1298  H1401   1.107   .     S
C1299  O1469   1.427   .     S
C1299  H1404   1.110   .     S
C1299  C1300   1.540   .     S
C1299  H1403   1.108   .     S
C1300  H1407   1.109   .     S
C1300  H1406   1.108   .     S
C1301  H1409   1.107   .     S
C1301  H1410   1.110   .     S
C1301  C1052   1.528   1_655 S
C1301  H1160   1.109   1_655 S
C1302  O1470   1.407   .     S
C1302  H1411   1.118   .     S
C1302  C1303   1.516   .     S
C1302  H1412   1.104   .     S
C1303  H1414   1.109   .     S
C1303  H1413   1.099   .     S
C1303  C1800   1.514   .     S
C1304  H1417   1.106   .     S
C1304  H1418   1.107   .     S
C1304  H1415   1.101   .     S
C1304  C1799   1.514   1_545 S
C1305  O1471   1.415   .     S
C1305  H1419   1.105   .     S
C1305  C1306   1.524   .     S
C1305  H1420   1.118   .     S
C1306  H1421   1.109   .     S
C1306  H1422   1.108   .     S
C1306  C2300   1.532   .     S
C1307  O1460   1.299   .     A
C1307  O1457   1.292   .     A
C1308  H1424   1.107   .     S
C1308  H1425   1.109   .     S
C1309  H1428   1.118   .     S
C1309  O1472   1.418   .     S
C1309  H1426   1.112   .     S
C1309  C1310   1.518   .     S
C1310  C1311   1.521   .     S
C1310  H1430   1.108   .     S
C1310  H1429   1.105   .     S
C1311  H1432   1.108   .     S
C1311  H1927   1.106   1_545 S
C1311  H1929   1.110   1_545 S
C1312  H1435   1.110   .     S
C1312  O1473   1.425   .     S
C1312  C1313   1.543   .     S
C1312  H1434   1.103   .     S
C1313  C1314   1.521   .     S
C1313  H1437   1.112   .     S
C1313  H1436   1.110   .     S
C1314  H1439   1.108   .     S
C1314  H1440   1.109   .     S
C1314  H1441   1.100   .     S
C1315  O1474   1.419   .     S
C1315  H1442   1.111   .     S
C1315  H1443   1.116   .     S
C1315  C1316   1.534   .     S
C1316  C1317   1.517   .     S
C1316  H1445   1.108   .     S
C1316  H1444   1.112   .     S
C1317  H1447   1.103   .     S
C1317  H1448   1.104   .     S
C1317  H1446   1.111   .     S
C1318  O1459   1.298   .     A
C1318  O1458   1.297   .     A
C1319  O1476   1.423   .     S
C1319  H1332   1.113   .     S
C1319  H1331   1.109   .     S
C1319  C1320   1.545   .     S
C1320  H1333   1.110   .     S
C1320  C1321   1.522   .     S
C1320  H1334   1.109   .     S
C1321  H1336   1.110   .     S
C1321  H1337   1.106   .     S
C1321  H1335   1.109   .     S
C1322  H1339   1.117   .     S
C1322  O1477   1.414   .     S
C1322  H1338   1.109   .     S
C1322  C1323   1.523   .     S
C1323  H1342   1.110   .     S
C1323  C1324   1.519   .     S
C1323  H1340   1.109   .     S
C1324  H1344   1.108   .     S
C1324  H1343   1.110   .     S
C1324  H1841   1.104   1_545 S
C1325  O1478   1.424   .     S
C1325  C1326   1.523   .     S
C1325  H1346   1.109   .     S
C1325  H1347   1.114   .     S
C1326  H1349   1.111   .     S
C1326  C1327   1.516   .     S
C1326  H1348   1.101   .     S
C1327  H1350   1.110   .     S
C1328  H1329   1.076   .     S
C1328  N1202   1.367   1_655 S
H1345  C1820   1.104   .     S
H1351  C2319   1.104   .     S
H1353  C2319   1.108   .     S
H1370  C2276   1.107   .     S
H1371  C2276   1.110   .     S
H1395  C1046   1.107   1_655 S
H1423  C2300   1.109   .     S
H1431  C1807   1.106   .     S
H1433  C1807   1.110   .     S
N1449  Zn1485  2.028   .     S
N1450  Zn1486  2.028   .     S
N1451  Zn1487  2.028   .     S
N1451  C1742   1.365   1_545 A
N1452  Zn1488  2.028   .     S
N1452  C1743   1.366   1_545 A
O1453  Zn1485  2.033   .     S
O1454  Zn1488  2.033   .     S
O1455  Zn1487  2.034   .     S
O1456  Zn1984  2.034   .     S
O1457  Zn1984  2.041   .     S
O1458  Zn1487  2.041   .     S
O1459  Zn1488  2.032   .     S
O1460  Zn1983  2.032   .     S
O1464  Zn1238  2.033   1_655 S
O1475  Zn1237  2.034   1_655 S
O1479  Zn1486  2.034   .     S
O1480  Zn1238  2.041   1_655 S
O1481  Zn1485  2.041   .     S
O1482  Zn1486  2.032   .     S
O1483  Zn1237  2.032   1_655 S
O1484  Zn1983  2.033   .     S
Zn1487 O1956   2.032   1_545 S
Zn1487 O1980   2.033   1_545 S
Zn1488 O1953   2.041   1_545 S
Zn1488 O1952   2.034   1_545 S
C1489  O1727   1.304   .     A
C1489  O1701   1.286   .     A
C1489  C1518   1.445   .     S
C1490  H1609   1.077   .     S
C1490  C2483   1.421   .     S
C1490  N1697   1.368   .     S
C1491  N1698   1.368   .     A
C1491  H1620   1.080   .     S
C1492  H1631   1.080   .     S
C1492  N1945   1.369   .     A
C1492  C2568   1.421   .     S
C1493  H1642   1.076   .     S
C1493  N1700   1.367   .     S
C1494  H1653   1.078   .     S
C1494  N1203   1.365   1_565 A
C1494  C2487   1.421   .     S
C1495  N1204   1.366   1_565 A
C1495  H1664   1.073   .     S
C1496  H1675   1.079   .     S
C1496  C2485   1.419   .     S
C1496  N1699   1.369   .     S
C1497  C1508   1.380   .     A
C1497  O1709   1.383   .     S
C1497  C1516   1.405   .     A
C1498  C1515   1.414   .     A
C1498  C1509   1.386   .     A
C1498  O1710   1.382   .     S
C1499  C1506   1.381   .     A
C1499  C1515   1.413   .     A
C1499  O1711   1.383   .     S
C1500  O1723   1.298   .     A
C1500  O1712   1.299   .     A
C1500  C1517   1.460   .     S
C1501  O1713   1.385   .     S
C1501  C1516   1.410   .     A
C1501  C1507   1.382   .     A
C1502  O1714   1.382   .     S
C1502  C1518   1.407   .     A
C1502  C1513   1.383   .     A
C1503  C1517   1.411   .     A
C1503  C1514   1.386   .     A
C1503  O1715   1.384   .     S
C1504  C1517   1.409   .     A
C1504  O1716   1.383   .     S
C1504  C1510   1.385   .     A
C1505  C1518   1.403   .     A
C1505  C1512   1.388   .     A
C1505  O1717   1.389   .     S
C1506  O1718   1.377   .     S
C1506  C1520   1.403   .     A
C1507  C1519   1.417   .     A
C1507  O1719   1.385   .     S
C1508  O1720   1.387   .     S
C1508  C1519   1.417   .     A
C1509  O1721   1.386   .     S
C1509  C1520   1.402   .     A
C1510  C1523   1.414   .     A
C1510  O1722   1.385   .     S
C1511  O1731   1.295   .     A
C1511  C1516   1.452   .     S
C1511  O1728   1.298   .     A
C1512  O1724   1.383   .     S
C1512  C1521   1.412   .     A
C1513  O1725   1.379   .     S
C1513  C1521   1.411   .     A
C1514  O1726   1.386   .     S
C1514  C1523   1.405   .     A
C1515  C1522   1.453   .     S
C1519  C1566   1.455   .     S
C1520  C1555   1.448   .     S
C1521  C1544   1.458   .     S
C1522  O1730   1.296   .     A
C1522  O1729   1.298   .     A
C1523  C1533   1.451   .     S
C1524  H1686   1.100   .     S
C1524  H1578   1.111   .     S
C1524  C1525   1.554   .     S
C1524  O1709   1.428   .     S
C1525  H1600   1.108   .     S
C1525  C1526   1.509   .     S
C1525  H1589   1.112   .     S
C1526  H1602   1.106   .     S
C1526  H1604   1.110   .     S
C1526  H1603   1.105   .     S
C1527  O1710   1.418   .     S
C1527  C1528   1.527   .     S
C1527  H1606   1.112   .     S
C1527  H1605   1.111   .     S
C1528  H1607   1.108   .     S
C1528  C1529   1.524   .     S
C1528  H1608   1.110   .     S
C1529  H1610   1.110   .     S
C1529  H2603   1.104   .     S
C1529  H2604   1.104   .     S
C1530  H1613   1.111   .     S
C1530  C1531   1.524   .     S
C1530  H1614   1.117   .     S
C1530  O1711   1.416   .     S
C1531  H1616   1.108   .     S
C1531  C1532   1.518   .     S
C1531  H1615   1.103   .     S
C1532  H1617   1.108   .     S
C1533  O1704   1.301   .     A
C1533  O1732   1.292   .     A
C1534  H1622   1.114   .     S
C1534  C1535   1.517   .     S
C1534  H1621   1.105   .     S
C1534  O1713   1.418   .     S
C1535  H1624   1.100   .     S
C1535  C1536   1.525   .     S
C1535  H1623   1.106   .     S
C1536  H1873   1.109   .     S
C1536  H2618   1.105   .     S
C1536  H2619   1.111   .     S
C1537  C1538   1.531   .     S
C1537  H1628   1.110   .     S
C1537  H1629   1.121   .     S
C1537  O1714   1.418   .     S
C1538  H1632   1.107   .     S
C1538  C1539   1.522   .     S
C1538  H1630   1.109   .     S
C1539  H1633   1.111   .     S
C1539  H1634   1.103   .     S
C1539  H1635   1.102   .     S
C1540  H1637   1.110   .     S
C1540  H1636   1.112   .     S
C1540  O1715   1.425   .     S
C1540  C1541   1.556   .     S
C1541  H1638   1.112   .     S
C1541  H1639   1.105   .     S
C1541  C1790   1.515   .     S
C1542  H1641   1.110   .     S
C1542  H1640   1.103   .     S
C1542  C1789   1.515   1_455 S
C1542  H1891   1.107   1_455 S
C1543  H1644   1.110   .     S
C1543  O1716   1.415   .     S
C1543  C1545   1.518   .     S
C1543  H1645   1.119   .     S
C1544  O1702   1.298   .     A
C1544  O1703   1.299   .     A
C1545  H1646   1.111   .     S
C1545  H1647   1.108   .     S
C1545  C1546   1.522   .     S
C1546  H1648   1.110   .     S
C1546  H1650   1.107   .     S
C1546  H1649   1.107   .     S
C1547  O1717   1.427   .     S
C1547  H1652   1.110   .     S
C1547  C1548   1.540   .     S
C1547  H1651   1.108   .     S
C1548  H1655   1.109   .     S
C1548  H1654   1.108   .     S
C1548  C1797   1.528   1_455 S
C1549  H1657   1.107   .     S
C1549  H1658   1.110   .     S
C1549  C1796   1.528   .     S
C1549  H1904   1.109   .     S
C1550  O1718   1.407   .     S
C1550  H1659   1.118   .     S
C1550  C1551   1.516   .     S
C1550  H1660   1.104   .     S
C1551  H1662   1.109   .     S
C1551  H1661   1.099   .     S
C1551  C1056   1.514   1_565 S
C1552  H1665   1.106   .     S
C1552  H1666   1.107   .     S
C1552  H1663   1.101   .     S
C1553  O1719   1.415   .     S
C1553  H1667   1.105   .     S
C1553  C1554   1.524   .     S
C1553  H1668   1.118   .     S
C1554  H1669   1.109   .     S
C1554  H1670   1.108   .     S
C1554  C2548   1.532   .     S
C1555  O1708   1.299   .     A
C1555  O1705   1.292   .     A
C1556  H1672   1.107   .     S
C1556  H1673   1.109   .     S
C1557  H1676   1.118   .     S
C1557  O1720   1.418   .     S
C1557  H1674   1.112   .     S
C1557  C1558   1.518   .     S
C1558  C1559   1.521   .     S
C1558  H1678   1.108   .     S
C1558  H1677   1.105   .     S
C1559  H1680   1.108   .     S
C1560  H1683   1.110   .     S
C1560  O1721   1.425   .     S
C1560  C1561   1.543   .     S
C1560  H1682   1.103   .     S
C1561  C1562   1.521   .     S
C1561  H1685   1.112   .     S
C1561  H1684   1.110   .     S
C1562  H1687   1.108   .     S
C1562  H1688   1.109   .     S
C1562  H1689   1.100   .     S
C1563  O1722   1.419   .     S
C1563  H1690   1.111   .     S
C1563  H1691   1.116   .     S
C1563  C1564   1.534   .     S
C1564  C1565   1.517   .     S
C1564  H1693   1.108   .     S
C1564  H1692   1.112   .     S
C1565  H1695   1.103   .     S
C1565  H1696   1.104   .     S
C1565  H1694   1.111   .     S
C1566  O1707   1.298   .     A
C1566  O1706   1.297   .     A
C1567  O1724   1.423   .     S
C1567  H1580   1.113   .     S
C1567  H1579   1.109   .     S
C1567  C1568   1.545   .     S
C1568  H1581   1.110   .     S
C1568  C1569   1.522   .     S
C1568  H1582   1.109   .     S
C1569  H1584   1.110   .     S
C1569  H1585   1.106   .     S
C1569  H1583   1.109   .     S
C1570  H1587   1.117   .     S
C1570  O1725   1.414   .     S
C1570  H1586   1.109   .     S
C1570  C1571   1.523   .     S
C1571  H1590   1.110   .     S
C1571  C1572   1.519   .     S
C1571  H1588   1.109   .     S
C1572  H1592   1.108   .     S
C1572  H1591   1.110   .     S
C1573  O1726   1.424   .     S
C1573  C1574   1.523   .     S
C1573  H1594   1.109   .     S
C1573  H1595   1.114   .     S
C1574  H1597   1.111   .     S
C1574  C1575   1.516   .     S
C1574  H1596   1.101   .     S
C1575  H1598   1.110   .     S
C1576  H1577   1.076   .     S
C1576  N1946   1.367   .     S
H1593  C1076   1.104   1_565 S
H1599  C2567   1.104   .     S
H1601  C2567   1.108   .     S
H1618  C2524   1.107   .     S
H1619  C2524   1.110   .     S
H1625  C1784   1.109   1_455 S
H1643  C1790   1.107   .     S
H1656  C1797   1.109   1_455 S
H1671  C2548   1.109   .     S
H1679  C1063   1.106   1_565 S
H1681  C1063   1.110   1_565 S
N1697  C1740   1.369   1_455 A
N1697  Zn1733  2.028   .     S
N1698  Zn1734  2.028   .     S
N1698  C1824   1.367   1_455 S
N1699  Zn1735  2.028   .     S
N1700  Zn1736  2.028   .     S
O1701  Zn1733  2.033   .     S
O1702  Zn1736  2.033   .     S
O1703  Zn1735  2.034   .     S
O1704  Zn1240  2.034   1_565 S
O1705  Zn1240  2.041   1_565 S
O1706  Zn1735  2.041   .     S
O1707  Zn1736  2.032   .     S
O1708  Zn1239  2.032   1_565 S
O1712  Zn1982  2.033   .     S
O1723  Zn1981  2.034   .     S
O1727  Zn1734  2.034   .     S
O1728  Zn1982  2.041   .     S
O1729  Zn1733  2.041   .     S
O1730  Zn1734  2.032   .     S
O1731  Zn1981  2.032   .     S
O1732  Zn1239  2.033   1_565 S
Zn1733 O1979   2.032   1_455 S
Zn1733 O1971   2.034   1_455 S
Zn1734 O1976   2.041   1_455 S
Zn1734 O1960   2.033   1_455 S
C1737  O1975   1.304   .     A
C1737  O1949   1.286   .     A
C1737  C1766   1.445   .     S
C1738  H1857   1.077   .     S
C1738  C2731   1.421   .     S
C1738  N1945   1.368   .     S
C1739  N1946   1.368   .     A
C1739  H1868   1.080   .     S
C1740  H1879   1.080   .     S
C1740  N1697   1.369   1_655 A
C1740  C2816   1.421   .     S
C1741  H1890   1.076   .     S
C1741  N1948   1.367   .     S
C1742  H1901   1.078   .     S
C1742  N1451   1.365   1_565 A
C1742  C2735   1.421   .     S
C1743  N1452   1.366   1_565 A
C1743  H1912   1.073   .     S
C1744  H1923   1.079   .     S
C1744  C2733   1.419   .     S
C1744  N1947   1.369   .     S
C1745  C1756   1.380   .     A
C1745  O1957   1.383   .     S
C1745  C1764   1.405   .     A
C1746  C1763   1.414   .     A
C1746  C1757   1.386   .     A
C1746  O1958   1.382   .     S
C1747  C1754   1.381   .     A
C1747  C1763   1.413   .     A
C1747  O1959   1.383   .     S
C1748  O1971   1.298   .     A
C1748  O1960   1.299   .     A
C1748  C1765   1.460   .     S
C1749  O1961   1.385   .     S
C1749  C1764   1.410   .     A
C1749  C1755   1.382   .     A
C1750  O1962   1.382   .     S
C1750  C1766   1.407   .     A
C1750  C1761   1.383   .     A
C1751  C1765   1.411   .     A
C1751  C1762   1.386   .     A
C1751  O1963   1.384   .     S
C1752  C1765   1.409   .     A
C1752  O1964   1.383   .     S
C1752  C1758   1.385   .     A
C1753  C1766   1.403   .     A
C1753  C1760   1.388   .     A
C1753  O1965   1.389   .     S
C1754  O1966   1.377   .     S
C1754  C1768   1.403   .     A
C1755  C1767   1.417   .     A
C1755  O1967   1.385   .     S
C1756  O1968   1.387   .     S
C1756  C1767   1.417   .     A
C1757  O1969   1.386   .     S
C1757  C1768   1.402   .     A
C1758  C1771   1.414   .     A
C1758  O1970   1.385   .     S
C1759  O1979   1.295   .     A
C1759  C1764   1.452   .     S
C1759  O1976   1.298   .     A
C1760  O1972   1.383   .     S
C1760  C1769   1.412   .     A
C1761  O1973   1.379   .     S
C1761  C1769   1.411   .     A
C1762  O1974   1.386   .     S
C1762  C1771   1.405   .     A
C1763  C1770   1.453   .     S
C1767  C1814   1.455   .     S
C1768  C1803   1.448   .     S
C1769  C1792   1.458   .     S
C1770  O1978   1.296   .     A
C1770  O1977   1.298   .     A
C1771  C1781   1.451   .     S
C1772  H1934   1.100   .     S
C1772  H1826   1.111   .     S
C1772  C1773   1.554   .     S
C1772  O1957   1.428   .     S
C1773  H1848   1.108   .     S
C1773  C1774   1.509   .     S
C1773  H1837   1.112   .     S
C1774  H1850   1.106   .     S
C1774  H1852   1.110   .     S
C1774  H1851   1.105   .     S
C1775  O1958   1.418   .     S
C1775  C1776   1.527   .     S
C1775  H1854   1.112   .     S
C1775  H1853   1.111   .     S
C1776  H1855   1.108   .     S
C1776  C1777   1.524   .     S
C1776  H1856   1.110   .     S
C1777  H1858   1.110   .     S
C1777  H2851   1.104   .     S
C1777  H2852   1.104   .     S
C1778  H1861   1.111   .     S
C1778  C1779   1.524   .     S
C1778  H1862   1.117   .     S
C1778  O1959   1.416   .     S
C1779  H1864   1.108   .     S
C1779  C1780   1.518   .     S
C1779  H1863   1.103   .     S
C1780  H1865   1.108   .     S
C1781  O1952   1.301   .     A
C1781  O1980   1.292   .     A
C1782  H1870   1.114   .     S
C1782  C1783   1.517   .     S
C1782  H1869   1.105   .     S
C1782  O1961   1.418   .     S
C1783  H1872   1.100   .     S
C1783  C1784   1.525   .     S
C1783  H1871   1.106   .     S
C1784  H1625   1.109   1_655 S
C1784  H2866   1.105   .     S
C1784  H2867   1.111   .     S
C1785  C1786   1.531   .     S
C1785  H1876   1.110   .     S
C1785  H1877   1.121   .     S
C1785  O1962   1.418   .     S
C1786  H1880   1.107   .     S
C1786  C1787   1.522   .     S
C1786  H1878   1.109   .     S
C1787  H1881   1.111   .     S
C1787  H1882   1.103   .     S
C1787  H1883   1.102   .     S
C1788  H1885   1.110   .     S
C1788  H1884   1.112   .     S
C1788  O1963   1.425   .     S
C1788  C1789   1.556   .     S
C1789  H1886   1.112   .     S
C1789  H1887   1.105   .     S
C1789  C1542   1.515   1_655 S
C1790  H1889   1.110   .     S
C1790  H1888   1.103   .     S
C1791  H1892   1.110   .     S
C1791  O1964   1.415   .     S
C1791  C1793   1.518   .     S
C1791  H1893   1.119   .     S
C1792  O1950   1.298   .     A
C1792  O1951   1.299   .     A
C1793  H1894   1.111   .     S
C1793  H1895   1.108   .     S
C1793  C1794   1.522   .     S
C1794  H1896   1.110   .     S
C1794  H1898   1.107   .     S
C1794  H1897   1.107   .     S
C1795  O1965   1.427   .     S
C1795  H1900   1.110   .     S
C1795  C1796   1.540   .     S
C1795  H1899   1.108   .     S
C1796  H1903   1.109   .     S
C1796  H1902   1.108   .     S
C1797  H1905   1.107   .     S
C1797  H1906   1.110   .     S
C1797  C1548   1.528   1_655 S
C1797  H1656   1.109   1_655 S
C1798  O1966   1.407   .     S
C1798  H1907   1.118   .     S
C1798  C1799   1.516   .     S
C1798  H1908   1.104   .     S
C1799  H1910   1.109   .     S
C1799  H1909   1.099   .     S
C1799  C1304   1.514   1_565 S
C1800  H1913   1.106   .     S
C1800  H1914   1.107   .     S
C1800  H1911   1.101   .     S
C1801  O1967   1.415   .     S
C1801  H1915   1.105   .     S
C1801  C1802   1.524   .     S
C1801  H1916   1.118   .     S
C1802  H1917   1.109   .     S
C1802  H1918   1.108   .     S
C1802  C2796   1.532   .     S
C1803  O1956   1.299   .     A
C1803  O1953   1.292   .     A
C1804  H1920   1.107   .     S
C1804  H1921   1.109   .     S
C1805  H1924   1.118   .     S
C1805  O1968   1.418   .     S
C1805  H1922   1.112   .     S
C1805  C1806   1.518   .     S
C1806  C1807   1.521   .     S
C1806  H1926   1.108   .     S
C1806  H1925   1.105   .     S
C1807  H1928   1.108   .     S
C1808  H1931   1.110   .     S
C1808  O1969   1.425   .     S
C1808  C1809   1.543   .     S
C1808  H1930   1.103   .     S
C1809  C1810   1.521   .     S
C1809  H1933   1.112   .     S
C1809  H1932   1.110   .     S
C1810  H1935   1.108   .     S
C1810  H1936   1.109   .     S
C1810  H1937   1.100   .     S
C1811  O1970   1.419   .     S
C1811  H1938   1.111   .     S
C1811  H1939   1.116   .     S
C1811  C1812   1.534   .     S
C1812  C1813   1.517   .     S
C1812  H1941   1.108   .     S
C1812  H1940   1.112   .     S
C1813  H1943   1.103   .     S
C1813  H1944   1.104   .     S
C1813  H1942   1.111   .     S
C1814  O1955   1.298   .     A
C1814  O1954   1.297   .     A
C1815  O1972   1.423   .     S
C1815  H1828   1.113   .     S
C1815  H1827   1.109   .     S
C1815  C1816   1.545   .     S
C1816  H1829   1.110   .     S
C1816  C1817   1.522   .     S
C1816  H1830   1.109   .     S
C1817  H1832   1.110   .     S
C1817  H1833   1.106   .     S
C1817  H1831   1.109   .     S
C1818  H1835   1.117   .     S
C1818  O1973   1.414   .     S
C1818  H1834   1.109   .     S
C1818  C1819   1.523   .     S
C1819  H1838   1.110   .     S
C1819  C1820   1.519   .     S
C1819  H1836   1.109   .     S
C1820  H1840   1.108   .     S
C1820  H1839   1.110   .     S
C1821  O1974   1.424   .     S
C1821  C1822   1.523   .     S
C1821  H1842   1.109   .     S
C1821  H1843   1.114   .     S
C1822  H1845   1.111   .     S
C1822  C1823   1.516   .     S
C1822  H1844   1.101   .     S
C1823  H1846   1.110   .     S
C1824  H1825   1.076   .     S
C1824  N1698   1.367   1_655 S
H1841  C1324   1.104   1_565 S
H1847  C2815   1.104   .     S
H1849  C2815   1.108   .     S
H1866  C2772   1.107   .     S
H1867  C2772   1.110   .     S
H1891  C1542   1.107   1_655 S
H1919  C2796   1.109   .     S
H1927  C1311   1.106   1_565 S
H1929  C1311   1.110   1_565 S
N1945  Zn1981  2.028   .     S
N1946  Zn1982  2.028   .     S
N1947  Zn1983  2.028   .     S
N1948  Zn1984  2.028   .     S
O1949  Zn1981  2.033   .     S
O1950  Zn1984  2.033   .     S
O1951  Zn1983  2.034   .     S
O1952  Zn1488  2.034   1_565 S
O1953  Zn1488  2.041   1_565 S
O1954  Zn1983  2.041   .     S
O1955  Zn1984  2.032   .     S
O1956  Zn1487  2.032   1_565 S
O1960  Zn1734  2.033   1_655 S
O1971  Zn1733  2.034   1_655 S
O1975  Zn1982  2.034   .     S
O1976  Zn1734  2.041   1_655 S
O1977  Zn1981  2.041   .     S
O1978  Zn1982  2.032   .     S
O1979  Zn1733  2.032   1_655 S
O1980  Zn1487  2.033   1_565 S
C1985  O2223   1.304   .     A
C1985  O2197   1.286   .     A
C1985  C2014   1.445   .     S
C1986  H2105   1.077   .     S
C1986  C3      1.421   1_556 S
C1986  N2193   1.368   .     S
C1987  N2194   1.368   .     A
C1987  H2116   1.080   .     S
C1988  H2127   1.080   .     S
C1988  N2441   1.369   .     A
C1988  C88     1.421   1_556 S
C1989  H2138   1.076   .     S
C1989  N2196   1.367   .     S
C1990  H2149   1.078   .     S
C1990  N2691   1.365   .     A
C1990  C7      1.421   1_556 S
C1991  N2692   1.366   .     A
C1991  H2160   1.073   .     S
C1992  H2171   1.079   .     S
C1992  C5      1.419   1_556 S
C1992  N2195   1.369   .     S
C1993  C2004   1.380   .     A
C1993  O2205   1.383   .     S
C1993  C2012   1.405   .     A
C1994  C2011   1.414   .     A
C1994  C2005   1.386   .     A
C1994  O2206   1.382   .     S
C1995  C2002   1.381   .     A
C1995  C2011   1.413   .     A
C1995  O2207   1.383   .     S
C1996  O2219   1.298   .     A
C1996  O2208   1.299   .     A
C1996  C2013   1.460   .     S
C1997  O2209   1.385   .     S
C1997  C2012   1.410   .     A
C1997  C2003   1.382   .     A
C1998  O2210   1.382   .     S
C1998  C2014   1.407   .     A
C1998  C2009   1.383   .     A
C1999  C2013   1.411   .     A
C1999  C2010   1.386   .     A
C1999  O2211   1.384   .     S
C2000  C2013   1.409   .     A
C2000  O2212   1.383   .     S
C2000  C2006   1.385   .     A
C2001  C2014   1.403   .     A
C2001  C2008   1.388   .     A
C2001  O2213   1.389   .     S
C2002  O2214   1.377   .     S
C2002  C2016   1.403   .     A
C2003  C2015   1.417   .     A
C2003  O2215   1.385   .     S
C2004  O2216   1.387   .     S
C2004  C2015   1.417   .     A
C2005  O2217   1.386   .     S
C2005  C2016   1.402   .     A
C2006  C2019   1.414   .     A
C2006  O2218   1.385   .     S
C2007  O2227   1.295   .     A
C2007  C2012   1.452   .     S
C2007  O2224   1.298   .     A
C2008  O2220   1.383   .     S
C2008  C2017   1.412   .     A
C2009  O2221   1.379   .     S
C2009  C2017   1.411   .     A
C2010  O2222   1.386   .     S
C2010  C2019   1.405   .     A
C2011  C2018   1.453   .     S
C2015  C2062   1.455   .     S
C2016  C2051   1.448   .     S
C2017  C2040   1.458   .     S
C2018  O2226   1.296   .     A
C2018  O2225   1.298   .     A
C2019  C2029   1.451   .     S
C2020  H2182   1.100   .     S
C2020  H2074   1.111   .     S
C2020  C2021   1.554   .     S
C2020  O2205   1.428   .     S
C2021  H2096   1.108   .     S
C2021  C2022   1.509   .     S
C2021  H2085   1.112   .     S
C2022  H2098   1.106   .     S
C2022  H2100   1.110   .     S
C2022  H2099   1.105   .     S
C2023  O2206   1.418   .     S
C2023  C2024   1.527   .     S
C2023  H2102   1.112   .     S
C2023  H2101   1.111   .     S
C2024  H2103   1.108   .     S
C2024  C2025   1.524   .     S
C2024  H2104   1.110   .     S
C2025  H2106   1.110   .     S
C2025  H123    1.104   1_556 S
C2025  H124    1.104   1_556 S
C2026  H2109   1.111   .     S
C2026  C2027   1.524   .     S
C2026  H2110   1.117   .     S
C2026  O2207   1.416   .     S
C2027  H2112   1.108   .     S
C2027  C2028   1.518   .     S
C2027  H2111   1.103   .     S
C2028  H2113   1.108   .     S
C2029  O2200   1.301   .     A
C2029  O2228   1.292   .     A
C2030  H2118   1.114   .     S
C2030  C2031   1.517   .     S
C2030  H2117   1.105   .     S
C2030  O2209   1.418   .     S
C2031  H2120   1.100   .     S
C2031  C2032   1.525   .     S
C2031  H2119   1.106   .     S
C2032  H2369   1.109   .     S
C2032  H138    1.105   1_556 S
C2032  H139    1.111   1_556 S
C2033  C2034   1.531   .     S
C2033  H2124   1.110   .     S
C2033  H2125   1.121   .     S
C2033  O2210   1.418   .     S
C2034  H2128   1.107   .     S
C2034  C2035   1.522   .     S
C2034  H2126   1.109   .     S
C2035  H2129   1.111   .     S
C2035  H2130   1.103   .     S
C2035  H2131   1.102   .     S
C2036  H2133   1.110   .     S
C2036  H2132   1.112   .     S
C2036  O2211   1.425   .     S
C2036  C2037   1.556   .     S
C2037  H2134   1.112   .     S
C2037  H2135   1.105   .     S
C2037  C2286   1.515   .     S
C2038  H2137   1.110   .     S
C2038  H2136   1.103   .     S
C2038  C2285   1.515   1_455 S
C2038  H2387   1.107   1_455 S
C2039  H2140   1.110   .     S
C2039  O2212   1.415   .     S
C2039  C2041   1.518   .     S
C2039  H2141   1.119   .     S
C2040  O2198   1.298   .     A
C2040  O2199   1.299   .     A
C2041  H2142   1.111   .     S
C2041  H2143   1.108   .     S
C2041  C2042   1.522   .     S
C2042  H2144   1.110   .     S
C2042  H2146   1.107   .     S
C2042  H2145   1.107   .     S
C2043  O2213   1.427   .     S
C2043  H2148   1.110   .     S
C2043  C2044   1.540   .     S
C2043  H2147   1.108   .     S
C2044  H2151   1.109   .     S
C2044  H2150   1.108   .     S
C2044  C2293   1.528   1_455 S
C2045  H2153   1.107   .     S
C2045  H2154   1.110   .     S
C2045  C2292   1.528   .     S
C2045  H2400   1.109   .     S
C2046  O2214   1.407   .     S
C2046  H2155   1.118   .     S
C2046  C2047   1.516   .     S
C2046  H2156   1.104   .     S
C2047  H2158   1.109   .     S
C2047  H2157   1.099   .     S
C2047  C2544   1.514   .     S
C2048  H2161   1.106   .     S
C2048  H2162   1.107   .     S
C2048  H2159   1.101   .     S
C2048  C2543   1.514   1_545 S
C2049  O2215   1.415   .     S
C2049  H2163   1.105   .     S
C2049  C2050   1.524   .     S
C2049  H2164   1.118   .     S
C2050  H2165   1.109   .     S
C2050  H2166   1.108   .     S
C2050  C68     1.532   1_556 S
C2051  O2204   1.299   .     A
C2051  O2201   1.292   .     A
C2052  H2168   1.107   .     S
C2052  H2169   1.109   .     S
C2053  H2172   1.118   .     S
C2053  O2216   1.418   .     S
C2053  H2170   1.112   .     S
C2053  C2054   1.518   .     S
C2054  C2055   1.521   .     S
C2054  H2174   1.108   .     S
C2054  H2173   1.105   .     S
C2055  H2176   1.108   .     S
C2055  H2671   1.106   1_545 S
C2055  H2673   1.110   1_545 S
C2056  H2179   1.110   .     S
C2056  O2217   1.425   .     S
C2056  C2057   1.543   .     S
C2056  H2178   1.103   .     S
C2057  C2058   1.521   .     S
C2057  H2181   1.112   .     S
C2057  H2180   1.110   .     S
C2058  H2183   1.108   .     S
C2058  H2184   1.109   .     S
C2058  H2185   1.100   .     S
C2059  O2218   1.419   .     S
C2059  H2186   1.111   .     S
C2059  H2187   1.116   .     S
C2059  C2060   1.534   .     S
C2060  C2061   1.517   .     S
C2060  H2189   1.108   .     S
C2060  H2188   1.112   .     S
C2061  H2191   1.103   .     S
C2061  H2192   1.104   .     S
C2061  H2190   1.111   .     S
C2062  O2203   1.298   .     A
C2062  O2202   1.297   .     A
C2063  O2220   1.423   .     S
C2063  H2076   1.113   .     S
C2063  H2075   1.109   .     S
C2063  C2064   1.545   .     S
C2064  H2077   1.110   .     S
C2064  C2065   1.522   .     S
C2064  H2078   1.109   .     S
C2065  H2080   1.110   .     S
C2065  H2081   1.106   .     S
C2065  H2079   1.109   .     S
C2066  H2083   1.117   .     S
C2066  O2221   1.414   .     S
C2066  H2082   1.109   .     S
C2066  C2067   1.523   .     S
C2067  H2086   1.110   .     S
C2067  C2068   1.519   .     S
C2067  H2084   1.109   .     S
C2068  H2088   1.108   .     S
C2068  H2087   1.110   .     S
C2068  H2585   1.104   1_545 S
C2069  O2222   1.424   .     S
C2069  C2070   1.523   .     S
C2069  H2090   1.109   .     S
C2069  H2091   1.114   .     S
C2070  H2093   1.111   .     S
C2070  C2071   1.516   .     S
C2070  H2092   1.101   .     S
C2071  H2094   1.110   .     S
C2072  H2073   1.076   .     S
C2072  N2442   1.367   .     S
H2089  C2564   1.104   .     S
H2095  C87     1.104   1_556 S
H2097  C87     1.108   1_556 S
H2114  C44     1.107   1_556 S
H2115  C44     1.110   1_556 S
H2121  C2280   1.109   1_455 S
H2139  C2286   1.107   .     S
H2152  C2293   1.109   1_455 S
H2167  C68     1.109   1_556 S
H2175  C2551   1.106   .     S
H2177  C2551   1.110   .     S
N2193  C2236   1.369   1_455 A
N2193  Zn2229  2.028   .     S
N2194  Zn2230  2.028   .     S
N2194  C2320   1.367   1_455 S
N2195  Zn2231  2.028   .     S
N2195  C2486   1.365   1_545 A
N2196  Zn2232  2.028   .     S
N2196  C2487   1.366   1_545 A
O2197  Zn2229  2.033   .     S
O2198  Zn2232  2.033   .     S
O2199  Zn2231  2.034   .     S
O2200  Zn2728  2.034   .     S
O2201  Zn2728  2.041   .     S
O2202  Zn2231  2.041   .     S
O2203  Zn2232  2.032   .     S
O2204  Zn2727  2.032   .     S
O2208  Zn2478  2.033   .     S
O2219  Zn2477  2.034   .     S
O2223  Zn2230  2.034   .     S
O2224  Zn2478  2.041   .     S
O2225  Zn2229  2.041   .     S
O2226  Zn2230  2.032   .     S
O2227  Zn2477  2.032   .     S
O2228  Zn2727  2.033   .     S
Zn2229 O2475   2.032   1_455 S
Zn2229 O2467   2.034   1_455 S
Zn2230 O2472   2.041   1_455 S
Zn2230 O2456   2.033   1_455 S
Zn2231 O2700   2.032   1_545 S
Zn2231 O2724   2.033   1_545 S
Zn2232 O2697   2.041   1_545 S
Zn2232 O2696   2.034   1_545 S
C2233  O2471   1.304   .     A
C2233  O2445   1.286   .     A
C2233  C2262   1.445   .     S
C2234  H2353   1.077   .     S
C2234  C251    1.421   1_556 S
C2234  N2441   1.368   .     S
C2235  N2442   1.368   .     A
C2235  H2364   1.080   .     S
C2236  H2375   1.080   .     S
C2236  N2193   1.369   1_655 A
C2236  C336    1.421   1_556 S
C2237  H2386   1.076   .     S
C2237  N2444   1.367   .     S
C2238  H2397   1.078   .     S
C2238  N2939   1.365   .     A
C2238  C255    1.421   1_556 S
C2239  N2940   1.366   .     A
C2239  H2408   1.073   .     S
C2240  H2419   1.079   .     S
C2240  C253    1.419   1_556 S
C2240  N2443   1.369   .     S
C2241  C2252   1.380   .     A
C2241  O2453   1.383   .     S
C2241  C2260   1.405   .     A
C2242  C2259   1.414   .     A
C2242  C2253   1.386   .     A
C2242  O2454   1.382   .     S
C2243  C2250   1.381   .     A
C2243  C2259   1.413   .     A
C2243  O2455   1.383   .     S
C2244  O2467   1.298   .     A
C2244  O2456   1.299   .     A
C2244  C2261   1.460   .     S
C2245  O2457   1.385   .     S
C2245  C2260   1.410   .     A
C2245  C2251   1.382   .     A
C2246  O2458   1.382   .     S
C2246  C2262   1.407   .     A
C2246  C2257   1.383   .     A
C2247  C2261   1.411   .     A
C2247  C2258   1.386   .     A
C2247  O2459   1.384   .     S
C2248  C2261   1.409   .     A
C2248  O2460   1.383   .     S
C2248  C2254   1.385   .     A
C2249  C2262   1.403   .     A
C2249  C2256   1.388   .     A
C2249  O2461   1.389   .     S
C2250  O2462   1.377   .     S
C2250  C2264   1.403   .     A
C2251  C2263   1.417   .     A
C2251  O2463   1.385   .     S
C2252  O2464   1.387   .     S
C2252  C2263   1.417   .     A
C2253  O2465   1.386   .     S
C2253  C2264   1.402   .     A
C2254  C2267   1.414   .     A
C2254  O2466   1.385   .     S
C2255  O2475   1.295   .     A
C2255  C2260   1.452   .     S
C2255  O2472   1.298   .     A
C2256  O2468   1.383   .     S
C2256  C2265   1.412   .     A
C2257  O2469   1.379   .     S
C2257  C2265   1.411   .     A
C2258  O2470   1.386   .     S
C2258  C2267   1.405   .     A
C2259  C2266   1.453   .     S
C2263  C2310   1.455   .     S
C2264  C2299   1.448   .     S
C2265  C2288   1.458   .     S
C2266  O2474   1.296   .     A
C2266  O2473   1.298   .     A
C2267  C2277   1.451   .     S
C2268  H2430   1.100   .     S
C2268  H2322   1.111   .     S
C2268  C2269   1.554   .     S
C2268  O2453   1.428   .     S
C2269  H2344   1.108   .     S
C2269  C2270   1.509   .     S
C2269  H2333   1.112   .     S
C2270  H2346   1.106   .     S
C2270  H2348   1.110   .     S
C2270  H2347   1.105   .     S
C2271  O2454   1.418   .     S
C2271  C2272   1.527   .     S
C2271  H2350   1.112   .     S
C2271  H2349   1.111   .     S
C2272  H2351   1.108   .     S
C2272  C2273   1.524   .     S
C2272  H2352   1.110   .     S
C2273  H2354   1.110   .     S
C2273  H371    1.104   1_556 S
C2273  H372    1.104   1_556 S
C2274  H2357   1.111   .     S
C2274  C2275   1.524   .     S
C2274  H2358   1.117   .     S
C2274  O2455   1.416   .     S
C2275  H2360   1.108   .     S
C2275  C2276   1.518   .     S
C2275  H2359   1.103   .     S
C2276  H2361   1.108   .     S
C2277  O2448   1.301   .     A
C2277  O2476   1.292   .     A
C2278  H2366   1.114   .     S
C2278  C2279   1.517   .     S
C2278  H2365   1.105   .     S
C2278  O2457   1.418   .     S
C2279  H2368   1.100   .     S
C2279  C2280   1.525   .     S
C2279  H2367   1.106   .     S
C2280  H2121   1.109   1_655 S
C2280  H386    1.105   1_556 S
C2280  H387    1.111   1_556 S
C2281  C2282   1.531   .     S
C2281  H2372   1.110   .     S
C2281  H2373   1.121   .     S
C2281  O2458   1.418   .     S
C2282  H2376   1.107   .     S
C2282  C2283   1.522   .     S
C2282  H2374   1.109   .     S
C2283  H2377   1.111   .     S
C2283  H2378   1.103   .     S
C2283  H2379   1.102   .     S
C2284  H2381   1.110   .     S
C2284  H2380   1.112   .     S
C2284  O2459   1.425   .     S
C2284  C2285   1.556   .     S
C2285  H2382   1.112   .     S
C2285  H2383   1.105   .     S
C2285  C2038   1.515   1_655 S
C2286  H2385   1.110   .     S
C2286  H2384   1.103   .     S
C2287  H2388   1.110   .     S
C2287  O2460   1.415   .     S
C2287  C2289   1.518   .     S
C2287  H2389   1.119   .     S
C2288  O2446   1.298   .     A
C2288  O2447   1.299   .     A
C2289  H2390   1.111   .     S
C2289  H2391   1.108   .     S
C2289  C2290   1.522   .     S
C2290  H2392   1.110   .     S
C2290  H2394   1.107   .     S
C2290  H2393   1.107   .     S
C2291  O2461   1.427   .     S
C2291  H2396   1.110   .     S
C2291  C2292   1.540   .     S
C2291  H2395   1.108   .     S
C2292  H2399   1.109   .     S
C2292  H2398   1.108   .     S
C2293  H2401   1.107   .     S
C2293  H2402   1.110   .     S
C2293  C2044   1.528   1_655 S
C2293  H2152   1.109   1_655 S
C2294  O2462   1.407   .     S
C2294  H2403   1.118   .     S
C2294  C2295   1.516   .     S
C2294  H2404   1.104   .     S
C2295  H2406   1.109   .     S
C2295  H2405   1.099   .     S
C2295  C2792   1.514   .     S
C2296  H2409   1.106   .     S
C2296  H2410   1.107   .     S
C2296  H2407   1.101   .     S
C2296  C2791   1.514   1_545 S
C2297  O2463   1.415   .     S
C2297  H2411   1.105   .     S
C2297  C2298   1.524   .     S
C2297  H2412   1.118   .     S
C2298  H2413   1.109   .     S
C2298  H2414   1.108   .     S
C2298  C316    1.532   1_556 S
C2299  O2452   1.299   .     A
C2299  O2449   1.292   .     A
C2300  H2416   1.107   .     S
C2300  H2417   1.109   .     S
C2301  H2420   1.118   .     S
C2301  O2464   1.418   .     S
C2301  H2418   1.112   .     S
C2301  C2302   1.518   .     S
C2302  C2303   1.521   .     S
C2302  H2422   1.108   .     S
C2302  H2421   1.105   .     S
C2303  H2424   1.108   .     S
C2303  H2919   1.106   1_545 S
C2303  H2921   1.110   1_545 S
C2304  H2427   1.110   .     S
C2304  O2465   1.425   .     S
C2304  C2305   1.543   .     S
C2304  H2426   1.103   .     S
C2305  C2306   1.521   .     S
C2305  H2429   1.112   .     S
C2305  H2428   1.110   .     S
C2306  H2431   1.108   .     S
C2306  H2432   1.109   .     S
C2306  H2433   1.100   .     S
C2307  O2466   1.419   .     S
C2307  H2434   1.111   .     S
C2307  H2435   1.116   .     S
C2307  C2308   1.534   .     S
C2308  C2309   1.517   .     S
C2308  H2437   1.108   .     S
C2308  H2436   1.112   .     S
C2309  H2439   1.103   .     S
C2309  H2440   1.104   .     S
C2309  H2438   1.111   .     S
C2310  O2451   1.298   .     A
C2310  O2450   1.297   .     A
C2311  O2468   1.423   .     S
C2311  H2324   1.113   .     S
C2311  H2323   1.109   .     S
C2311  C2312   1.545   .     S
C2312  H2325   1.110   .     S
C2312  C2313   1.522   .     S
C2312  H2326   1.109   .     S
C2313  H2328   1.110   .     S
C2313  H2329   1.106   .     S
C2313  H2327   1.109   .     S
C2314  H2331   1.117   .     S
C2314  O2469   1.414   .     S
C2314  H2330   1.109   .     S
C2314  C2315   1.523   .     S
C2315  H2334   1.110   .     S
C2315  C2316   1.519   .     S
C2315  H2332   1.109   .     S
C2316  H2336   1.108   .     S
C2316  H2335   1.110   .     S
C2316  H2833   1.104   1_545 S
C2317  O2470   1.424   .     S
C2317  C2318   1.523   .     S
C2317  H2338   1.109   .     S
C2317  H2339   1.114   .     S
C2318  H2341   1.111   .     S
C2318  C2319   1.516   .     S
C2318  H2340   1.101   .     S
C2319  H2342   1.110   .     S
C2320  H2321   1.076   .     S
C2320  N2194   1.367   1_655 S
H2337  C2812   1.104   .     S
H2343  C335    1.104   1_556 S
H2345  C335    1.108   1_556 S
H2362  C292    1.107   1_556 S
H2363  C292    1.110   1_556 S
H2387  C2038   1.107   1_655 S
H2415  C316    1.109   1_556 S
H2423  C2799   1.106   .     S
H2425  C2799   1.110   .     S
N2441  Zn2477  2.028   .     S
N2442  Zn2478  2.028   .     S
N2443  Zn2479  2.028   .     S
N2443  C2734   1.365   1_545 A
N2444  Zn2480  2.028   .     S
N2444  C2735   1.366   1_545 A
O2445  Zn2477  2.033   .     S
O2446  Zn2480  2.033   .     S
O2447  Zn2479  2.034   .     S
O2448  Zn2976  2.034   .     S
O2449  Zn2976  2.041   .     S
O2450  Zn2479  2.041   .     S
O2451  Zn2480  2.032   .     S
O2452  Zn2975  2.032   .     S
O2456  Zn2230  2.033   1_655 S
O2467  Zn2229  2.034   1_655 S
O2471  Zn2478  2.034   .     S
O2472  Zn2230  2.041   1_655 S
O2473  Zn2477  2.041   .     S
O2474  Zn2478  2.032   .     S
O2475  Zn2229  2.032   1_655 S
O2476  Zn2975  2.033   .     S
Zn2479 O2948   2.032   1_545 S
Zn2479 O2972   2.033   1_545 S
Zn2480 O2945   2.041   1_545 S
Zn2480 O2944   2.034   1_545 S
C2481  O2719   1.304   .     A
C2481  O2693   1.286   .     A
C2481  C2510   1.445   .     S
C2482  H2601   1.077   .     S
C2482  C499    1.421   1_556 S
C2482  N2689   1.368   .     S
C2483  N2690   1.368   .     A
C2483  H2612   1.080   .     S
C2484  H2623   1.080   .     S
C2484  N2937   1.369   .     A
C2484  C584    1.421   1_556 S
C2485  H2634   1.076   .     S
C2485  N2692   1.367   .     S
C2486  H2645   1.078   .     S
C2486  N2195   1.365   1_565 A
C2486  C503    1.421   1_556 S
C2487  N2196   1.366   1_565 A
C2487  H2656   1.073   .     S
C2488  H2667   1.079   .     S
C2488  C501    1.419   1_556 S
C2488  N2691   1.369   .     S
C2489  C2500   1.380   .     A
C2489  O2701   1.383   .     S
C2489  C2508   1.405   .     A
C2490  C2507   1.414   .     A
C2490  C2501   1.386   .     A
C2490  O2702   1.382   .     S
C2491  C2498   1.381   .     A
C2491  C2507   1.413   .     A
C2491  O2703   1.383   .     S
C2492  O2715   1.298   .     A
C2492  O2704   1.299   .     A
C2492  C2509   1.460   .     S
C2493  O2705   1.385   .     S
C2493  C2508   1.410   .     A
C2493  C2499   1.382   .     A
C2494  O2706   1.382   .     S
C2494  C2510   1.407   .     A
C2494  C2505   1.383   .     A
C2495  C2509   1.411   .     A
C2495  C2506   1.386   .     A
C2495  O2707   1.384   .     S
C2496  C2509   1.409   .     A
C2496  O2708   1.383   .     S
C2496  C2502   1.385   .     A
C2497  C2510   1.403   .     A
C2497  C2504   1.388   .     A
C2497  O2709   1.389   .     S
C2498  O2710   1.377   .     S
C2498  C2512   1.403   .     A
C2499  C2511   1.417   .     A
C2499  O2711   1.385   .     S
C2500  O2712   1.387   .     S
C2500  C2511   1.417   .     A
C2501  O2713   1.386   .     S
C2501  C2512   1.402   .     A
C2502  C2515   1.414   .     A
C2502  O2714   1.385   .     S
C2503  O2723   1.295   .     A
C2503  C2508   1.452   .     S
C2503  O2720   1.298   .     A
C2504  O2716   1.383   .     S
C2504  C2513   1.412   .     A
C2505  O2717   1.379   .     S
C2505  C2513   1.411   .     A
C2506  O2718   1.386   .     S
C2506  C2515   1.405   .     A
C2507  C2514   1.453   .     S
C2511  C2558   1.455   .     S
C2512  C2547   1.448   .     S
C2513  C2536   1.458   .     S
C2514  O2722   1.296   .     A
C2514  O2721   1.298   .     A
C2515  C2525   1.451   .     S
C2516  H2678   1.100   .     S
C2516  H2570   1.111   .     S
C2516  C2517   1.554   .     S
C2516  O2701   1.428   .     S
C2517  H2592   1.108   .     S
C2517  C2518   1.509   .     S
C2517  H2581   1.112   .     S
C2518  H2594   1.106   .     S
C2518  H2596   1.110   .     S
C2518  H2595   1.105   .     S
C2519  O2702   1.418   .     S
C2519  C2520   1.527   .     S
C2519  H2598   1.112   .     S
C2519  H2597   1.111   .     S
C2520  H2599   1.108   .     S
C2520  C2521   1.524   .     S
C2520  H2600   1.110   .     S
C2521  H2602   1.110   .     S
C2521  H619    1.104   1_556 S
C2521  H620    1.104   1_556 S
C2522  H2605   1.111   .     S
C2522  C2523   1.524   .     S
C2522  H2606   1.117   .     S
C2522  O2703   1.416   .     S
C2523  H2608   1.108   .     S
C2523  C2524   1.518   .     S
C2523  H2607   1.103   .     S
C2524  H2609   1.108   .     S
C2525  O2696   1.301   .     A
C2525  O2724   1.292   .     A
C2526  H2614   1.114   .     S
C2526  C2527   1.517   .     S
C2526  H2613   1.105   .     S
C2526  O2705   1.418   .     S
C2527  H2616   1.100   .     S
C2527  C2528   1.525   .     S
C2527  H2615   1.106   .     S
C2528  H2865   1.109   .     S
C2528  H634    1.105   1_556 S
C2528  H635    1.111   1_556 S
C2529  C2530   1.531   .     S
C2529  H2620   1.110   .     S
C2529  H2621   1.121   .     S
C2529  O2706   1.418   .     S
C2530  H2624   1.107   .     S
C2530  C2531   1.522   .     S
C2530  H2622   1.109   .     S
C2531  H2625   1.111   .     S
C2531  H2626   1.103   .     S
C2531  H2627   1.102   .     S
C2532  H2629   1.110   .     S
C2532  H2628   1.112   .     S
C2532  O2707   1.425   .     S
C2532  C2533   1.556   .     S
C2533  H2630   1.112   .     S
C2533  H2631   1.105   .     S
C2533  C2782   1.515   .     S
C2534  H2633   1.110   .     S
C2534  H2632   1.103   .     S
C2534  C2781   1.515   1_455 S
C2534  H2883   1.107   1_455 S
C2535  H2636   1.110   .     S
C2535  O2708   1.415   .     S
C2535  C2537   1.518   .     S
C2535  H2637   1.119   .     S
C2536  O2694   1.298   .     A
C2536  O2695   1.299   .     A
C2537  H2638   1.111   .     S
C2537  H2639   1.108   .     S
C2537  C2538   1.522   .     S
C2538  H2640   1.110   .     S
C2538  H2642   1.107   .     S
C2538  H2641   1.107   .     S
C2539  O2709   1.427   .     S
C2539  H2644   1.110   .     S
C2539  C2540   1.540   .     S
C2539  H2643   1.108   .     S
C2540  H2647   1.109   .     S
C2540  H2646   1.108   .     S
C2540  C2789   1.528   1_455 S
C2541  H2649   1.107   .     S
C2541  H2650   1.110   .     S
C2541  C2788   1.528   .     S
C2541  H2896   1.109   .     S
C2542  O2710   1.407   .     S
C2542  H2651   1.118   .     S
C2542  C2543   1.516   .     S
C2542  H2652   1.104   .     S
C2543  H2654   1.109   .     S
C2543  H2653   1.099   .     S
C2543  C2048   1.514   1_565 S
C2544  H2657   1.106   .     S
C2544  H2658   1.107   .     S
C2544  H2655   1.101   .     S
C2545  O2711   1.415   .     S
C2545  H2659   1.105   .     S
C2545  C2546   1.524   .     S
C2545  H2660   1.118   .     S
C2546  H2661   1.109   .     S
C2546  H2662   1.108   .     S
C2546  C564    1.532   1_556 S
C2547  O2700   1.299   .     A
C2547  O2697   1.292   .     A
C2548  H2664   1.107   .     S
C2548  H2665   1.109   .     S
C2549  H2668   1.118   .     S
C2549  O2712   1.418   .     S
C2549  H2666   1.112   .     S
C2549  C2550   1.518   .     S
C2550  C2551   1.521   .     S
C2550  H2670   1.108   .     S
C2550  H2669   1.105   .     S
C2551  H2672   1.108   .     S
C2552  H2675   1.110   .     S
C2552  O2713   1.425   .     S
C2552  C2553   1.543   .     S
C2552  H2674   1.103   .     S
C2553  C2554   1.521   .     S
C2553  H2677   1.112   .     S
C2553  H2676   1.110   .     S
C2554  H2679   1.108   .     S
C2554  H2680   1.109   .     S
C2554  H2681   1.100   .     S
C2555  O2714   1.419   .     S
C2555  H2682   1.111   .     S
C2555  H2683   1.116   .     S
C2555  C2556   1.534   .     S
C2556  C2557   1.517   .     S
C2556  H2685   1.108   .     S
C2556  H2684   1.112   .     S
C2557  H2687   1.103   .     S
C2557  H2688   1.104   .     S
C2557  H2686   1.111   .     S
C2558  O2699   1.298   .     A
C2558  O2698   1.297   .     A
C2559  O2716   1.423   .     S
C2559  H2572   1.113   .     S
C2559  H2571   1.109   .     S
C2559  C2560   1.545   .     S
C2560  H2573   1.110   .     S
C2560  C2561   1.522   .     S
C2560  H2574   1.109   .     S
C2561  H2576   1.110   .     S
C2561  H2577   1.106   .     S
C2561  H2575   1.109   .     S
C2562  H2579   1.117   .     S
C2562  O2717   1.414   .     S
C2562  H2578   1.109   .     S
C2562  C2563   1.523   .     S
C2563  H2582   1.110   .     S
C2563  C2564   1.519   .     S
C2563  H2580   1.109   .     S
C2564  H2584   1.108   .     S
C2564  H2583   1.110   .     S
C2565  O2718   1.424   .     S
C2565  C2566   1.523   .     S
C2565  H2586   1.109   .     S
C2565  H2587   1.114   .     S
C2566  H2589   1.111   .     S
C2566  C2567   1.516   .     S
C2566  H2588   1.101   .     S
C2567  H2590   1.110   .     S
C2568  H2569   1.076   .     S
C2568  N2938   1.367   .     S
H2585  C2068   1.104   1_565 S
H2591  C583    1.104   1_556 S
H2593  C583    1.108   1_556 S
H2610  C540    1.107   1_556 S
H2611  C540    1.110   1_556 S
H2617  C2776   1.109   1_455 S
H2635  C2782   1.107   .     S
H2648  C2789   1.109   1_455 S
H2663  C564    1.109   1_556 S
H2671  C2055   1.106   1_565 S
H2673  C2055   1.110   1_565 S
N2689  C2732   1.369   1_455 A
N2689  Zn2725  2.028   .     S
N2690  Zn2726  2.028   .     S
N2690  C2816   1.367   1_455 S
N2691  Zn2727  2.028   .     S
N2692  Zn2728  2.028   .     S
O2693  Zn2725  2.033   .     S
O2694  Zn2728  2.033   .     S
O2695  Zn2727  2.034   .     S
O2696  Zn2232  2.034   1_565 S
O2697  Zn2232  2.041   1_565 S
O2698  Zn2727  2.041   .     S
O2699  Zn2728  2.032   .     S
O2700  Zn2231  2.032   1_565 S
O2704  Zn2974  2.033   .     S
O2715  Zn2973  2.034   .     S
O2719  Zn2726  2.034   .     S
O2720  Zn2974  2.041   .     S
O2721  Zn2725  2.041   .     S
O2722  Zn2726  2.032   .     S
O2723  Zn2973  2.032   .     S
O2724  Zn2231  2.033   1_565 S
Zn2725 O2971   2.032   1_455 S
Zn2725 O2963   2.034   1_455 S
Zn2726 O2968   2.041   1_455 S
Zn2726 O2952   2.033   1_455 S
C2729  O2967   1.304   .     A
C2729  O2941   1.286   .     A
C2729  C2758   1.445   .     S
C2730  H2849   1.077   .     S
C2730  C747    1.421   1_556 S
C2730  N2937   1.368   .     S
C2731  N2938   1.368   .     A
C2731  H2860   1.080   .     S
C2732  H2871   1.080   .     S
C2732  N2689   1.369   1_655 A
C2732  C832    1.421   1_556 S
C2733  H2882   1.076   .     S
C2733  N2940   1.367   .     S
C2734  H2893   1.078   .     S
C2734  N2443   1.365   1_565 A
C2734  C751    1.421   1_556 S
C2735  N2444   1.366   1_565 A
C2735  H2904   1.073   .     S
C2736  H2915   1.079   .     S
C2736  C749    1.419   1_556 S
C2736  N2939   1.369   .     S
C2737  C2748   1.380   .     A
C2737  O2949   1.383   .     S
C2737  C2756   1.405   .     A
C2738  C2755   1.414   .     A
C2738  C2749   1.386   .     A
C2738  O2950   1.382   .     S
C2739  C2746   1.381   .     A
C2739  C2755   1.413   .     A
C2739  O2951   1.383   .     S
C2740  O2963   1.298   .     A
C2740  O2952   1.299   .     A
C2740  C2757   1.460   .     S
C2741  O2953   1.385   .     S
C2741  C2756   1.410   .     A
C2741  C2747   1.382   .     A
C2742  O2954   1.382   .     S
C2742  C2758   1.407   .     A
C2742  C2753   1.383   .     A
C2743  C2757   1.411   .     A
C2743  C2754   1.386   .     A
C2743  O2955   1.384   .     S
C2744  C2757   1.409   .     A
C2744  O2956   1.383   .     S
C2744  C2750   1.385   .     A
C2745  C2758   1.403   .     A
C2745  C2752   1.388   .     A
C2745  O2957   1.389   .     S
C2746  O2958   1.377   .     S
C2746  C2760   1.403   .     A
C2747  C2759   1.417   .     A
C2747  O2959   1.385   .     S
C2748  O2960   1.387   .     S
C2748  C2759   1.417   .     A
C2749  O2961   1.386   .     S
C2749  C2760   1.402   .     A
C2750  C2763   1.414   .     A
C2750  O2962   1.385   .     S
C2751  O2971   1.295   .     A
C2751  C2756   1.452   .     S
C2751  O2968   1.298   .     A
C2752  O2964   1.383   .     S
C2752  C2761   1.412   .     A
C2753  O2965   1.379   .     S
C2753  C2761   1.411   .     A
C2754  O2966   1.386   .     S
C2754  C2763   1.405   .     A
C2755  C2762   1.453   .     S
C2759  C2806   1.455   .     S
C2760  C2795   1.448   .     S
C2761  C2784   1.458   .     S
C2762  O2970   1.296   .     A
C2762  O2969   1.298   .     A
C2763  C2773   1.451   .     S
C2764  H2926   1.100   .     S
C2764  H2818   1.111   .     S
C2764  C2765   1.554   .     S
C2764  O2949   1.428   .     S
C2765  H2840   1.108   .     S
C2765  C2766   1.509   .     S
C2765  H2829   1.112   .     S
C2766  H2842   1.106   .     S
C2766  H2844   1.110   .     S
C2766  H2843   1.105   .     S
C2767  O2950   1.418   .     S
C2767  C2768   1.527   .     S
C2767  H2846   1.112   .     S
C2767  H2845   1.111   .     S
C2768  H2847   1.108   .     S
C2768  C2769   1.524   .     S
C2768  H2848   1.110   .     S
C2769  H2850   1.110   .     S
C2769  H867    1.104   1_556 S
C2769  H868    1.104   1_556 S
C2770  H2853   1.111   .     S
C2770  C2771   1.524   .     S
C2770  H2854   1.117   .     S
C2770  O2951   1.416   .     S
C2771  H2856   1.108   .     S
C2771  C2772   1.518   .     S
C2771  H2855   1.103   .     S
C2772  H2857   1.108   .     S
C2773  O2944   1.301   .     A
C2773  O2972   1.292   .     A
C2774  H2862   1.114   .     S
C2774  C2775   1.517   .     S
C2774  H2861   1.105   .     S
C2774  O2953   1.418   .     S
C2775  H2864   1.100   .     S
C2775  C2776   1.525   .     S
C2775  H2863   1.106   .     S
C2776  H2617   1.109   1_655 S
C2776  H882    1.105   1_556 S
C2776  H883    1.111   1_556 S
C2777  C2778   1.531   .     S
C2777  H2868   1.110   .     S
C2777  H2869   1.121   .     S
C2777  O2954   1.418   .     S
C2778  H2872   1.107   .     S
C2778  C2779   1.522   .     S
C2778  H2870   1.109   .     S
C2779  H2873   1.111   .     S
C2779  H2874   1.103   .     S
C2779  H2875   1.102   .     S
C2780  H2877   1.110   .     S
C2780  H2876   1.112   .     S
C2780  O2955   1.425   .     S
C2780  C2781   1.556   .     S
C2781  H2878   1.112   .     S
C2781  H2879   1.105   .     S
C2781  C2534   1.515   1_655 S
C2782  H2881   1.110   .     S
C2782  H2880   1.103   .     S
C2783  H2884   1.110   .     S
C2783  O2956   1.415   .     S
C2783  C2785   1.518   .     S
C2783  H2885   1.119   .     S
C2784  O2942   1.298   .     A
C2784  O2943   1.299   .     A
C2785  H2886   1.111   .     S
C2785  H2887   1.108   .     S
C2785  C2786   1.522   .     S
C2786  H2888   1.110   .     S
C2786  H2890   1.107   .     S
C2786  H2889   1.107   .     S
C2787  O2957   1.427   .     S
C2787  H2892   1.110   .     S
C2787  C2788   1.540   .     S
C2787  H2891   1.108   .     S
C2788  H2895   1.109   .     S
C2788  H2894   1.108   .     S
C2789  H2897   1.107   .     S
C2789  H2898   1.110   .     S
C2789  C2540   1.528   1_655 S
C2789  H2648   1.109   1_655 S
C2790  O2958   1.407   .     S
C2790  H2899   1.118   .     S
C2790  C2791   1.516   .     S
C2790  H2900   1.104   .     S
C2791  H2902   1.109   .     S
C2791  H2901   1.099   .     S
C2791  C2296   1.514   1_565 S
C2792  H2905   1.106   .     S
C2792  H2906   1.107   .     S
C2792  H2903   1.101   .     S
C2793  O2959   1.415   .     S
C2793  H2907   1.105   .     S
C2793  C2794   1.524   .     S
C2793  H2908   1.118   .     S
C2794  H2909   1.109   .     S
C2794  H2910   1.108   .     S
C2794  C812    1.532   1_556 S
C2795  O2948   1.299   .     A
C2795  O2945   1.292   .     A
C2796  H2912   1.107   .     S
C2796  H2913   1.109   .     S
C2797  H2916   1.118   .     S
C2797  O2960   1.418   .     S
C2797  H2914   1.112   .     S
C2797  C2798   1.518   .     S
C2798  C2799   1.521   .     S
C2798  H2918   1.108   .     S
C2798  H2917   1.105   .     S
C2799  H2920   1.108   .     S
C2800  H2923   1.110   .     S
C2800  O2961   1.425   .     S
C2800  C2801   1.543   .     S
C2800  H2922   1.103   .     S
C2801  C2802   1.521   .     S
C2801  H2925   1.112   .     S
C2801  H2924   1.110   .     S
C2802  H2927   1.108   .     S
C2802  H2928   1.109   .     S
C2802  H2929   1.100   .     S
C2803  O2962   1.419   .     S
C2803  H2930   1.111   .     S
C2803  H2931   1.116   .     S
C2803  C2804   1.534   .     S
C2804  C2805   1.517   .     S
C2804  H2933   1.108   .     S
C2804  H2932   1.112   .     S
C2805  H2935   1.103   .     S
C2805  H2936   1.104   .     S
C2805  H2934   1.111   .     S
C2806  O2947   1.298   .     A
C2806  O2946   1.297   .     A
C2807  O2964   1.423   .     S
C2807  H2820   1.113   .     S
C2807  H2819   1.109   .     S
C2807  C2808   1.545   .     S
C2808  H2821   1.110   .     S
C2808  C2809   1.522   .     S
C2808  H2822   1.109   .     S
C2809  H2824   1.110   .     S
C2809  H2825   1.106   .     S
C2809  H2823   1.109   .     S
C2810  H2827   1.117   .     S
C2810  O2965   1.414   .     S
C2810  H2826   1.109   .     S
C2810  C2811   1.523   .     S
C2811  H2830   1.110   .     S
C2811  C2812   1.519   .     S
C2811  H2828   1.109   .     S
C2812  H2832   1.108   .     S
C2812  H2831   1.110   .     S
C2813  O2966   1.424   .     S
C2813  C2814   1.523   .     S
C2813  H2834   1.109   .     S
C2813  H2835   1.114   .     S
C2814  H2837   1.111   .     S
C2814  C2815   1.516   .     S
C2814  H2836   1.101   .     S
C2815  H2838   1.110   .     S
C2816  H2817   1.076   .     S
C2816  N2690   1.367   1_655 S
H2833  C2316   1.104   1_565 S
H2839  C831    1.104   1_556 S
H2841  C831    1.108   1_556 S
H2858  C788    1.107   1_556 S
H2859  C788    1.110   1_556 S
H2883  C2534   1.107   1_655 S
H2911  C812    1.109   1_556 S
H2919  C2303   1.106   1_565 S
H2921  C2303   1.110   1_565 S
N2937  Zn2973  2.028   .     S
N2938  Zn2974  2.028   .     S
N2939  Zn2975  2.028   .     S
N2940  Zn2976  2.028   .     S
O2941  Zn2973  2.033   .     S
O2942  Zn2976  2.033   .     S
O2943  Zn2975  2.034   .     S
O2944  Zn2480  2.034   1_565 S
O2945  Zn2480  2.041   1_565 S
O2946  Zn2975  2.041   .     S
O2947  Zn2976  2.032   .     S
O2948  Zn2479  2.032   1_565 S
O2952  Zn2726  2.033   1_655 S
O2963  Zn2725  2.034   1_655 S
O2967  Zn2974  2.034   .     S
O2968  Zn2726  2.041   1_655 S
O2969  Zn2973  2.041   .     S
O2970  Zn2974  2.032   .     S
O2971  Zn2725  2.032   1_655 S
O2972  Zn2479  2.033   1_565 S
