data_str_m3_o1_o1_pcu_sym.66
_audit_creation_date              2020-01-03
_audit_creation_method            'Materials Studio'
_symmetry_space_group_name_H-M    'P1'
_symmetry_Int_Tables_number       1
_symmetry_cell_setting            triclinic
loop_
_symmetry_equiv_pos_as_xyz
  x,y,z
_cell_length_a                    31.5930
_cell_length_b                    29.4012
_cell_length_c                    30.0585
_cell_angle_alpha                 89.4752
_cell_angle_beta                  89.9196
_cell_angle_gamma                 89.1500
loop_
_atom_site_label
_atom_site_type_symbol
_atom_site_fract_x
_atom_site_fract_y
_atom_site_fract_z
_atom_site_U_iso_or_equiv
_atom_site_adp_type
_atom_site_occupancy
C1     C     0.06287   0.19360   0.16712   0.00000  Uiso   1.00
C2     C     0.00237   0.20993   0.30997   0.00000  Uiso   1.00
C3     C     0.00131   0.20985   0.02434   0.00000  Uiso   1.00
C4     C     0.49748   0.29008   0.30912   0.00000  Uiso   1.00
C5     C     0.24766   0.03982   0.02337   0.00000  Uiso   1.00
C6     C     0.25165   0.45999   0.30996   0.00000  Uiso   1.00
C7     C     0.25093   0.45991   0.02428   0.00000  Uiso   1.00
C8     C     0.24556   0.03971   0.30928   0.00000  Uiso   1.00
C9     C     0.38286   0.15069   0.12542   0.00000  Uiso   1.00
C10    C     0.12035   0.35033   0.20393   0.00000  Uiso   1.00
C11    C     0.11241   0.35664   0.12311   0.00000  Uiso   1.00
C12    C     0.44075   0.31087   0.16708   0.00000  Uiso   1.00
C13    C     0.38493   0.14408   0.20658   0.00000  Uiso   1.00
C14    C     0.10884   0.14084   0.20876   0.00000  Uiso   1.00
C15    C     0.41288   0.38138   0.13449   0.00000  Uiso   1.00
C16    C     0.38872   0.35965   0.20825   0.00000  Uiso   1.00
C17    C     0.13450   0.16844   0.13734   0.00000  Uiso   1.00
C18    C     0.13380   0.39806   0.12513   0.00000  Uiso   1.00
C19    C     0.34616   0.12293   0.20292   0.00000  Uiso   1.00
C20    C     0.36108   0.10982   0.12468   0.00000  Uiso   1.00
C21    C     0.15834   0.37248   0.19796   0.00000  Uiso   1.00
C22    C     0.36831   0.40179   0.20905   0.00000  Uiso   1.00
C23    C     0.43893   0.19123   0.16676   0.00000  Uiso   1.00
C24    C     0.16848   0.13759   0.14298   0.00000  Uiso   1.00
C25    C     0.12918   0.09933   0.20239   0.00000  Uiso   1.00
C26    C     0.37530   0.40587   0.12828   0.00000  Uiso   1.00
C27    C     0.09838   0.33816   0.16460   0.00000  Uiso   1.00
C28    C     0.40208   0.16204   0.16649   0.00000  Uiso   1.00
C29    C     0.41228   0.34942   0.16925   0.00000  Uiso   1.00
C30    C     0.10227   0.16751   0.17013   0.00000  Uiso   1.00
C31    C     0.33949   0.09746   0.16437   0.00000  Uiso   1.00
C32    C     0.15923   0.40469   0.16364   0.00000  Uiso   1.00
C33    C     0.16082   0.09801   0.16886   0.00000  Uiso   1.00
C34    C     0.06140   0.30864   0.16631   0.00000  Uiso   1.00
C35    C     0.35252   0.41770   0.16763   0.00000  Uiso   1.00
C36    C     0.49480   0.33459   0.04677   0.00000  Uiso   1.00
C37    C     0.00691   0.16474   0.28709   0.00000  Uiso   1.00
C38    C     0.49994   0.16435   0.04831   0.00000  Uiso   1.00
C39    C     0.49355   0.33560   0.28549   0.00000  Uiso   1.00
C40    C     0.24609   0.08463   0.04635   0.00000  Uiso   1.00
C41    C     0.25109   0.41493   0.28693   0.00000  Uiso   1.00
C42    C     0.24858   0.41460   0.04802   0.00000  Uiso   1.00
C43    C     0.23294   0.08302   0.28578   0.00000  Uiso   1.00
C44    C     0.38033   0.18236   0.08487   0.00000  Uiso   1.00
C45    C     0.31256   0.44304   0.16674   0.00000  Uiso   1.00
C46    C     0.36125   0.22884   0.09668   0.00000  Uiso   1.00
C47    C     0.10206   0.34601   0.25042   0.00000  Uiso   1.00
C48    C     0.11981   0.37877   0.28485   0.00000  Uiso   1.00
C49    C     0.10918   0.33216   0.07838   0.00000  Uiso   1.00
C50    C     0.15183   0.32723   0.05491   0.00000  Uiso   1.00
C51    C     0.40971   0.14135   0.24997   0.00000  Uiso   1.00
C52    C     0.39408   0.10781   0.28558   0.00000  Uiso   1.00
C53    C     0.11559   0.16348   0.25381   0.00000  Uiso   1.00
C54    C     0.15885   0.18571   0.25607   0.00000  Uiso   1.00
C55    C     0.45429   0.40465   0.12360   0.00000  Uiso   1.00
C56    C     0.19014   0.06020   0.16696   0.00000  Uiso   1.00
C57    C     0.46226   0.44453   0.15452   0.00000  Uiso   1.00
C58    C     0.37980   0.32610   0.24590   0.00000  Uiso   1.00
C59    C     0.35503   0.28568   0.22945   0.00000  Uiso   1.00
C60    C     0.13415   0.20190   0.09859   0.00000  Uiso   1.00
C61    C     0.12282   0.17841   0.05529   0.00000  Uiso   1.00
C62    C     0.12893   0.43234   0.08664   0.00000  Uiso   1.00
C63    C     0.10910   0.47740   0.10116   0.00000  Uiso   1.00
C64    C     0.31019   0.13380   0.23442   0.00000  Uiso   1.00
C65    C     0.30870   0.18284   0.25022   0.00000  Uiso   1.00
C66    C     0.36588   0.07967   0.08389   0.00000  Uiso   1.00
C67    C     0.19014   0.44014   0.16615   0.00000  Uiso   1.00
C68    C     0.39023   0.03582   0.09517   0.00000  Uiso   1.00
C69    C     0.19892   0.34864   0.21293   0.00000  Uiso   1.00
C70    C     0.20602   0.30433   0.18794   0.00000  Uiso   1.00
C71    C     0.36742   0.42890   0.25210   0.00000  Uiso   1.00
C72    C     0.38482   0.47675   0.24609   0.00000  Uiso   1.00
C73    C     0.21311   0.15058   0.12896   0.00000  Uiso   1.00
C74    C     0.22942   0.19091   0.15521   0.00000  Uiso   1.00
C75    C     0.11781   0.05999   0.23349   0.00000  Uiso   1.00
C76    C     0.10067   0.01929   0.20871   0.00000  Uiso   1.00
C77    C     0.35699   0.41163   0.08184   0.00000  Uiso   1.00
C78    C     0.30929   0.06073   0.16611   0.00000  Uiso   1.00
C79    C     0.38040   0.38773   0.04391   0.00000  Uiso   1.00
C80    C     0.49809   0.28993   0.02339   0.00000  Uiso   1.00
H81    H     0.00057   0.33067   0.08180   0.00000  Uiso   1.00
H82    H     0.49747   0.33414   0.24961   0.00000  Uiso   1.00
H83    H     0.40889   0.40683   0.03394   0.00000  Uiso   1.00
H84    H     0.38866   0.35205   0.05317   0.00000  Uiso   1.00
H85    H     0.35923   0.38673   0.01450   0.00000  Uiso   1.00
H86    H     0.32588   0.39525   0.08331   0.00000  Uiso   1.00
H87    H     0.35304   0.44816   0.07311   0.00000  Uiso   1.00
H88    H     0.46258   0.35195   0.29307   0.00000  Uiso   1.00
H89    H     0.01835   0.35884   0.29690   0.00000  Uiso   1.00
H90    H     0.25068   0.08058   0.08148   0.00000  Uiso   1.00
H91    H     0.27220   0.10665   0.03476   0.00000  Uiso   1.00
H92    H     0.21493   0.10149   0.04040   0.00000  Uiso   1.00
H93    H     0.25171   0.41855   0.25129   0.00000  Uiso   1.00
H94    H     0.27893   0.39355   0.29619   0.00000  Uiso   1.00
H95    H     0.22175   0.39689   0.29586   0.00000  Uiso   1.00
H96    H     0.25091   0.41603   0.08401   0.00000  Uiso   1.00
H97    H     0.01880   0.35890   0.03511   0.00000  Uiso   1.00
H98    H     0.21817   0.39890   0.04023   0.00000  Uiso   1.00
H99    H     0.27397   0.39123   0.03654   0.00000  Uiso   1.00
H100   H     0.24412   0.08243   0.25190   0.00000  Uiso   1.00
H101   H     0.19812   0.08740   0.28692   0.00000  Uiso   1.00
H102   H     0.24716   0.11373   0.30006   0.00000  Uiso   1.00
H103   H     0.32906   0.22471   0.11088   0.00000  Uiso   1.00
H104   H     0.38105   0.24676   0.12112   0.00000  Uiso   1.00
H105   H     0.35881   0.25034   0.06620   0.00000  Uiso   1.00
H106   H     0.41132   0.18623   0.06829   0.00000  Uiso   1.00
H107   H     0.35907   0.16819   0.05921   0.00000  Uiso   1.00
H108   H     0.46289   0.34948   0.04164   0.00000  Uiso   1.00
H109   H     0.15162   0.36770   0.29595   0.00000  Uiso   1.00
H110   H     0.12105   0.41396   0.27115   0.00000  Uiso   1.00
H111   H     0.09886   0.37921   0.31451   0.00000  Uiso   1.00
H112   H     0.06864   0.35657   0.24759   0.00000  Uiso   1.00
H113   H     0.10478   0.31034   0.26275   0.00000  Uiso   1.00
H114   H     0.16088   0.36010   0.04026   0.00000  Uiso   1.00
H115   H     0.17664   0.31486   0.07836   0.00000  Uiso   1.00
H116   H     0.14937   0.30255   0.02727   0.00000  Uiso   1.00
H117   H     0.09888   0.29702   0.08150   0.00000  Uiso   1.00
H118   H     0.08624   0.34964   0.05624   0.00000  Uiso   1.00
H119   H     0.00253   0.16659   0.25128   0.00000  Uiso   1.00
H120   H     0.36818   0.12319   0.30559   0.00000  Uiso   1.00
H121   H     0.38371   0.07566   0.27034   0.00000  Uiso   1.00
H122   H     0.42013   0.09935   0.30910   0.00000  Uiso   1.00
H123   H     0.44149   0.12837   0.24047   0.00000  Uiso   1.00
H124   H     0.41195   0.17551   0.26519   0.00000  Uiso   1.00
H125   H     0.18440   0.16006   0.25093   0.00000  Uiso   1.00
H126   H     0.16121   0.21274   0.23026   0.00000  Uiso   1.00
H127   H     0.16323   0.20131   0.28922   0.00000  Uiso   1.00
H128   H     0.09188   0.19017   0.26142   0.00000  Uiso   1.00
H129   H     0.11376   0.13832   0.28145   0.00000  Uiso   1.00
H130   H     0.03833   0.14936   0.29429   0.00000  Uiso   1.00
H131   H     0.43600   0.46992   0.15250   0.00000  Uiso   1.00
H132   H     0.46551   0.43205   0.18935   0.00000  Uiso   1.00
H133   H     0.49212   0.46144   0.14477   0.00000  Uiso   1.00
H134   H     0.48140   0.38101   0.12838   0.00000  Uiso   1.00
H135   H     0.45465   0.41730   0.08883   0.00000  Uiso   1.00
H136   H     0.32651   0.29733   0.21069   0.00000  Uiso   1.00
H137   H     0.37484   0.26336   0.20806   0.00000  Uiso   1.00
H138   H     0.34467   0.26599   0.25894   0.00000  Uiso   1.00
H139   H     0.40869   0.31427   0.26326   0.00000  Uiso   1.00
H140   H     0.35975   0.34212   0.27198   0.00000  Uiso   1.00
H141   H     0.48302   0.14084   0.29966   0.00000  Uiso   1.00
H142   H     0.11741   0.20427   0.02866   0.00000  Uiso   1.00
H143   H     0.14890   0.15513   0.04486   0.00000  Uiso   1.00
H144   H     0.09370   0.15844   0.05975   0.00000  Uiso   1.00
H145   H     0.11165   0.22983   0.10483   0.00000  Uiso   1.00
H146   H     0.16488   0.21883   0.09406   0.00000  Uiso   1.00
H147   H     0.08125   0.47135   0.12291   0.00000  Uiso   1.00
H148   H     0.13260   0.49826   0.11850   0.00000  Uiso   1.00
H149   H     0.09839   0.49707   0.07142   0.00000  Uiso   1.00
H150   H     0.15918   0.43826   0.06917   0.00000  Uiso   1.00
H151   H     0.10750   0.41945   0.06072   0.00000  Uiso   1.00
H152   H     0.00110   0.16619   0.08430   0.00000  Uiso   1.00
H153   H     0.33568   0.18971   0.27251   0.00000  Uiso   1.00
H154   H     0.30894   0.20622   0.22102   0.00000  Uiso   1.00
H155   H     0.27901   0.18906   0.26919   0.00000  Uiso   1.00
H156   H     0.28029   0.12984   0.21582   0.00000  Uiso   1.00
H157   H     0.31133   0.11013   0.26316   0.00000  Uiso   1.00
H158   H     0.42171   0.04399   0.10919   0.00000  Uiso   1.00
H159   H     0.37279   0.01475   0.11962   0.00000  Uiso   1.00
H160   H     0.39521   0.01577   0.06443   0.00000  Uiso   1.00
H161   H     0.33514   0.07244   0.06814   0.00000  Uiso   1.00
H162   H     0.38479   0.09676   0.05764   0.00000  Uiso   1.00
H163   H     0.47017   0.14678   0.04009   0.00000  Uiso   1.00
H164   H     0.17906   0.28120   0.19341   0.00000  Uiso   1.00
H165   H     0.20945   0.31133   0.15177   0.00000  Uiso   1.00
H166   H     0.23543   0.28721   0.20011   0.00000  Uiso   1.00
H167   H     0.22688   0.36959   0.20574   0.00000  Uiso   1.00
H168   H     0.19818   0.34060   0.24889   0.00000  Uiso   1.00
H169   H     0.41876   0.47505   0.23678   0.00000  Uiso   1.00
H170   H     0.36721   0.49631   0.22024   0.00000  Uiso   1.00
H171   H     0.38196   0.49506   0.27810   0.00000  Uiso   1.00
H172   H     0.33548   0.43054   0.26682   0.00000  Uiso   1.00
H173   H     0.38800   0.41205   0.27744   0.00000  Uiso   1.00
H174   H     0.02696   0.14234   0.03823   0.00000  Uiso   1.00
H175   H     0.21059   0.22202   0.14828   0.00000  Uiso   1.00
H176   H     0.22831   0.18356   0.19137   0.00000  Uiso   1.00
H177   H     0.26277   0.19747   0.14577   0.00000  Uiso   1.00
H178   H     0.23614   0.12302   0.13638   0.00000  Uiso   1.00
H179   H     0.21433   0.15865   0.09293   0.00000  Uiso   1.00
H180   H     0.07712   0.03047   0.18332   0.00000  Uiso   1.00
H181   H     0.12696   0.00026   0.19296   0.00000  Uiso   1.00
H182   H     0.08506   0.49581   0.23256   0.00000  Uiso   1.00
H183   H     0.14481   0.04911   0.25458   0.00000  Uiso   1.00
H184   H     0.09229   0.07079   0.25677   0.00000  Uiso   1.00
N185   N    -0.00000   0.25000   0.28573   0.00000  Uiso   1.00
N186   N     0.00000   0.25000   0.04760   0.00000  Uiso   1.00
N187   N     0.25000  -0.00000   0.28573   0.00000  Uiso   1.00
N188   N     0.25000  -0.00000   0.04760   0.00000  Uiso   1.00
O189   O     0.04580   0.20419   0.20487   0.00000  Uiso   1.00
O190   O     0.20419   0.04581   0.12846   0.00000  Uiso   1.00
O191   O     0.20419   0.04581   0.20487   0.00000  Uiso   1.00
O192   O     0.29580   0.45419   0.12846   0.00000  Uiso   1.00
O193   O     0.20419   0.45419   0.12846   0.00000  Uiso   1.00
O194   O     0.29580   0.04581   0.20487   0.00000  Uiso   1.00
O195   O     0.29580   0.04581   0.12846   0.00000  Uiso   1.00
O196   O     0.20419   0.45419   0.20487   0.00000  Uiso   1.00
O197   O     0.45419   0.29581   0.12846   0.00000  Uiso   1.00
O198   O     0.45419   0.29581   0.20487   0.00000  Uiso   1.00
O199   O     0.04580   0.20419   0.12846   0.00000  Uiso   1.00
O200   O     0.45419   0.20419   0.12846   0.00000  Uiso   1.00
O201   O     0.04580   0.29581   0.20487   0.00000  Uiso   1.00
O202   O     0.04580   0.29581   0.12846   0.00000  Uiso   1.00
O203   O     0.45419   0.20419   0.20487   0.00000  Uiso   1.00
O204   O     0.29580   0.45419   0.20487   0.00000  Uiso   1.00
Zn205  Zn    0.00000   0.25000   0.21771   0.00000  Uiso   1.00
Zn206  Zn    0.00000   0.25000   0.11563   0.00000  Uiso   1.00
Zn207  Zn    0.25000  -0.00000   0.21771   0.00000  Uiso   1.00
Zn208  Zn    0.25000  -0.00000   0.11563   0.00000  Uiso   1.00
C209   C     0.56287   0.19360   0.16712   0.00000  Uiso   1.00
C210   C     0.50237   0.20993   0.30997   0.00000  Uiso   1.00
C211   C     0.50131   0.20985   0.02434   0.00000  Uiso   1.00
C212   C     0.99748   0.29008   0.30912   0.00000  Uiso   1.00
C213   C     0.74766   0.03982   0.02337   0.00000  Uiso   1.00
C214   C     0.75165   0.45999   0.30996   0.00000  Uiso   1.00
C215   C     0.75093   0.45991   0.02428   0.00000  Uiso   1.00
C216   C     0.74556   0.03971   0.30928   0.00000  Uiso   1.00
C217   C     0.88286   0.15069   0.12542   0.00000  Uiso   1.00
C218   C     0.62035   0.35033   0.20393   0.00000  Uiso   1.00
C219   C     0.61241   0.35664   0.12311   0.00000  Uiso   1.00
C220   C     0.94075   0.31087   0.16708   0.00000  Uiso   1.00
C221   C     0.88493   0.14408   0.20658   0.00000  Uiso   1.00
C222   C     0.60884   0.14084   0.20876   0.00000  Uiso   1.00
C223   C     0.91288   0.38138   0.13449   0.00000  Uiso   1.00
C224   C     0.88872   0.35965   0.20825   0.00000  Uiso   1.00
C225   C     0.63450   0.16844   0.13734   0.00000  Uiso   1.00
C226   C     0.63380   0.39806   0.12513   0.00000  Uiso   1.00
C227   C     0.84616   0.12293   0.20292   0.00000  Uiso   1.00
C228   C     0.86108   0.10982   0.12468   0.00000  Uiso   1.00
C229   C     0.65834   0.37248   0.19796   0.00000  Uiso   1.00
C230   C     0.86831   0.40179   0.20905   0.00000  Uiso   1.00
C231   C     0.93893   0.19123   0.16676   0.00000  Uiso   1.00
C232   C     0.66848   0.13759   0.14298   0.00000  Uiso   1.00
C233   C     0.62918   0.09933   0.20239   0.00000  Uiso   1.00
C234   C     0.87530   0.40587   0.12828   0.00000  Uiso   1.00
C235   C     0.59838   0.33816   0.16460   0.00000  Uiso   1.00
C236   C     0.90208   0.16204   0.16649   0.00000  Uiso   1.00
C237   C     0.91228   0.34942   0.16925   0.00000  Uiso   1.00
C238   C     0.60227   0.16751   0.17013   0.00000  Uiso   1.00
C239   C     0.83949   0.09746   0.16437   0.00000  Uiso   1.00
C240   C     0.65923   0.40469   0.16364   0.00000  Uiso   1.00
C241   C     0.66082   0.09801   0.16886   0.00000  Uiso   1.00
C242   C     0.56140   0.30864   0.16631   0.00000  Uiso   1.00
C243   C     0.85252   0.41770   0.16763   0.00000  Uiso   1.00
C244   C     0.99480   0.33459   0.04677   0.00000  Uiso   1.00
C245   C     0.50691   0.16474   0.28709   0.00000  Uiso   1.00
C246   C     0.99994   0.16435   0.04831   0.00000  Uiso   1.00
C247   C     0.99355   0.33560   0.28549   0.00000  Uiso   1.00
C248   C     0.74609   0.08463   0.04635   0.00000  Uiso   1.00
C249   C     0.75109   0.41493   0.28693   0.00000  Uiso   1.00
C250   C     0.74858   0.41460   0.04802   0.00000  Uiso   1.00
C251   C     0.73294   0.08302   0.28578   0.00000  Uiso   1.00
C252   C     0.88033   0.18236   0.08487   0.00000  Uiso   1.00
C253   C     0.81256   0.44304   0.16674   0.00000  Uiso   1.00
C254   C     0.86125   0.22884   0.09668   0.00000  Uiso   1.00
C255   C     0.60206   0.34601   0.25042   0.00000  Uiso   1.00
C256   C     0.61981   0.37877   0.28485   0.00000  Uiso   1.00
C257   C     0.60918   0.33216   0.07838   0.00000  Uiso   1.00
C258   C     0.65183   0.32723   0.05491   0.00000  Uiso   1.00
C259   C     0.90971   0.14135   0.24997   0.00000  Uiso   1.00
C260   C     0.89408   0.10781   0.28558   0.00000  Uiso   1.00
C261   C     0.61559   0.16348   0.25381   0.00000  Uiso   1.00
C262   C     0.65885   0.18571   0.25607   0.00000  Uiso   1.00
C263   C     0.95429   0.40465   0.12360   0.00000  Uiso   1.00
C264   C     0.69014   0.06020   0.16696   0.00000  Uiso   1.00
C265   C     0.96226   0.44453   0.15452   0.00000  Uiso   1.00
C266   C     0.87980   0.32610   0.24590   0.00000  Uiso   1.00
C267   C     0.85503   0.28568   0.22945   0.00000  Uiso   1.00
C268   C     0.63415   0.20190   0.09859   0.00000  Uiso   1.00
C269   C     0.62282   0.17841   0.05529   0.00000  Uiso   1.00
C270   C     0.62893   0.43234   0.08664   0.00000  Uiso   1.00
C271   C     0.60910   0.47740   0.10116   0.00000  Uiso   1.00
C272   C     0.81019   0.13380   0.23442   0.00000  Uiso   1.00
C273   C     0.80870   0.18284   0.25022   0.00000  Uiso   1.00
C274   C     0.86588   0.07967   0.08389   0.00000  Uiso   1.00
C275   C     0.69014   0.44014   0.16615   0.00000  Uiso   1.00
C276   C     0.89023   0.03582   0.09517   0.00000  Uiso   1.00
C277   C     0.69892   0.34864   0.21293   0.00000  Uiso   1.00
C278   C     0.70602   0.30433   0.18794   0.00000  Uiso   1.00
C279   C     0.86742   0.42890   0.25210   0.00000  Uiso   1.00
C280   C     0.88482   0.47675   0.24609   0.00000  Uiso   1.00
C281   C     0.71311   0.15058   0.12896   0.00000  Uiso   1.00
C282   C     0.72942   0.19091   0.15521   0.00000  Uiso   1.00
C283   C     0.61781   0.05999   0.23349   0.00000  Uiso   1.00
C284   C     0.60067   0.01929   0.20871   0.00000  Uiso   1.00
C285   C     0.85699   0.41163   0.08184   0.00000  Uiso   1.00
C286   C     0.80929   0.06073   0.16611   0.00000  Uiso   1.00
C287   C     0.88040   0.38773   0.04391   0.00000  Uiso   1.00
C288   C     0.99809   0.28993   0.02339   0.00000  Uiso   1.00
H289   H     0.50057   0.33067   0.08180   0.00000  Uiso   1.00
H290   H     0.99747   0.33414   0.24961   0.00000  Uiso   1.00
H291   H     0.90889   0.40683   0.03394   0.00000  Uiso   1.00
H292   H     0.88866   0.35205   0.05317   0.00000  Uiso   1.00
H293   H     0.85923   0.38673   0.01450   0.00000  Uiso   1.00
H294   H     0.82588   0.39525   0.08331   0.00000  Uiso   1.00
H295   H     0.85304   0.44816   0.07311   0.00000  Uiso   1.00
H296   H     0.96258   0.35195   0.29307   0.00000  Uiso   1.00
H297   H     0.51835   0.35884   0.29690   0.00000  Uiso   1.00
H298   H     0.75068   0.08058   0.08148   0.00000  Uiso   1.00
H299   H     0.77220   0.10665   0.03476   0.00000  Uiso   1.00
H300   H     0.71493   0.10149   0.04040   0.00000  Uiso   1.00
H301   H     0.75171   0.41855   0.25129   0.00000  Uiso   1.00
H302   H     0.77893   0.39355   0.29619   0.00000  Uiso   1.00
H303   H     0.72175   0.39689   0.29586   0.00000  Uiso   1.00
H304   H     0.75091   0.41603   0.08401   0.00000  Uiso   1.00
H305   H     0.51880   0.35890   0.03511   0.00000  Uiso   1.00
H306   H     0.71817   0.39890   0.04023   0.00000  Uiso   1.00
H307   H     0.77397   0.39123   0.03654   0.00000  Uiso   1.00
H308   H     0.74412   0.08243   0.25190   0.00000  Uiso   1.00
H309   H     0.69812   0.08740   0.28692   0.00000  Uiso   1.00
H310   H     0.74716   0.11373   0.30006   0.00000  Uiso   1.00
H311   H     0.82906   0.22471   0.11088   0.00000  Uiso   1.00
H312   H     0.88105   0.24676   0.12112   0.00000  Uiso   1.00
H313   H     0.85881   0.25034   0.06620   0.00000  Uiso   1.00
H314   H     0.91132   0.18623   0.06829   0.00000  Uiso   1.00
H315   H     0.85907   0.16819   0.05921   0.00000  Uiso   1.00
H316   H     0.96289   0.34948   0.04164   0.00000  Uiso   1.00
H317   H     0.65162   0.36770   0.29595   0.00000  Uiso   1.00
H318   H     0.62105   0.41396   0.27115   0.00000  Uiso   1.00
H319   H     0.59886   0.37921   0.31451   0.00000  Uiso   1.00
H320   H     0.56864   0.35657   0.24759   0.00000  Uiso   1.00
H321   H     0.60478   0.31034   0.26275   0.00000  Uiso   1.00
H322   H     0.66088   0.36010   0.04026   0.00000  Uiso   1.00
H323   H     0.67664   0.31486   0.07836   0.00000  Uiso   1.00
H324   H     0.64937   0.30255   0.02727   0.00000  Uiso   1.00
H325   H     0.59888   0.29702   0.08150   0.00000  Uiso   1.00
H326   H     0.58624   0.34964   0.05624   0.00000  Uiso   1.00
H327   H     0.50253   0.16659   0.25128   0.00000  Uiso   1.00
H328   H     0.86818   0.12319   0.30559   0.00000  Uiso   1.00
H329   H     0.88371   0.07566   0.27034   0.00000  Uiso   1.00
H330   H     0.92013   0.09935   0.30910   0.00000  Uiso   1.00
H331   H     0.94149   0.12837   0.24047   0.00000  Uiso   1.00
H332   H     0.91195   0.17551   0.26519   0.00000  Uiso   1.00
H333   H     0.68440   0.16006   0.25093   0.00000  Uiso   1.00
H334   H     0.66121   0.21274   0.23026   0.00000  Uiso   1.00
H335   H     0.66323   0.20131   0.28922   0.00000  Uiso   1.00
H336   H     0.59188   0.19017   0.26142   0.00000  Uiso   1.00
H337   H     0.61376   0.13832   0.28145   0.00000  Uiso   1.00
H338   H     0.53833   0.14936   0.29429   0.00000  Uiso   1.00
H339   H     0.93600   0.46992   0.15250   0.00000  Uiso   1.00
H340   H     0.96551   0.43205   0.18935   0.00000  Uiso   1.00
H341   H     0.99212   0.46144   0.14477   0.00000  Uiso   1.00
H342   H     0.98140   0.38101   0.12838   0.00000  Uiso   1.00
H343   H     0.95465   0.41730   0.08883   0.00000  Uiso   1.00
H344   H     0.82651   0.29733   0.21069   0.00000  Uiso   1.00
H345   H     0.87484   0.26336   0.20806   0.00000  Uiso   1.00
H346   H     0.84467   0.26599   0.25894   0.00000  Uiso   1.00
H347   H     0.90869   0.31427   0.26326   0.00000  Uiso   1.00
H348   H     0.85975   0.34212   0.27198   0.00000  Uiso   1.00
H349   H     0.98302   0.14084   0.29966   0.00000  Uiso   1.00
H350   H     0.61741   0.20427   0.02866   0.00000  Uiso   1.00
H351   H     0.64890   0.15513   0.04486   0.00000  Uiso   1.00
H352   H     0.59370   0.15844   0.05975   0.00000  Uiso   1.00
H353   H     0.61165   0.22983   0.10483   0.00000  Uiso   1.00
H354   H     0.66488   0.21883   0.09406   0.00000  Uiso   1.00
H355   H     0.58125   0.47135   0.12291   0.00000  Uiso   1.00
H356   H     0.63260   0.49826   0.11850   0.00000  Uiso   1.00
H357   H     0.59839   0.49707   0.07142   0.00000  Uiso   1.00
H358   H     0.65918   0.43826   0.06917   0.00000  Uiso   1.00
H359   H     0.60750   0.41945   0.06072   0.00000  Uiso   1.00
H360   H     0.50110   0.16619   0.08430   0.00000  Uiso   1.00
H361   H     0.83568   0.18971   0.27251   0.00000  Uiso   1.00
H362   H     0.80894   0.20622   0.22102   0.00000  Uiso   1.00
H363   H     0.77901   0.18906   0.26919   0.00000  Uiso   1.00
H364   H     0.78029   0.12984   0.21582   0.00000  Uiso   1.00
H365   H     0.81133   0.11013   0.26316   0.00000  Uiso   1.00
H366   H     0.92171   0.04399   0.10919   0.00000  Uiso   1.00
H367   H     0.87279   0.01475   0.11962   0.00000  Uiso   1.00
H368   H     0.89521   0.01577   0.06443   0.00000  Uiso   1.00
H369   H     0.83514   0.07244   0.06814   0.00000  Uiso   1.00
H370   H     0.88479   0.09676   0.05764   0.00000  Uiso   1.00
H371   H     0.97017   0.14678   0.04009   0.00000  Uiso   1.00
H372   H     0.67906   0.28120   0.19341   0.00000  Uiso   1.00
H373   H     0.70945   0.31133   0.15177   0.00000  Uiso   1.00
H374   H     0.73543   0.28721   0.20011   0.00000  Uiso   1.00
H375   H     0.72688   0.36959   0.20574   0.00000  Uiso   1.00
H376   H     0.69818   0.34060   0.24889   0.00000  Uiso   1.00
H377   H     0.91876   0.47505   0.23678   0.00000  Uiso   1.00
H378   H     0.86721   0.49631   0.22024   0.00000  Uiso   1.00
H379   H     0.88196   0.49506   0.27810   0.00000  Uiso   1.00
H380   H     0.83548   0.43054   0.26682   0.00000  Uiso   1.00
H381   H     0.88800   0.41205   0.27744   0.00000  Uiso   1.00
H382   H     0.52696   0.14234   0.03823   0.00000  Uiso   1.00
H383   H     0.71059   0.22202   0.14828   0.00000  Uiso   1.00
H384   H     0.72831   0.18356   0.19137   0.00000  Uiso   1.00
H385   H     0.76277   0.19747   0.14577   0.00000  Uiso   1.00
H386   H     0.73614   0.12302   0.13638   0.00000  Uiso   1.00
H387   H     0.71433   0.15865   0.09293   0.00000  Uiso   1.00
H388   H     0.57712   0.03047   0.18332   0.00000  Uiso   1.00
H389   H     0.62696   0.00026   0.19296   0.00000  Uiso   1.00
H390   H     0.58506   0.49581   0.23256   0.00000  Uiso   1.00
H391   H     0.64481   0.04911   0.25458   0.00000  Uiso   1.00
H392   H     0.59229   0.07079   0.25677   0.00000  Uiso   1.00
N393   N     0.50000   0.25000   0.28573   0.00000  Uiso   1.00
N394   N     0.50000   0.25000   0.04760   0.00000  Uiso   1.00
N395   N     0.75000  -0.00000   0.28573   0.00000  Uiso   1.00
N396   N     0.75000  -0.00000   0.04760   0.00000  Uiso   1.00
O397   O     0.54580   0.20419   0.20487   0.00000  Uiso   1.00
O398   O     0.70419   0.04581   0.12846   0.00000  Uiso   1.00
O399   O     0.70419   0.04581   0.20487   0.00000  Uiso   1.00
O400   O     0.79580   0.45419   0.12846   0.00000  Uiso   1.00
O401   O     0.70419   0.45419   0.12846   0.00000  Uiso   1.00
O402   O     0.79580   0.04581   0.20487   0.00000  Uiso   1.00
O403   O     0.79580   0.04581   0.12846   0.00000  Uiso   1.00
O404   O     0.70419   0.45419   0.20487   0.00000  Uiso   1.00
O405   O     0.95419   0.29581   0.12846   0.00000  Uiso   1.00
O406   O     0.95419   0.29581   0.20487   0.00000  Uiso   1.00
O407   O     0.54580   0.20419   0.12846   0.00000  Uiso   1.00
O408   O     0.95419   0.20419   0.12846   0.00000  Uiso   1.00
O409   O     0.54580   0.29581   0.20487   0.00000  Uiso   1.00
O410   O     0.54580   0.29581   0.12846   0.00000  Uiso   1.00
O411   O     0.95419   0.20419   0.20487   0.00000  Uiso   1.00
O412   O     0.79580   0.45419   0.20487   0.00000  Uiso   1.00
Zn413  Zn    0.50000   0.25000   0.21771   0.00000  Uiso   1.00
Zn414  Zn    0.50000   0.25000   0.11563   0.00000  Uiso   1.00
Zn415  Zn    0.75000  -0.00000   0.21771   0.00000  Uiso   1.00
Zn416  Zn    0.75000  -0.00000   0.11563   0.00000  Uiso   1.00
C417   C     0.06287   0.69360   0.16712   0.00000  Uiso   1.00
C418   C     0.00237   0.70993   0.30997   0.00000  Uiso   1.00
C419   C     0.00131   0.70985   0.02434   0.00000  Uiso   1.00
C420   C     0.49748   0.79008   0.30912   0.00000  Uiso   1.00
C421   C     0.24766   0.53982   0.02337   0.00000  Uiso   1.00
C422   C     0.25165   0.95999   0.30996   0.00000  Uiso   1.00
C423   C     0.25093   0.95991   0.02428   0.00000  Uiso   1.00
C424   C     0.24556   0.53971   0.30928   0.00000  Uiso   1.00
C425   C     0.38286   0.65069   0.12542   0.00000  Uiso   1.00
C426   C     0.12035   0.85033   0.20393   0.00000  Uiso   1.00
C427   C     0.11241   0.85664   0.12311   0.00000  Uiso   1.00
C428   C     0.44075   0.81087   0.16708   0.00000  Uiso   1.00
C429   C     0.38493   0.64408   0.20658   0.00000  Uiso   1.00
C430   C     0.10884   0.64084   0.20876   0.00000  Uiso   1.00
C431   C     0.41288   0.88138   0.13449   0.00000  Uiso   1.00
C432   C     0.38872   0.85965   0.20825   0.00000  Uiso   1.00
C433   C     0.13450   0.66844   0.13734   0.00000  Uiso   1.00
C434   C     0.13380   0.89806   0.12513   0.00000  Uiso   1.00
C435   C     0.34616   0.62293   0.20292   0.00000  Uiso   1.00
C436   C     0.36108   0.60982   0.12468   0.00000  Uiso   1.00
C437   C     0.15834   0.87248   0.19796   0.00000  Uiso   1.00
C438   C     0.36831   0.90179   0.20905   0.00000  Uiso   1.00
C439   C     0.43893   0.69123   0.16676   0.00000  Uiso   1.00
C440   C     0.16848   0.63759   0.14298   0.00000  Uiso   1.00
C441   C     0.12918   0.59933   0.20239   0.00000  Uiso   1.00
C442   C     0.37530   0.90587   0.12828   0.00000  Uiso   1.00
C443   C     0.09838   0.83816   0.16460   0.00000  Uiso   1.00
C444   C     0.40208   0.66204   0.16649   0.00000  Uiso   1.00
C445   C     0.41228   0.84942   0.16925   0.00000  Uiso   1.00
C446   C     0.10227   0.66751   0.17013   0.00000  Uiso   1.00
C447   C     0.33949   0.59746   0.16437   0.00000  Uiso   1.00
C448   C     0.15923   0.90469   0.16364   0.00000  Uiso   1.00
C449   C     0.16082   0.59801   0.16886   0.00000  Uiso   1.00
C450   C     0.06140   0.80864   0.16631   0.00000  Uiso   1.00
C451   C     0.35252   0.91770   0.16763   0.00000  Uiso   1.00
C452   C     0.49480   0.83459   0.04677   0.00000  Uiso   1.00
C453   C     0.00691   0.66474   0.28709   0.00000  Uiso   1.00
C454   C     0.49994   0.66435   0.04831   0.00000  Uiso   1.00
C455   C     0.49355   0.83560   0.28549   0.00000  Uiso   1.00
C456   C     0.24609   0.58463   0.04635   0.00000  Uiso   1.00
C457   C     0.25109   0.91493   0.28693   0.00000  Uiso   1.00
C458   C     0.24858   0.91460   0.04802   0.00000  Uiso   1.00
C459   C     0.23294   0.58302   0.28578   0.00000  Uiso   1.00
C460   C     0.38033   0.68236   0.08487   0.00000  Uiso   1.00
C461   C     0.31256   0.94304   0.16674   0.00000  Uiso   1.00
C462   C     0.36125   0.72884   0.09668   0.00000  Uiso   1.00
C463   C     0.10206   0.84601   0.25042   0.00000  Uiso   1.00
C464   C     0.11981   0.87877   0.28485   0.00000  Uiso   1.00
C465   C     0.10918   0.83216   0.07838   0.00000  Uiso   1.00
C466   C     0.15183   0.82723   0.05491   0.00000  Uiso   1.00
C467   C     0.40971   0.64135   0.24997   0.00000  Uiso   1.00
C468   C     0.39408   0.60781   0.28558   0.00000  Uiso   1.00
C469   C     0.11559   0.66348   0.25381   0.00000  Uiso   1.00
C470   C     0.15885   0.68571   0.25607   0.00000  Uiso   1.00
C471   C     0.45429   0.90465   0.12360   0.00000  Uiso   1.00
C472   C     0.19014   0.56020   0.16696   0.00000  Uiso   1.00
C473   C     0.46226   0.94453   0.15452   0.00000  Uiso   1.00
C474   C     0.37980   0.82610   0.24590   0.00000  Uiso   1.00
C475   C     0.35503   0.78568   0.22945   0.00000  Uiso   1.00
C476   C     0.13415   0.70190   0.09859   0.00000  Uiso   1.00
C477   C     0.12282   0.67841   0.05529   0.00000  Uiso   1.00
C478   C     0.12893   0.93234   0.08664   0.00000  Uiso   1.00
C479   C     0.10910   0.97740   0.10116   0.00000  Uiso   1.00
C480   C     0.31019   0.63380   0.23442   0.00000  Uiso   1.00
C481   C     0.30870   0.68284   0.25022   0.00000  Uiso   1.00
C482   C     0.36588   0.57967   0.08389   0.00000  Uiso   1.00
C483   C     0.19014   0.94014   0.16615   0.00000  Uiso   1.00
C484   C     0.39023   0.53582   0.09517   0.00000  Uiso   1.00
C485   C     0.19892   0.84864   0.21293   0.00000  Uiso   1.00
C486   C     0.20602   0.80433   0.18794   0.00000  Uiso   1.00
C487   C     0.36742   0.92890   0.25210   0.00000  Uiso   1.00
C488   C     0.38482   0.97675   0.24609   0.00000  Uiso   1.00
C489   C     0.21311   0.65058   0.12896   0.00000  Uiso   1.00
C490   C     0.22942   0.69091   0.15521   0.00000  Uiso   1.00
C491   C     0.11781   0.55999   0.23349   0.00000  Uiso   1.00
C492   C     0.10067   0.51929   0.20871   0.00000  Uiso   1.00
C493   C     0.35699   0.91163   0.08184   0.00000  Uiso   1.00
C494   C     0.30929   0.56073   0.16611   0.00000  Uiso   1.00
C495   C     0.38040   0.88773   0.04391   0.00000  Uiso   1.00
C496   C     0.49809   0.78993   0.02339   0.00000  Uiso   1.00
H497   H     0.00057   0.83067   0.08180   0.00000  Uiso   1.00
H498   H     0.49747   0.83414   0.24961   0.00000  Uiso   1.00
H499   H     0.40889   0.90683   0.03394   0.00000  Uiso   1.00
H500   H     0.38866   0.85205   0.05317   0.00000  Uiso   1.00
H501   H     0.35923   0.88673   0.01450   0.00000  Uiso   1.00
H502   H     0.32588   0.89525   0.08331   0.00000  Uiso   1.00
H503   H     0.35304   0.94816   0.07311   0.00000  Uiso   1.00
H504   H     0.46258   0.85195   0.29307   0.00000  Uiso   1.00
H505   H     0.01835   0.85884   0.29690   0.00000  Uiso   1.00
H506   H     0.25068   0.58058   0.08148   0.00000  Uiso   1.00
H507   H     0.27220   0.60665   0.03476   0.00000  Uiso   1.00
H508   H     0.21493   0.60149   0.04040   0.00000  Uiso   1.00
H509   H     0.25171   0.91855   0.25129   0.00000  Uiso   1.00
H510   H     0.27893   0.89355   0.29619   0.00000  Uiso   1.00
H511   H     0.22175   0.89689   0.29586   0.00000  Uiso   1.00
H512   H     0.25091   0.91603   0.08401   0.00000  Uiso   1.00
H513   H     0.01880   0.85890   0.03511   0.00000  Uiso   1.00
H514   H     0.21817   0.89890   0.04023   0.00000  Uiso   1.00
H515   H     0.27397   0.89123   0.03654   0.00000  Uiso   1.00
H516   H     0.24412   0.58243   0.25190   0.00000  Uiso   1.00
H517   H     0.19812   0.58740   0.28692   0.00000  Uiso   1.00
H518   H     0.24716   0.61373   0.30006   0.00000  Uiso   1.00
H519   H     0.32906   0.72471   0.11088   0.00000  Uiso   1.00
H520   H     0.38105   0.74676   0.12112   0.00000  Uiso   1.00
H521   H     0.35881   0.75034   0.06620   0.00000  Uiso   1.00
H522   H     0.41132   0.68623   0.06829   0.00000  Uiso   1.00
H523   H     0.35907   0.66819   0.05921   0.00000  Uiso   1.00
H524   H     0.46289   0.84948   0.04164   0.00000  Uiso   1.00
H525   H     0.15162   0.86770   0.29595   0.00000  Uiso   1.00
H526   H     0.12105   0.91396   0.27115   0.00000  Uiso   1.00
H527   H     0.09886   0.87921   0.31451   0.00000  Uiso   1.00
H528   H     0.06864   0.85657   0.24759   0.00000  Uiso   1.00
H529   H     0.10478   0.81034   0.26275   0.00000  Uiso   1.00
H530   H     0.16088   0.86010   0.04026   0.00000  Uiso   1.00
H531   H     0.17664   0.81486   0.07836   0.00000  Uiso   1.00
H532   H     0.14937   0.80255   0.02727   0.00000  Uiso   1.00
H533   H     0.09888   0.79702   0.08150   0.00000  Uiso   1.00
H534   H     0.08624   0.84964   0.05624   0.00000  Uiso   1.00
H535   H     0.00253   0.66659   0.25128   0.00000  Uiso   1.00
H536   H     0.36818   0.62319   0.30559   0.00000  Uiso   1.00
H537   H     0.38371   0.57566   0.27034   0.00000  Uiso   1.00
H538   H     0.42013   0.59935   0.30910   0.00000  Uiso   1.00
H539   H     0.44149   0.62837   0.24047   0.00000  Uiso   1.00
H540   H     0.41195   0.67551   0.26519   0.00000  Uiso   1.00
H541   H     0.18440   0.66006   0.25093   0.00000  Uiso   1.00
H542   H     0.16121   0.71274   0.23026   0.00000  Uiso   1.00
H543   H     0.16323   0.70131   0.28922   0.00000  Uiso   1.00
H544   H     0.09188   0.69017   0.26142   0.00000  Uiso   1.00
H545   H     0.11376   0.63832   0.28145   0.00000  Uiso   1.00
H546   H     0.03833   0.64936   0.29429   0.00000  Uiso   1.00
H547   H     0.43600   0.96992   0.15250   0.00000  Uiso   1.00
H548   H     0.46551   0.93205   0.18935   0.00000  Uiso   1.00
H549   H     0.49212   0.96144   0.14477   0.00000  Uiso   1.00
H550   H     0.48140   0.88101   0.12838   0.00000  Uiso   1.00
H551   H     0.45465   0.91730   0.08883   0.00000  Uiso   1.00
H552   H     0.32651   0.79733   0.21069   0.00000  Uiso   1.00
H553   H     0.37484   0.76336   0.20806   0.00000  Uiso   1.00
H554   H     0.34467   0.76599   0.25894   0.00000  Uiso   1.00
H555   H     0.40869   0.81427   0.26326   0.00000  Uiso   1.00
H556   H     0.35975   0.84212   0.27198   0.00000  Uiso   1.00
H557   H     0.48302   0.64084   0.29966   0.00000  Uiso   1.00
H558   H     0.11741   0.70427   0.02866   0.00000  Uiso   1.00
H559   H     0.14890   0.65513   0.04486   0.00000  Uiso   1.00
H560   H     0.09370   0.65844   0.05975   0.00000  Uiso   1.00
H561   H     0.11165   0.72983   0.10483   0.00000  Uiso   1.00
H562   H     0.16488   0.71883   0.09406   0.00000  Uiso   1.00
H563   H     0.08125   0.97135   0.12291   0.00000  Uiso   1.00
H564   H     0.13260   0.99826   0.11850   0.00000  Uiso   1.00
H565   H     0.09839   0.99707   0.07142   0.00000  Uiso   1.00
H566   H     0.15918   0.93826   0.06917   0.00000  Uiso   1.00
H567   H     0.10750   0.91945   0.06072   0.00000  Uiso   1.00
H568   H     0.00110   0.66619   0.08430   0.00000  Uiso   1.00
H569   H     0.33568   0.68971   0.27251   0.00000  Uiso   1.00
H570   H     0.30894   0.70622   0.22102   0.00000  Uiso   1.00
H571   H     0.27901   0.68906   0.26919   0.00000  Uiso   1.00
H572   H     0.28029   0.62984   0.21582   0.00000  Uiso   1.00
H573   H     0.31133   0.61013   0.26316   0.00000  Uiso   1.00
H574   H     0.42171   0.54399   0.10919   0.00000  Uiso   1.00
H575   H     0.37279   0.51475   0.11962   0.00000  Uiso   1.00
H576   H     0.39521   0.51577   0.06443   0.00000  Uiso   1.00
H577   H     0.33514   0.57244   0.06814   0.00000  Uiso   1.00
H578   H     0.38479   0.59676   0.05764   0.00000  Uiso   1.00
H579   H     0.47017   0.64678   0.04009   0.00000  Uiso   1.00
H580   H     0.17906   0.78120   0.19341   0.00000  Uiso   1.00
H581   H     0.20945   0.81133   0.15177   0.00000  Uiso   1.00
H582   H     0.23543   0.78721   0.20011   0.00000  Uiso   1.00
H583   H     0.22688   0.86959   0.20574   0.00000  Uiso   1.00
H584   H     0.19818   0.84060   0.24889   0.00000  Uiso   1.00
H585   H     0.41876   0.97505   0.23678   0.00000  Uiso   1.00
H586   H     0.36721   0.99631   0.22024   0.00000  Uiso   1.00
H587   H     0.38196   0.99506   0.27810   0.00000  Uiso   1.00
H588   H     0.33548   0.93054   0.26682   0.00000  Uiso   1.00
H589   H     0.38800   0.91205   0.27744   0.00000  Uiso   1.00
H590   H     0.02696   0.64234   0.03823   0.00000  Uiso   1.00
H591   H     0.21059   0.72202   0.14828   0.00000  Uiso   1.00
H592   H     0.22831   0.68356   0.19137   0.00000  Uiso   1.00
H593   H     0.26277   0.69747   0.14577   0.00000  Uiso   1.00
H594   H     0.23614   0.62302   0.13638   0.00000  Uiso   1.00
H595   H     0.21433   0.65865   0.09293   0.00000  Uiso   1.00
H596   H     0.07712   0.53047   0.18332   0.00000  Uiso   1.00
H597   H     0.12696   0.50026   0.19296   0.00000  Uiso   1.00
H598   H     0.08506   0.99581   0.23256   0.00000  Uiso   1.00
H599   H     0.14481   0.54911   0.25458   0.00000  Uiso   1.00
H600   H     0.09229   0.57079   0.25677   0.00000  Uiso   1.00
N601   N    -0.00000   0.75000   0.28573   0.00000  Uiso   1.00
N602   N     0.00000   0.75000   0.04760   0.00000  Uiso   1.00
N603   N     0.25000   0.50000   0.28573   0.00000  Uiso   1.00
N604   N     0.25000   0.50000   0.04760   0.00000  Uiso   1.00
O605   O     0.04580   0.70419   0.20487   0.00000  Uiso   1.00
O606   O     0.20419   0.54581   0.12846   0.00000  Uiso   1.00
O607   O     0.20419   0.54581   0.20487   0.00000  Uiso   1.00
O608   O     0.29580   0.95419   0.12846   0.00000  Uiso   1.00
O609   O     0.20419   0.95419   0.12846   0.00000  Uiso   1.00
O610   O     0.29580   0.54581   0.20487   0.00000  Uiso   1.00
O611   O     0.29580   0.54581   0.12846   0.00000  Uiso   1.00
O612   O     0.20419   0.95419   0.20487   0.00000  Uiso   1.00
O613   O     0.45419   0.79581   0.12846   0.00000  Uiso   1.00
O614   O     0.45419   0.79581   0.20487   0.00000  Uiso   1.00
O615   O     0.04580   0.70419   0.12846   0.00000  Uiso   1.00
O616   O     0.45419   0.70419   0.12846   0.00000  Uiso   1.00
O617   O     0.04580   0.79581   0.20487   0.00000  Uiso   1.00
O618   O     0.04580   0.79581   0.12846   0.00000  Uiso   1.00
O619   O     0.45419   0.70419   0.20487   0.00000  Uiso   1.00
O620   O     0.29580   0.95419   0.20487   0.00000  Uiso   1.00
Zn621  Zn    0.00000   0.75000   0.21771   0.00000  Uiso   1.00
Zn622  Zn    0.00000   0.75000   0.11563   0.00000  Uiso   1.00
Zn623  Zn    0.25000   0.50000   0.21771   0.00000  Uiso   1.00
Zn624  Zn    0.25000   0.50000   0.11563   0.00000  Uiso   1.00
C625   C     0.56287   0.69360   0.16712   0.00000  Uiso   1.00
C626   C     0.50237   0.70993   0.30997   0.00000  Uiso   1.00
C627   C     0.50131   0.70985   0.02434   0.00000  Uiso   1.00
C628   C     0.99748   0.79008   0.30912   0.00000  Uiso   1.00
C629   C     0.74766   0.53982   0.02337   0.00000  Uiso   1.00
C630   C     0.75165   0.95999   0.30996   0.00000  Uiso   1.00
C631   C     0.75093   0.95991   0.02428   0.00000  Uiso   1.00
C632   C     0.74556   0.53971   0.30928   0.00000  Uiso   1.00
C633   C     0.88286   0.65069   0.12542   0.00000  Uiso   1.00
C634   C     0.62035   0.85033   0.20393   0.00000  Uiso   1.00
C635   C     0.61241   0.85664   0.12311   0.00000  Uiso   1.00
C636   C     0.94075   0.81087   0.16708   0.00000  Uiso   1.00
C637   C     0.88493   0.64408   0.20658   0.00000  Uiso   1.00
C638   C     0.60884   0.64084   0.20876   0.00000  Uiso   1.00
C639   C     0.91288   0.88138   0.13449   0.00000  Uiso   1.00
C640   C     0.88872   0.85965   0.20825   0.00000  Uiso   1.00
C641   C     0.63450   0.66844   0.13734   0.00000  Uiso   1.00
C642   C     0.63380   0.89806   0.12513   0.00000  Uiso   1.00
C643   C     0.84616   0.62293   0.20292   0.00000  Uiso   1.00
C644   C     0.86108   0.60982   0.12468   0.00000  Uiso   1.00
C645   C     0.65834   0.87248   0.19796   0.00000  Uiso   1.00
C646   C     0.86831   0.90179   0.20905   0.00000  Uiso   1.00
C647   C     0.93893   0.69123   0.16676   0.00000  Uiso   1.00
C648   C     0.66848   0.63759   0.14298   0.00000  Uiso   1.00
C649   C     0.62918   0.59933   0.20239   0.00000  Uiso   1.00
C650   C     0.87530   0.90587   0.12828   0.00000  Uiso   1.00
C651   C     0.59838   0.83816   0.16460   0.00000  Uiso   1.00
C652   C     0.90208   0.66204   0.16649   0.00000  Uiso   1.00
C653   C     0.91228   0.84942   0.16925   0.00000  Uiso   1.00
C654   C     0.60227   0.66751   0.17013   0.00000  Uiso   1.00
C655   C     0.83949   0.59746   0.16437   0.00000  Uiso   1.00
C656   C     0.65923   0.90469   0.16364   0.00000  Uiso   1.00
C657   C     0.66082   0.59801   0.16886   0.00000  Uiso   1.00
C658   C     0.56140   0.80864   0.16631   0.00000  Uiso   1.00
C659   C     0.85252   0.91770   0.16763   0.00000  Uiso   1.00
C660   C     0.99480   0.83459   0.04677   0.00000  Uiso   1.00
C661   C     0.50691   0.66474   0.28709   0.00000  Uiso   1.00
C662   C     0.99994   0.66435   0.04831   0.00000  Uiso   1.00
C663   C     0.99355   0.83560   0.28549   0.00000  Uiso   1.00
C664   C     0.74609   0.58463   0.04635   0.00000  Uiso   1.00
C665   C     0.75109   0.91493   0.28693   0.00000  Uiso   1.00
C666   C     0.74858   0.91460   0.04802   0.00000  Uiso   1.00
C667   C     0.73294   0.58302   0.28578   0.00000  Uiso   1.00
C668   C     0.88033   0.68236   0.08487   0.00000  Uiso   1.00
C669   C     0.81256   0.94304   0.16674   0.00000  Uiso   1.00
C670   C     0.86125   0.72884   0.09668   0.00000  Uiso   1.00
C671   C     0.60206   0.84601   0.25042   0.00000  Uiso   1.00
C672   C     0.61981   0.87877   0.28485   0.00000  Uiso   1.00
C673   C     0.60918   0.83216   0.07838   0.00000  Uiso   1.00
C674   C     0.65183   0.82723   0.05491   0.00000  Uiso   1.00
C675   C     0.90971   0.64135   0.24997   0.00000  Uiso   1.00
C676   C     0.89408   0.60781   0.28558   0.00000  Uiso   1.00
C677   C     0.61559   0.66348   0.25381   0.00000  Uiso   1.00
C678   C     0.65885   0.68571   0.25607   0.00000  Uiso   1.00
C679   C     0.95429   0.90465   0.12360   0.00000  Uiso   1.00
C680   C     0.69014   0.56020   0.16696   0.00000  Uiso   1.00
C681   C     0.96226   0.94453   0.15452   0.00000  Uiso   1.00
C682   C     0.87980   0.82610   0.24590   0.00000  Uiso   1.00
C683   C     0.85503   0.78568   0.22945   0.00000  Uiso   1.00
C684   C     0.63415   0.70190   0.09859   0.00000  Uiso   1.00
C685   C     0.62282   0.67841   0.05529   0.00000  Uiso   1.00
C686   C     0.62893   0.93234   0.08664   0.00000  Uiso   1.00
C687   C     0.60910   0.97740   0.10116   0.00000  Uiso   1.00
C688   C     0.81019   0.63380   0.23442   0.00000  Uiso   1.00
C689   C     0.80870   0.68284   0.25022   0.00000  Uiso   1.00
C690   C     0.86588   0.57967   0.08389   0.00000  Uiso   1.00
C691   C     0.69014   0.94014   0.16615   0.00000  Uiso   1.00
C692   C     0.89023   0.53582   0.09517   0.00000  Uiso   1.00
C693   C     0.69892   0.84864   0.21293   0.00000  Uiso   1.00
C694   C     0.70602   0.80433   0.18794   0.00000  Uiso   1.00
C695   C     0.86742   0.92890   0.25210   0.00000  Uiso   1.00
C696   C     0.88482   0.97675   0.24609   0.00000  Uiso   1.00
C697   C     0.71311   0.65058   0.12896   0.00000  Uiso   1.00
C698   C     0.72942   0.69091   0.15521   0.00000  Uiso   1.00
C699   C     0.61781   0.55999   0.23349   0.00000  Uiso   1.00
C700   C     0.60067   0.51929   0.20871   0.00000  Uiso   1.00
C701   C     0.85699   0.91163   0.08184   0.00000  Uiso   1.00
C702   C     0.80929   0.56073   0.16611   0.00000  Uiso   1.00
C703   C     0.88040   0.88773   0.04391   0.00000  Uiso   1.00
C704   C     0.99809   0.78993   0.02339   0.00000  Uiso   1.00
H705   H     0.50057   0.83067   0.08180   0.00000  Uiso   1.00
H706   H     0.99747   0.83414   0.24961   0.00000  Uiso   1.00
H707   H     0.90889   0.90683   0.03394   0.00000  Uiso   1.00
H708   H     0.88866   0.85205   0.05317   0.00000  Uiso   1.00
H709   H     0.85923   0.88673   0.01450   0.00000  Uiso   1.00
H710   H     0.82588   0.89525   0.08331   0.00000  Uiso   1.00
H711   H     0.85304   0.94816   0.07311   0.00000  Uiso   1.00
H712   H     0.96258   0.85195   0.29307   0.00000  Uiso   1.00
H713   H     0.51835   0.85884   0.29690   0.00000  Uiso   1.00
H714   H     0.75068   0.58058   0.08148   0.00000  Uiso   1.00
H715   H     0.77220   0.60665   0.03476   0.00000  Uiso   1.00
H716   H     0.71493   0.60149   0.04040   0.00000  Uiso   1.00
H717   H     0.75171   0.91855   0.25129   0.00000  Uiso   1.00
H718   H     0.77893   0.89355   0.29619   0.00000  Uiso   1.00
H719   H     0.72175   0.89689   0.29586   0.00000  Uiso   1.00
H720   H     0.75091   0.91603   0.08401   0.00000  Uiso   1.00
H721   H     0.51880   0.85890   0.03511   0.00000  Uiso   1.00
H722   H     0.71817   0.89890   0.04023   0.00000  Uiso   1.00
H723   H     0.77397   0.89123   0.03654   0.00000  Uiso   1.00
H724   H     0.74412   0.58243   0.25190   0.00000  Uiso   1.00
H725   H     0.69812   0.58740   0.28692   0.00000  Uiso   1.00
H726   H     0.74716   0.61373   0.30006   0.00000  Uiso   1.00
H727   H     0.82906   0.72471   0.11088   0.00000  Uiso   1.00
H728   H     0.88105   0.74676   0.12112   0.00000  Uiso   1.00
H729   H     0.85881   0.75034   0.06620   0.00000  Uiso   1.00
H730   H     0.91132   0.68623   0.06829   0.00000  Uiso   1.00
H731   H     0.85907   0.66819   0.05921   0.00000  Uiso   1.00
H732   H     0.96289   0.84948   0.04164   0.00000  Uiso   1.00
H733   H     0.65162   0.86770   0.29595   0.00000  Uiso   1.00
H734   H     0.62105   0.91396   0.27115   0.00000  Uiso   1.00
H735   H     0.59886   0.87921   0.31451   0.00000  Uiso   1.00
H736   H     0.56864   0.85657   0.24759   0.00000  Uiso   1.00
H737   H     0.60478   0.81034   0.26275   0.00000  Uiso   1.00
H738   H     0.66088   0.86010   0.04026   0.00000  Uiso   1.00
H739   H     0.67664   0.81486   0.07836   0.00000  Uiso   1.00
H740   H     0.64937   0.80255   0.02727   0.00000  Uiso   1.00
H741   H     0.59888   0.79702   0.08150   0.00000  Uiso   1.00
H742   H     0.58624   0.84964   0.05624   0.00000  Uiso   1.00
H743   H     0.50253   0.66659   0.25128   0.00000  Uiso   1.00
H744   H     0.86818   0.62319   0.30559   0.00000  Uiso   1.00
H745   H     0.88371   0.57566   0.27034   0.00000  Uiso   1.00
H746   H     0.92013   0.59935   0.30910   0.00000  Uiso   1.00
H747   H     0.94149   0.62837   0.24047   0.00000  Uiso   1.00
H748   H     0.91195   0.67551   0.26519   0.00000  Uiso   1.00
H749   H     0.68440   0.66006   0.25093   0.00000  Uiso   1.00
H750   H     0.66121   0.71274   0.23026   0.00000  Uiso   1.00
H751   H     0.66323   0.70131   0.28922   0.00000  Uiso   1.00
H752   H     0.59188   0.69017   0.26142   0.00000  Uiso   1.00
H753   H     0.61376   0.63832   0.28145   0.00000  Uiso   1.00
H754   H     0.53833   0.64936   0.29429   0.00000  Uiso   1.00
H755   H     0.93600   0.96992   0.15250   0.00000  Uiso   1.00
H756   H     0.96551   0.93205   0.18935   0.00000  Uiso   1.00
H757   H     0.99212   0.96144   0.14477   0.00000  Uiso   1.00
H758   H     0.98140   0.88101   0.12838   0.00000  Uiso   1.00
H759   H     0.95465   0.91730   0.08883   0.00000  Uiso   1.00
H760   H     0.82651   0.79733   0.21069   0.00000  Uiso   1.00
H761   H     0.87484   0.76336   0.20806   0.00000  Uiso   1.00
H762   H     0.84467   0.76599   0.25894   0.00000  Uiso   1.00
H763   H     0.90869   0.81427   0.26326   0.00000  Uiso   1.00
H764   H     0.85975   0.84212   0.27198   0.00000  Uiso   1.00
H765   H     0.98302   0.64084   0.29966   0.00000  Uiso   1.00
H766   H     0.61741   0.70427   0.02866   0.00000  Uiso   1.00
H767   H     0.64890   0.65513   0.04486   0.00000  Uiso   1.00
H768   H     0.59370   0.65844   0.05975   0.00000  Uiso   1.00
H769   H     0.61165   0.72983   0.10483   0.00000  Uiso   1.00
H770   H     0.66488   0.71883   0.09406   0.00000  Uiso   1.00
H771   H     0.58125   0.97135   0.12291   0.00000  Uiso   1.00
H772   H     0.63260   0.99826   0.11850   0.00000  Uiso   1.00
H773   H     0.59839   0.99707   0.07142   0.00000  Uiso   1.00
H774   H     0.65918   0.93826   0.06917   0.00000  Uiso   1.00
H775   H     0.60750   0.91945   0.06072   0.00000  Uiso   1.00
H776   H     0.50110   0.66619   0.08430   0.00000  Uiso   1.00
H777   H     0.83568   0.68971   0.27251   0.00000  Uiso   1.00
H778   H     0.80894   0.70622   0.22102   0.00000  Uiso   1.00
H779   H     0.77901   0.68906   0.26919   0.00000  Uiso   1.00
H780   H     0.78029   0.62984   0.21582   0.00000  Uiso   1.00
H781   H     0.81133   0.61013   0.26316   0.00000  Uiso   1.00
H782   H     0.92171   0.54399   0.10919   0.00000  Uiso   1.00
H783   H     0.87279   0.51475   0.11962   0.00000  Uiso   1.00
H784   H     0.89521   0.51577   0.06443   0.00000  Uiso   1.00
H785   H     0.83514   0.57244   0.06814   0.00000  Uiso   1.00
H786   H     0.88479   0.59676   0.05764   0.00000  Uiso   1.00
H787   H     0.97017   0.64678   0.04009   0.00000  Uiso   1.00
H788   H     0.67906   0.78120   0.19341   0.00000  Uiso   1.00
H789   H     0.70945   0.81133   0.15177   0.00000  Uiso   1.00
H790   H     0.73543   0.78721   0.20011   0.00000  Uiso   1.00
H791   H     0.72688   0.86959   0.20574   0.00000  Uiso   1.00
H792   H     0.69818   0.84060   0.24889   0.00000  Uiso   1.00
H793   H     0.91876   0.97505   0.23678   0.00000  Uiso   1.00
H794   H     0.86721   0.99631   0.22024   0.00000  Uiso   1.00
H795   H     0.88196   0.99506   0.27810   0.00000  Uiso   1.00
H796   H     0.83548   0.93054   0.26682   0.00000  Uiso   1.00
H797   H     0.88800   0.91205   0.27744   0.00000  Uiso   1.00
H798   H     0.52696   0.64234   0.03823   0.00000  Uiso   1.00
H799   H     0.71059   0.72202   0.14828   0.00000  Uiso   1.00
H800   H     0.72831   0.68356   0.19137   0.00000  Uiso   1.00
H801   H     0.76277   0.69747   0.14577   0.00000  Uiso   1.00
H802   H     0.73614   0.62302   0.13638   0.00000  Uiso   1.00
H803   H     0.71433   0.65865   0.09293   0.00000  Uiso   1.00
H804   H     0.57712   0.53047   0.18332   0.00000  Uiso   1.00
H805   H     0.62696   0.50026   0.19296   0.00000  Uiso   1.00
H806   H     0.58506   0.99581   0.23256   0.00000  Uiso   1.00
H807   H     0.64481   0.54911   0.25458   0.00000  Uiso   1.00
H808   H     0.59229   0.57079   0.25677   0.00000  Uiso   1.00
N809   N     0.50000   0.75000   0.28573   0.00000  Uiso   1.00
N810   N     0.50000   0.75000   0.04760   0.00000  Uiso   1.00
N811   N     0.75000   0.50000   0.28573   0.00000  Uiso   1.00
N812   N     0.75000   0.50000   0.04760   0.00000  Uiso   1.00
O813   O     0.54580   0.70419   0.20487   0.00000  Uiso   1.00
O814   O     0.70419   0.54581   0.12846   0.00000  Uiso   1.00
O815   O     0.70419   0.54581   0.20487   0.00000  Uiso   1.00
O816   O     0.79580   0.95419   0.12846   0.00000  Uiso   1.00
O817   O     0.70419   0.95419   0.12846   0.00000  Uiso   1.00
O818   O     0.79580   0.54581   0.20487   0.00000  Uiso   1.00
O819   O     0.79580   0.54581   0.12846   0.00000  Uiso   1.00
O820   O     0.70419   0.95419   0.20487   0.00000  Uiso   1.00
O821   O     0.95419   0.79581   0.12846   0.00000  Uiso   1.00
O822   O     0.95419   0.79581   0.20487   0.00000  Uiso   1.00
O823   O     0.54580   0.70419   0.12846   0.00000  Uiso   1.00
O824   O     0.95419   0.70419   0.12846   0.00000  Uiso   1.00
O825   O     0.54580   0.79581   0.20487   0.00000  Uiso   1.00
O826   O     0.54580   0.79581   0.12846   0.00000  Uiso   1.00
O827   O     0.95419   0.70419   0.20487   0.00000  Uiso   1.00
O828   O     0.79580   0.95419   0.20487   0.00000  Uiso   1.00
Zn829  Zn    0.50000   0.75000   0.21771   0.00000  Uiso   1.00
Zn830  Zn    0.50000   0.75000   0.11563   0.00000  Uiso   1.00
Zn831  Zn    0.75000   0.50000   0.21771   0.00000  Uiso   1.00
Zn832  Zn    0.75000   0.50000   0.11563   0.00000  Uiso   1.00
C833   C     0.06287   0.19360   0.50046   0.00000  Uiso   1.00
C834   C     0.00237   0.20993   0.64330   0.00000  Uiso   1.00
C835   C     0.00131   0.20985   0.35767   0.00000  Uiso   1.00
C836   C     0.49748   0.29008   0.64245   0.00000  Uiso   1.00
C837   C     0.24766   0.03982   0.35670   0.00000  Uiso   1.00
C838   C     0.25165   0.45999   0.64329   0.00000  Uiso   1.00
C839   C     0.25093   0.45991   0.35762   0.00000  Uiso   1.00
C840   C     0.24556   0.03971   0.64261   0.00000  Uiso   1.00
C841   C     0.38286   0.15069   0.45876   0.00000  Uiso   1.00
C842   C     0.12035   0.35033   0.53726   0.00000  Uiso   1.00
C843   C     0.11241   0.35664   0.45644   0.00000  Uiso   1.00
C844   C     0.44075   0.31087   0.50041   0.00000  Uiso   1.00
C845   C     0.38493   0.14408   0.53992   0.00000  Uiso   1.00
C846   C     0.10884   0.14084   0.54209   0.00000  Uiso   1.00
C847   C     0.41288   0.38138   0.46783   0.00000  Uiso   1.00
C848   C     0.38872   0.35965   0.54158   0.00000  Uiso   1.00
C849   C     0.13450   0.16844   0.47067   0.00000  Uiso   1.00
C850   C     0.13380   0.39806   0.45846   0.00000  Uiso   1.00
C851   C     0.34616   0.12293   0.53625   0.00000  Uiso   1.00
C852   C     0.36108   0.10982   0.45801   0.00000  Uiso   1.00
C853   C     0.15834   0.37248   0.53129   0.00000  Uiso   1.00
C854   C     0.36831   0.40179   0.54239   0.00000  Uiso   1.00
C855   C     0.43893   0.19123   0.50009   0.00000  Uiso   1.00
C856   C     0.16848   0.13759   0.47632   0.00000  Uiso   1.00
C857   C     0.12918   0.09933   0.53572   0.00000  Uiso   1.00
C858   C     0.37530   0.40587   0.46161   0.00000  Uiso   1.00
C859   C     0.09838   0.33816   0.49794   0.00000  Uiso   1.00
C860   C     0.40208   0.16204   0.49982   0.00000  Uiso   1.00
C861   C     0.41228   0.34942   0.50258   0.00000  Uiso   1.00
C862   C     0.10227   0.16751   0.50346   0.00000  Uiso   1.00
C863   C     0.33949   0.09746   0.49770   0.00000  Uiso   1.00
C864   C     0.15923   0.40469   0.49697   0.00000  Uiso   1.00
C865   C     0.16082   0.09801   0.50219   0.00000  Uiso   1.00
C866   C     0.06140   0.30864   0.49964   0.00000  Uiso   1.00
C867   C     0.35252   0.41770   0.50096   0.00000  Uiso   1.00
C868   C     0.49480   0.33459   0.38010   0.00000  Uiso   1.00
C869   C     0.00691   0.16474   0.62043   0.00000  Uiso   1.00
C870   C     0.49994   0.16435   0.38165   0.00000  Uiso   1.00
C871   C     0.49355   0.33560   0.61882   0.00000  Uiso   1.00
C872   C     0.24609   0.08463   0.37968   0.00000  Uiso   1.00
C873   C     0.25109   0.41493   0.62026   0.00000  Uiso   1.00
C874   C     0.24858   0.41460   0.38135   0.00000  Uiso   1.00
C875   C     0.23294   0.08302   0.61911   0.00000  Uiso   1.00
C876   C     0.38033   0.18236   0.41820   0.00000  Uiso   1.00
C877   C     0.31256   0.44304   0.50007   0.00000  Uiso   1.00
C878   C     0.36125   0.22884   0.43002   0.00000  Uiso   1.00
C879   C     0.10206   0.34601   0.58376   0.00000  Uiso   1.00
C880   C     0.11981   0.37877   0.61818   0.00000  Uiso   1.00
C881   C     0.10918   0.33216   0.41172   0.00000  Uiso   1.00
C882   C     0.15183   0.32723   0.38825   0.00000  Uiso   1.00
C883   C     0.40971   0.14135   0.58331   0.00000  Uiso   1.00
C884   C     0.39408   0.10781   0.61891   0.00000  Uiso   1.00
C885   C     0.11559   0.16348   0.58714   0.00000  Uiso   1.00
C886   C     0.15885   0.18571   0.58940   0.00000  Uiso   1.00
C887   C     0.45429   0.40465   0.45693   0.00000  Uiso   1.00
C888   C     0.19014   0.06020   0.50029   0.00000  Uiso   1.00
C889   C     0.46226   0.44453   0.48785   0.00000  Uiso   1.00
C890   C     0.37980   0.32610   0.57924   0.00000  Uiso   1.00
C891   C     0.35503   0.28568   0.56278   0.00000  Uiso   1.00
C892   C     0.13415   0.20190   0.43192   0.00000  Uiso   1.00
C893   C     0.12282   0.17841   0.38863   0.00000  Uiso   1.00
C894   C     0.12893   0.43234   0.41997   0.00000  Uiso   1.00
C895   C     0.10910   0.47740   0.43450   0.00000  Uiso   1.00
C896   C     0.31019   0.13380   0.56775   0.00000  Uiso   1.00
C897   C     0.30870   0.18284   0.58355   0.00000  Uiso   1.00
C898   C     0.36588   0.07967   0.41723   0.00000  Uiso   1.00
C899   C     0.19014   0.44014   0.49948   0.00000  Uiso   1.00
C900   C     0.39023   0.03582   0.42850   0.00000  Uiso   1.00
C901   C     0.19892   0.34864   0.54626   0.00000  Uiso   1.00
C902   C     0.20602   0.30433   0.52127   0.00000  Uiso   1.00
C903   C     0.36742   0.42890   0.58544   0.00000  Uiso   1.00
C904   C     0.38482   0.47675   0.57942   0.00000  Uiso   1.00
C905   C     0.21311   0.15058   0.46229   0.00000  Uiso   1.00
C906   C     0.22942   0.19091   0.48854   0.00000  Uiso   1.00
C907   C     0.11781   0.05999   0.56682   0.00000  Uiso   1.00
C908   C     0.10067   0.01929   0.54204   0.00000  Uiso   1.00
C909   C     0.35699   0.41163   0.41517   0.00000  Uiso   1.00
C910   C     0.30929   0.06073   0.49944   0.00000  Uiso   1.00
C911   C     0.38040   0.38773   0.37724   0.00000  Uiso   1.00
C912   C     0.49809   0.28993   0.35672   0.00000  Uiso   1.00
H913   H     0.00057   0.33067   0.41513   0.00000  Uiso   1.00
H914   H     0.49747   0.33414   0.58295   0.00000  Uiso   1.00
H915   H     0.40889   0.40683   0.36727   0.00000  Uiso   1.00
H916   H     0.38866   0.35205   0.38651   0.00000  Uiso   1.00
H917   H     0.35923   0.38673   0.34784   0.00000  Uiso   1.00
H918   H     0.32588   0.39525   0.41664   0.00000  Uiso   1.00
H919   H     0.35304   0.44816   0.40645   0.00000  Uiso   1.00
H920   H     0.46258   0.35195   0.62640   0.00000  Uiso   1.00
H921   H     0.01835   0.35884   0.63023   0.00000  Uiso   1.00
H922   H     0.25068   0.08058   0.41482   0.00000  Uiso   1.00
H923   H     0.27220   0.10665   0.36810   0.00000  Uiso   1.00
H924   H     0.21493   0.10149   0.37373   0.00000  Uiso   1.00
H925   H     0.25171   0.41855   0.58462   0.00000  Uiso   1.00
H926   H     0.27893   0.39355   0.62952   0.00000  Uiso   1.00
H927   H     0.22175   0.39689   0.62920   0.00000  Uiso   1.00
H928   H     0.25091   0.41603   0.41734   0.00000  Uiso   1.00
H929   H     0.01880   0.35890   0.36844   0.00000  Uiso   1.00
H930   H     0.21817   0.39890   0.37356   0.00000  Uiso   1.00
H931   H     0.27397   0.39123   0.36988   0.00000  Uiso   1.00
H932   H     0.24412   0.08243   0.58523   0.00000  Uiso   1.00
H933   H     0.19812   0.08740   0.62025   0.00000  Uiso   1.00
H934   H     0.24716   0.11373   0.63339   0.00000  Uiso   1.00
H935   H     0.32906   0.22471   0.44421   0.00000  Uiso   1.00
H936   H     0.38105   0.24676   0.45445   0.00000  Uiso   1.00
H937   H     0.35881   0.25034   0.39953   0.00000  Uiso   1.00
H938   H     0.41132   0.18623   0.40163   0.00000  Uiso   1.00
H939   H     0.35907   0.16819   0.39254   0.00000  Uiso   1.00
H940   H     0.46289   0.34948   0.37498   0.00000  Uiso   1.00
H941   H     0.15162   0.36770   0.62929   0.00000  Uiso   1.00
H942   H     0.12105   0.41396   0.60449   0.00000  Uiso   1.00
H943   H     0.09886   0.37921   0.64784   0.00000  Uiso   1.00
H944   H     0.06864   0.35657   0.58093   0.00000  Uiso   1.00
H945   H     0.10478   0.31034   0.59608   0.00000  Uiso   1.00
H946   H     0.16088   0.36010   0.37359   0.00000  Uiso   1.00
H947   H     0.17664   0.31486   0.41169   0.00000  Uiso   1.00
H948   H     0.14937   0.30255   0.36061   0.00000  Uiso   1.00
H949   H     0.09888   0.29702   0.41483   0.00000  Uiso   1.00
H950   H     0.08624   0.34964   0.38958   0.00000  Uiso   1.00
H951   H     0.00253   0.16659   0.58461   0.00000  Uiso   1.00
H952   H     0.36818   0.12319   0.63893   0.00000  Uiso   1.00
H953   H     0.38371   0.07566   0.60368   0.00000  Uiso   1.00
H954   H     0.42013   0.09935   0.64243   0.00000  Uiso   1.00
H955   H     0.44149   0.12837   0.57380   0.00000  Uiso   1.00
H956   H     0.41195   0.17551   0.59853   0.00000  Uiso   1.00
H957   H     0.18440   0.16006   0.58426   0.00000  Uiso   1.00
H958   H     0.16121   0.21274   0.56359   0.00000  Uiso   1.00
H959   H     0.16323   0.20131   0.62255   0.00000  Uiso   1.00
H960   H     0.09188   0.19017   0.59475   0.00000  Uiso   1.00
H961   H     0.11376   0.13832   0.61478   0.00000  Uiso   1.00
H962   H     0.03833   0.14936   0.62762   0.00000  Uiso   1.00
H963   H     0.43600   0.46992   0.48583   0.00000  Uiso   1.00
H964   H     0.46551   0.43205   0.52268   0.00000  Uiso   1.00
H965   H     0.49212   0.46144   0.47811   0.00000  Uiso   1.00
H966   H     0.48140   0.38101   0.46171   0.00000  Uiso   1.00
H967   H     0.45465   0.41730   0.42216   0.00000  Uiso   1.00
H968   H     0.32651   0.29733   0.54403   0.00000  Uiso   1.00
H969   H     0.37484   0.26336   0.54139   0.00000  Uiso   1.00
H970   H     0.34467   0.26599   0.59227   0.00000  Uiso   1.00
H971   H     0.40869   0.31427   0.59659   0.00000  Uiso   1.00
H972   H     0.35975   0.34212   0.60531   0.00000  Uiso   1.00
H973   H     0.48302   0.14084   0.63300   0.00000  Uiso   1.00
H974   H     0.11741   0.20427   0.36199   0.00000  Uiso   1.00
H975   H     0.14890   0.15513   0.37819   0.00000  Uiso   1.00
H976   H     0.09370   0.15844   0.39309   0.00000  Uiso   1.00
H977   H     0.11165   0.22983   0.43816   0.00000  Uiso   1.00
H978   H     0.16488   0.21883   0.42739   0.00000  Uiso   1.00
H979   H     0.08125   0.47135   0.45624   0.00000  Uiso   1.00
H980   H     0.13260   0.49826   0.45184   0.00000  Uiso   1.00
H981   H     0.09839   0.49707   0.40475   0.00000  Uiso   1.00
H982   H     0.15918   0.43826   0.40250   0.00000  Uiso   1.00
H983   H     0.10750   0.41945   0.39406   0.00000  Uiso   1.00
H984   H     0.00110   0.16619   0.41764   0.00000  Uiso   1.00
H985   H     0.33568   0.18971   0.60584   0.00000  Uiso   1.00
H986   H     0.30894   0.20622   0.55435   0.00000  Uiso   1.00
H987   H     0.27901   0.18906   0.60253   0.00000  Uiso   1.00
H988   H     0.28029   0.12984   0.54915   0.00000  Uiso   1.00
H989   H     0.31133   0.11013   0.59649   0.00000  Uiso   1.00
H990   H     0.42171   0.04399   0.44252   0.00000  Uiso   1.00
H991   H     0.37279   0.01475   0.45296   0.00000  Uiso   1.00
H992   H     0.39521   0.01577   0.39777   0.00000  Uiso   1.00
H993   H     0.33514   0.07244   0.40148   0.00000  Uiso   1.00
H994   H     0.38479   0.09676   0.39097   0.00000  Uiso   1.00
H995   H     0.47017   0.14678   0.37342   0.00000  Uiso   1.00
H996   H     0.17906   0.28120   0.52674   0.00000  Uiso   1.00
H997   H     0.20945   0.31133   0.48510   0.00000  Uiso   1.00
H998   H     0.23543   0.28721   0.53345   0.00000  Uiso   1.00
H999   H     0.22688   0.36959   0.53908   0.00000  Uiso   1.00
H1000  H     0.19818   0.34060   0.58223   0.00000  Uiso   1.00
H1001  H     0.41876   0.47505   0.57012   0.00000  Uiso   1.00
H1002  H     0.36721   0.49631   0.55357   0.00000  Uiso   1.00
H1003  H     0.38196   0.49506   0.61144   0.00000  Uiso   1.00
H1004  H     0.33548   0.43054   0.60015   0.00000  Uiso   1.00
H1005  H     0.38800   0.41205   0.61078   0.00000  Uiso   1.00
H1006  H     0.02696   0.14234   0.37157   0.00000  Uiso   1.00
H1007  H     0.21059   0.22202   0.48162   0.00000  Uiso   1.00
H1008  H     0.22831   0.18356   0.52470   0.00000  Uiso   1.00
H1009  H     0.26277   0.19747   0.47910   0.00000  Uiso   1.00
H1010  H     0.23614   0.12302   0.46971   0.00000  Uiso   1.00
H1011  H     0.21433   0.15865   0.42626   0.00000  Uiso   1.00
H1012  H     0.07712   0.03047   0.51665   0.00000  Uiso   1.00
H1013  H     0.12696   0.00026   0.52629   0.00000  Uiso   1.00
H1014  H     0.08506   0.49581   0.56589   0.00000  Uiso   1.00
H1015  H     0.14481   0.04911   0.58791   0.00000  Uiso   1.00
H1016  H     0.09229   0.07079   0.59011   0.00000  Uiso   1.00
N1017  N    -0.00000   0.25000   0.61907   0.00000  Uiso   1.00
N1018  N     0.00000   0.25000   0.38093   0.00000  Uiso   1.00
N1019  N     0.25000  -0.00000   0.61907   0.00000  Uiso   1.00
N1020  N     0.25000  -0.00000   0.38093   0.00000  Uiso   1.00
O1021  O     0.04580   0.20419   0.53821   0.00000  Uiso   1.00
O1022  O     0.20419   0.04581   0.46179   0.00000  Uiso   1.00
O1023  O     0.20419   0.04581   0.53821   0.00000  Uiso   1.00
O1024  O     0.29580   0.45419   0.46179   0.00000  Uiso   1.00
O1025  O     0.20419   0.45419   0.46179   0.00000  Uiso   1.00
O1026  O     0.29580   0.04581   0.53821   0.00000  Uiso   1.00
O1027  O     0.29580   0.04581   0.46179   0.00000  Uiso   1.00
O1028  O     0.20419   0.45419   0.53821   0.00000  Uiso   1.00
O1029  O     0.45419   0.29581   0.46179   0.00000  Uiso   1.00
O1030  O     0.45419   0.29581   0.53821   0.00000  Uiso   1.00
O1031  O     0.04580   0.20419   0.46179   0.00000  Uiso   1.00
O1032  O     0.45419   0.20419   0.46179   0.00000  Uiso   1.00
O1033  O     0.04580   0.29581   0.53821   0.00000  Uiso   1.00
O1034  O     0.04580   0.29581   0.46179   0.00000  Uiso   1.00
O1035  O     0.45419   0.20419   0.53821   0.00000  Uiso   1.00
O1036  O     0.29580   0.45419   0.53821   0.00000  Uiso   1.00
Zn1037 Zn    0.00000   0.25000   0.55104   0.00000  Uiso   1.00
Zn1038 Zn    0.00000   0.25000   0.44896   0.00000  Uiso   1.00
Zn1039 Zn    0.25000  -0.00000   0.55104   0.00000  Uiso   1.00
Zn1040 Zn    0.25000  -0.00000   0.44896   0.00000  Uiso   1.00
C1041  C     0.56287   0.19360   0.50046   0.00000  Uiso   1.00
C1042  C     0.50237   0.20993   0.64330   0.00000  Uiso   1.00
C1043  C     0.50131   0.20985   0.35767   0.00000  Uiso   1.00
C1044  C     0.99748   0.29008   0.64245   0.00000  Uiso   1.00
C1045  C     0.74766   0.03982   0.35670   0.00000  Uiso   1.00
C1046  C     0.75165   0.45999   0.64329   0.00000  Uiso   1.00
C1047  C     0.75093   0.45991   0.35762   0.00000  Uiso   1.00
C1048  C     0.74556   0.03971   0.64261   0.00000  Uiso   1.00
C1049  C     0.88286   0.15069   0.45876   0.00000  Uiso   1.00
C1050  C     0.62035   0.35033   0.53726   0.00000  Uiso   1.00
C1051  C     0.61241   0.35664   0.45644   0.00000  Uiso   1.00
C1052  C     0.94075   0.31087   0.50041   0.00000  Uiso   1.00
C1053  C     0.88493   0.14408   0.53992   0.00000  Uiso   1.00
C1054  C     0.60884   0.14084   0.54209   0.00000  Uiso   1.00
C1055  C     0.91288   0.38138   0.46783   0.00000  Uiso   1.00
C1056  C     0.88872   0.35965   0.54158   0.00000  Uiso   1.00
C1057  C     0.63450   0.16844   0.47067   0.00000  Uiso   1.00
C1058  C     0.63380   0.39806   0.45846   0.00000  Uiso   1.00
C1059  C     0.84616   0.12293   0.53625   0.00000  Uiso   1.00
C1060  C     0.86108   0.10982   0.45801   0.00000  Uiso   1.00
C1061  C     0.65834   0.37248   0.53129   0.00000  Uiso   1.00
C1062  C     0.86831   0.40179   0.54239   0.00000  Uiso   1.00
C1063  C     0.93893   0.19123   0.50009   0.00000  Uiso   1.00
C1064  C     0.66848   0.13759   0.47632   0.00000  Uiso   1.00
C1065  C     0.62918   0.09933   0.53572   0.00000  Uiso   1.00
C1066  C     0.87530   0.40587   0.46161   0.00000  Uiso   1.00
C1067  C     0.59838   0.33816   0.49794   0.00000  Uiso   1.00
C1068  C     0.90208   0.16204   0.49982   0.00000  Uiso   1.00
C1069  C     0.91228   0.34942   0.50258   0.00000  Uiso   1.00
C1070  C     0.60227   0.16751   0.50346   0.00000  Uiso   1.00
C1071  C     0.83949   0.09746   0.49770   0.00000  Uiso   1.00
C1072  C     0.65923   0.40469   0.49697   0.00000  Uiso   1.00
C1073  C     0.66082   0.09801   0.50219   0.00000  Uiso   1.00
C1074  C     0.56140   0.30864   0.49964   0.00000  Uiso   1.00
C1075  C     0.85252   0.41770   0.50096   0.00000  Uiso   1.00
C1076  C     0.99480   0.33459   0.38010   0.00000  Uiso   1.00
C1077  C     0.50691   0.16474   0.62043   0.00000  Uiso   1.00
C1078  C     0.99994   0.16435   0.38165   0.00000  Uiso   1.00
C1079  C     0.99355   0.33560   0.61882   0.00000  Uiso   1.00
C1080  C     0.74609   0.08463   0.37968   0.00000  Uiso   1.00
C1081  C     0.75109   0.41493   0.62026   0.00000  Uiso   1.00
C1082  C     0.74858   0.41460   0.38135   0.00000  Uiso   1.00
C1083  C     0.73294   0.08302   0.61911   0.00000  Uiso   1.00
C1084  C     0.88033   0.18236   0.41820   0.00000  Uiso   1.00
C1085  C     0.81256   0.44304   0.50007   0.00000  Uiso   1.00
C1086  C     0.86125   0.22884   0.43002   0.00000  Uiso   1.00
C1087  C     0.60206   0.34601   0.58376   0.00000  Uiso   1.00
C1088  C     0.61981   0.37877   0.61818   0.00000  Uiso   1.00
C1089  C     0.60918   0.33216   0.41172   0.00000  Uiso   1.00
C1090  C     0.65183   0.32723   0.38825   0.00000  Uiso   1.00
C1091  C     0.90971   0.14135   0.58331   0.00000  Uiso   1.00
C1092  C     0.89408   0.10781   0.61891   0.00000  Uiso   1.00
C1093  C     0.61559   0.16348   0.58714   0.00000  Uiso   1.00
C1094  C     0.65885   0.18571   0.58940   0.00000  Uiso   1.00
C1095  C     0.95429   0.40465   0.45693   0.00000  Uiso   1.00
C1096  C     0.69014   0.06020   0.50029   0.00000  Uiso   1.00
C1097  C     0.96226   0.44453   0.48785   0.00000  Uiso   1.00
C1098  C     0.87980   0.32610   0.57924   0.00000  Uiso   1.00
C1099  C     0.85503   0.28568   0.56278   0.00000  Uiso   1.00
C1100  C     0.63415   0.20190   0.43192   0.00000  Uiso   1.00
C1101  C     0.62282   0.17841   0.38863   0.00000  Uiso   1.00
C1102  C     0.62893   0.43234   0.41997   0.00000  Uiso   1.00
C1103  C     0.60910   0.47740   0.43450   0.00000  Uiso   1.00
C1104  C     0.81019   0.13380   0.56775   0.00000  Uiso   1.00
C1105  C     0.80870   0.18284   0.58355   0.00000  Uiso   1.00
C1106  C     0.86588   0.07967   0.41723   0.00000  Uiso   1.00
C1107  C     0.69014   0.44014   0.49948   0.00000  Uiso   1.00
C1108  C     0.89023   0.03582   0.42850   0.00000  Uiso   1.00
C1109  C     0.69892   0.34864   0.54626   0.00000  Uiso   1.00
C1110  C     0.70602   0.30433   0.52127   0.00000  Uiso   1.00
C1111  C     0.86742   0.42890   0.58544   0.00000  Uiso   1.00
C1112  C     0.88482   0.47675   0.57942   0.00000  Uiso   1.00
C1113  C     0.71311   0.15058   0.46229   0.00000  Uiso   1.00
C1114  C     0.72942   0.19091   0.48854   0.00000  Uiso   1.00
C1115  C     0.61781   0.05999   0.56682   0.00000  Uiso   1.00
C1116  C     0.60067   0.01929   0.54204   0.00000  Uiso   1.00
C1117  C     0.85699   0.41163   0.41517   0.00000  Uiso   1.00
C1118  C     0.80929   0.06073   0.49944   0.00000  Uiso   1.00
C1119  C     0.88040   0.38773   0.37724   0.00000  Uiso   1.00
C1120  C     0.99809   0.28993   0.35672   0.00000  Uiso   1.00
H1121  H     0.50057   0.33067   0.41513   0.00000  Uiso   1.00
H1122  H     0.99747   0.33414   0.58295   0.00000  Uiso   1.00
H1123  H     0.90889   0.40683   0.36727   0.00000  Uiso   1.00
H1124  H     0.88866   0.35205   0.38651   0.00000  Uiso   1.00
H1125  H     0.85923   0.38673   0.34784   0.00000  Uiso   1.00
H1126  H     0.82588   0.39525   0.41664   0.00000  Uiso   1.00
H1127  H     0.85304   0.44816   0.40645   0.00000  Uiso   1.00
H1128  H     0.96258   0.35195   0.62640   0.00000  Uiso   1.00
H1129  H     0.51835   0.35884   0.63023   0.00000  Uiso   1.00
H1130  H     0.75068   0.08058   0.41482   0.00000  Uiso   1.00
H1131  H     0.77220   0.10665   0.36810   0.00000  Uiso   1.00
H1132  H     0.71493   0.10149   0.37373   0.00000  Uiso   1.00
H1133  H     0.75171   0.41855   0.58462   0.00000  Uiso   1.00
H1134  H     0.77893   0.39355   0.62952   0.00000  Uiso   1.00
H1135  H     0.72175   0.39689   0.62920   0.00000  Uiso   1.00
H1136  H     0.75091   0.41603   0.41734   0.00000  Uiso   1.00
H1137  H     0.51880   0.35890   0.36844   0.00000  Uiso   1.00
H1138  H     0.71817   0.39890   0.37356   0.00000  Uiso   1.00
H1139  H     0.77397   0.39123   0.36988   0.00000  Uiso   1.00
H1140  H     0.74412   0.08243   0.58523   0.00000  Uiso   1.00
H1141  H     0.69812   0.08740   0.62025   0.00000  Uiso   1.00
H1142  H     0.74716   0.11373   0.63339   0.00000  Uiso   1.00
H1143  H     0.82906   0.22471   0.44421   0.00000  Uiso   1.00
H1144  H     0.88105   0.24676   0.45445   0.00000  Uiso   1.00
H1145  H     0.85881   0.25034   0.39953   0.00000  Uiso   1.00
H1146  H     0.91132   0.18623   0.40163   0.00000  Uiso   1.00
H1147  H     0.85907   0.16819   0.39254   0.00000  Uiso   1.00
H1148  H     0.96289   0.34948   0.37498   0.00000  Uiso   1.00
H1149  H     0.65162   0.36770   0.62929   0.00000  Uiso   1.00
H1150  H     0.62105   0.41396   0.60449   0.00000  Uiso   1.00
H1151  H     0.59886   0.37921   0.64784   0.00000  Uiso   1.00
H1152  H     0.56864   0.35657   0.58093   0.00000  Uiso   1.00
H1153  H     0.60478   0.31034   0.59608   0.00000  Uiso   1.00
H1154  H     0.66088   0.36010   0.37359   0.00000  Uiso   1.00
H1155  H     0.67664   0.31486   0.41169   0.00000  Uiso   1.00
H1156  H     0.64937   0.30255   0.36061   0.00000  Uiso   1.00
H1157  H     0.59888   0.29702   0.41483   0.00000  Uiso   1.00
H1158  H     0.58624   0.34964   0.38958   0.00000  Uiso   1.00
H1159  H     0.50253   0.16659   0.58461   0.00000  Uiso   1.00
H1160  H     0.86818   0.12319   0.63893   0.00000  Uiso   1.00
H1161  H     0.88371   0.07566   0.60368   0.00000  Uiso   1.00
H1162  H     0.92013   0.09935   0.64243   0.00000  Uiso   1.00
H1163  H     0.94149   0.12837   0.57380   0.00000  Uiso   1.00
H1164  H     0.91195   0.17551   0.59853   0.00000  Uiso   1.00
H1165  H     0.68440   0.16006   0.58426   0.00000  Uiso   1.00
H1166  H     0.66121   0.21274   0.56359   0.00000  Uiso   1.00
H1167  H     0.66323   0.20131   0.62255   0.00000  Uiso   1.00
H1168  H     0.59188   0.19017   0.59475   0.00000  Uiso   1.00
H1169  H     0.61376   0.13832   0.61478   0.00000  Uiso   1.00
H1170  H     0.53833   0.14936   0.62762   0.00000  Uiso   1.00
H1171  H     0.93600   0.46992   0.48583   0.00000  Uiso   1.00
H1172  H     0.96551   0.43205   0.52268   0.00000  Uiso   1.00
H1173  H     0.99212   0.46144   0.47811   0.00000  Uiso   1.00
H1174  H     0.98140   0.38101   0.46171   0.00000  Uiso   1.00
H1175  H     0.95465   0.41730   0.42216   0.00000  Uiso   1.00
H1176  H     0.82651   0.29733   0.54403   0.00000  Uiso   1.00
H1177  H     0.87484   0.26336   0.54139   0.00000  Uiso   1.00
H1178  H     0.84467   0.26599   0.59227   0.00000  Uiso   1.00
H1179  H     0.90869   0.31427   0.59659   0.00000  Uiso   1.00
H1180  H     0.85975   0.34212   0.60531   0.00000  Uiso   1.00
H1181  H     0.98302   0.14084   0.63300   0.00000  Uiso   1.00
H1182  H     0.61741   0.20427   0.36199   0.00000  Uiso   1.00
H1183  H     0.64890   0.15513   0.37819   0.00000  Uiso   1.00
H1184  H     0.59370   0.15844   0.39309   0.00000  Uiso   1.00
H1185  H     0.61165   0.22983   0.43816   0.00000  Uiso   1.00
H1186  H     0.66488   0.21883   0.42739   0.00000  Uiso   1.00
H1187  H     0.58125   0.47135   0.45624   0.00000  Uiso   1.00
H1188  H     0.63260   0.49826   0.45184   0.00000  Uiso   1.00
H1189  H     0.59839   0.49707   0.40475   0.00000  Uiso   1.00
H1190  H     0.65918   0.43826   0.40250   0.00000  Uiso   1.00
H1191  H     0.60750   0.41945   0.39406   0.00000  Uiso   1.00
H1192  H     0.50110   0.16619   0.41764   0.00000  Uiso   1.00
H1193  H     0.83568   0.18971   0.60584   0.00000  Uiso   1.00
H1194  H     0.80894   0.20622   0.55435   0.00000  Uiso   1.00
H1195  H     0.77901   0.18906   0.60253   0.00000  Uiso   1.00
H1196  H     0.78029   0.12984   0.54915   0.00000  Uiso   1.00
H1197  H     0.81133   0.11013   0.59649   0.00000  Uiso   1.00
H1198  H     0.92171   0.04399   0.44252   0.00000  Uiso   1.00
H1199  H     0.87279   0.01475   0.45296   0.00000  Uiso   1.00
H1200  H     0.89521   0.01577   0.39777   0.00000  Uiso   1.00
H1201  H     0.83514   0.07244   0.40148   0.00000  Uiso   1.00
H1202  H     0.88479   0.09676   0.39097   0.00000  Uiso   1.00
H1203  H     0.97017   0.14678   0.37342   0.00000  Uiso   1.00
H1204  H     0.67906   0.28120   0.52674   0.00000  Uiso   1.00
H1205  H     0.70945   0.31133   0.48510   0.00000  Uiso   1.00
H1206  H     0.73543   0.28721   0.53345   0.00000  Uiso   1.00
H1207  H     0.72688   0.36959   0.53908   0.00000  Uiso   1.00
H1208  H     0.69818   0.34060   0.58223   0.00000  Uiso   1.00
H1209  H     0.91876   0.47505   0.57012   0.00000  Uiso   1.00
H1210  H     0.86721   0.49631   0.55357   0.00000  Uiso   1.00
H1211  H     0.88196   0.49506   0.61144   0.00000  Uiso   1.00
H1212  H     0.83548   0.43054   0.60015   0.00000  Uiso   1.00
H1213  H     0.88800   0.41205   0.61078   0.00000  Uiso   1.00
H1214  H     0.52696   0.14234   0.37157   0.00000  Uiso   1.00
H1215  H     0.71059   0.22202   0.48162   0.00000  Uiso   1.00
H1216  H     0.72831   0.18356   0.52470   0.00000  Uiso   1.00
H1217  H     0.76277   0.19747   0.47910   0.00000  Uiso   1.00
H1218  H     0.73614   0.12302   0.46971   0.00000  Uiso   1.00
H1219  H     0.71433   0.15865   0.42626   0.00000  Uiso   1.00
H1220  H     0.57712   0.03047   0.51665   0.00000  Uiso   1.00
H1221  H     0.62696   0.00026   0.52629   0.00000  Uiso   1.00
H1222  H     0.58506   0.49581   0.56589   0.00000  Uiso   1.00
H1223  H     0.64481   0.04911   0.58791   0.00000  Uiso   1.00
H1224  H     0.59229   0.07079   0.59011   0.00000  Uiso   1.00
N1225  N     0.50000   0.25000   0.61907   0.00000  Uiso   1.00
N1226  N     0.50000   0.25000   0.38093   0.00000  Uiso   1.00
N1227  N     0.75000  -0.00000   0.61907   0.00000  Uiso   1.00
N1228  N     0.75000  -0.00000   0.38093   0.00000  Uiso   1.00
O1229  O     0.54580   0.20419   0.53821   0.00000  Uiso   1.00
O1230  O     0.70419   0.04581   0.46179   0.00000  Uiso   1.00
O1231  O     0.70419   0.04581   0.53821   0.00000  Uiso   1.00
O1232  O     0.79580   0.45419   0.46179   0.00000  Uiso   1.00
O1233  O     0.70419   0.45419   0.46179   0.00000  Uiso   1.00
O1234  O     0.79580   0.04581   0.53821   0.00000  Uiso   1.00
O1235  O     0.79580   0.04581   0.46179   0.00000  Uiso   1.00
O1236  O     0.70419   0.45419   0.53821   0.00000  Uiso   1.00
O1237  O     0.95419   0.29581   0.46179   0.00000  Uiso   1.00
O1238  O     0.95419   0.29581   0.53821   0.00000  Uiso   1.00
O1239  O     0.54580   0.20419   0.46179   0.00000  Uiso   1.00
O1240  O     0.95419   0.20419   0.46179   0.00000  Uiso   1.00
O1241  O     0.54580   0.29581   0.53821   0.00000  Uiso   1.00
O1242  O     0.54580   0.29581   0.46179   0.00000  Uiso   1.00
O1243  O     0.95419   0.20419   0.53821   0.00000  Uiso   1.00
O1244  O     0.79580   0.45419   0.53821   0.00000  Uiso   1.00
Zn1245 Zn    0.50000   0.25000   0.55104   0.00000  Uiso   1.00
Zn1246 Zn    0.50000   0.25000   0.44896   0.00000  Uiso   1.00
Zn1247 Zn    0.75000  -0.00000   0.55104   0.00000  Uiso   1.00
Zn1248 Zn    0.75000  -0.00000   0.44896   0.00000  Uiso   1.00
C1249  C     0.06287   0.69360   0.50046   0.00000  Uiso   1.00
C1250  C     0.00237   0.70993   0.64330   0.00000  Uiso   1.00
C1251  C     0.00131   0.70985   0.35767   0.00000  Uiso   1.00
C1252  C     0.49748   0.79008   0.64245   0.00000  Uiso   1.00
C1253  C     0.24766   0.53982   0.35670   0.00000  Uiso   1.00
C1254  C     0.25165   0.95999   0.64329   0.00000  Uiso   1.00
C1255  C     0.25093   0.95991   0.35762   0.00000  Uiso   1.00
C1256  C     0.24556   0.53971   0.64261   0.00000  Uiso   1.00
C1257  C     0.38286   0.65069   0.45876   0.00000  Uiso   1.00
C1258  C     0.12035   0.85033   0.53726   0.00000  Uiso   1.00
C1259  C     0.11241   0.85664   0.45644   0.00000  Uiso   1.00
C1260  C     0.44075   0.81087   0.50041   0.00000  Uiso   1.00
C1261  C     0.38493   0.64408   0.53992   0.00000  Uiso   1.00
C1262  C     0.10884   0.64084   0.54209   0.00000  Uiso   1.00
C1263  C     0.41288   0.88138   0.46783   0.00000  Uiso   1.00
C1264  C     0.38872   0.85965   0.54158   0.00000  Uiso   1.00
C1265  C     0.13450   0.66844   0.47067   0.00000  Uiso   1.00
C1266  C     0.13380   0.89806   0.45846   0.00000  Uiso   1.00
C1267  C     0.34616   0.62293   0.53625   0.00000  Uiso   1.00
C1268  C     0.36108   0.60982   0.45801   0.00000  Uiso   1.00
C1269  C     0.15834   0.87248   0.53129   0.00000  Uiso   1.00
C1270  C     0.36831   0.90179   0.54239   0.00000  Uiso   1.00
C1271  C     0.43893   0.69123   0.50009   0.00000  Uiso   1.00
C1272  C     0.16848   0.63759   0.47632   0.00000  Uiso   1.00
C1273  C     0.12918   0.59933   0.53572   0.00000  Uiso   1.00
C1274  C     0.37530   0.90587   0.46161   0.00000  Uiso   1.00
C1275  C     0.09838   0.83816   0.49794   0.00000  Uiso   1.00
C1276  C     0.40208   0.66204   0.49982   0.00000  Uiso   1.00
C1277  C     0.41228   0.84942   0.50258   0.00000  Uiso   1.00
C1278  C     0.10227   0.66751   0.50346   0.00000  Uiso   1.00
C1279  C     0.33949   0.59746   0.49770   0.00000  Uiso   1.00
C1280  C     0.15923   0.90469   0.49697   0.00000  Uiso   1.00
C1281  C     0.16082   0.59801   0.50219   0.00000  Uiso   1.00
C1282  C     0.06140   0.80864   0.49964   0.00000  Uiso   1.00
C1283  C     0.35252   0.91770   0.50096   0.00000  Uiso   1.00
C1284  C     0.49480   0.83459   0.38010   0.00000  Uiso   1.00
C1285  C     0.00691   0.66474   0.62043   0.00000  Uiso   1.00
C1286  C     0.49994   0.66435   0.38165   0.00000  Uiso   1.00
C1287  C     0.49355   0.83560   0.61882   0.00000  Uiso   1.00
C1288  C     0.24609   0.58463   0.37968   0.00000  Uiso   1.00
C1289  C     0.25109   0.91493   0.62026   0.00000  Uiso   1.00
C1290  C     0.24858   0.91460   0.38135   0.00000  Uiso   1.00
C1291  C     0.23294   0.58302   0.61911   0.00000  Uiso   1.00
C1292  C     0.38033   0.68236   0.41820   0.00000  Uiso   1.00
C1293  C     0.31256   0.94304   0.50007   0.00000  Uiso   1.00
C1294  C     0.36125   0.72884   0.43002   0.00000  Uiso   1.00
C1295  C     0.10206   0.84601   0.58376   0.00000  Uiso   1.00
C1296  C     0.11981   0.87877   0.61818   0.00000  Uiso   1.00
C1297  C     0.10918   0.83216   0.41172   0.00000  Uiso   1.00
C1298  C     0.15183   0.82723   0.38825   0.00000  Uiso   1.00
C1299  C     0.40971   0.64135   0.58331   0.00000  Uiso   1.00
C1300  C     0.39408   0.60781   0.61891   0.00000  Uiso   1.00
C1301  C     0.11559   0.66348   0.58714   0.00000  Uiso   1.00
C1302  C     0.15885   0.68571   0.58940   0.00000  Uiso   1.00
C1303  C     0.45429   0.90465   0.45693   0.00000  Uiso   1.00
C1304  C     0.19014   0.56020   0.50029   0.00000  Uiso   1.00
C1305  C     0.46226   0.94453   0.48785   0.00000  Uiso   1.00
C1306  C     0.37980   0.82610   0.57924   0.00000  Uiso   1.00
C1307  C     0.35503   0.78568   0.56278   0.00000  Uiso   1.00
C1308  C     0.13415   0.70190   0.43192   0.00000  Uiso   1.00
C1309  C     0.12282   0.67841   0.38863   0.00000  Uiso   1.00
C1310  C     0.12893   0.93234   0.41997   0.00000  Uiso   1.00
C1311  C     0.10910   0.97740   0.43450   0.00000  Uiso   1.00
C1312  C     0.31019   0.63380   0.56775   0.00000  Uiso   1.00
C1313  C     0.30870   0.68284   0.58355   0.00000  Uiso   1.00
C1314  C     0.36588   0.57967   0.41723   0.00000  Uiso   1.00
C1315  C     0.19014   0.94014   0.49948   0.00000  Uiso   1.00
C1316  C     0.39023   0.53582   0.42850   0.00000  Uiso   1.00
C1317  C     0.19892   0.84864   0.54626   0.00000  Uiso   1.00
C1318  C     0.20602   0.80433   0.52127   0.00000  Uiso   1.00
C1319  C     0.36742   0.92890   0.58544   0.00000  Uiso   1.00
C1320  C     0.38482   0.97675   0.57942   0.00000  Uiso   1.00
C1321  C     0.21311   0.65058   0.46229   0.00000  Uiso   1.00
C1322  C     0.22942   0.69091   0.48854   0.00000  Uiso   1.00
C1323  C     0.11781   0.55999   0.56682   0.00000  Uiso   1.00
C1324  C     0.10067   0.51929   0.54204   0.00000  Uiso   1.00
C1325  C     0.35699   0.91163   0.41517   0.00000  Uiso   1.00
C1326  C     0.30929   0.56073   0.49944   0.00000  Uiso   1.00
C1327  C     0.38040   0.88773   0.37724   0.00000  Uiso   1.00
C1328  C     0.49809   0.78993   0.35672   0.00000  Uiso   1.00
H1329  H     0.00057   0.83067   0.41513   0.00000  Uiso   1.00
H1330  H     0.49747   0.83414   0.58295   0.00000  Uiso   1.00
H1331  H     0.40889   0.90683   0.36727   0.00000  Uiso   1.00
H1332  H     0.38866   0.85205   0.38651   0.00000  Uiso   1.00
H1333  H     0.35923   0.88673   0.34784   0.00000  Uiso   1.00
H1334  H     0.32588   0.89525   0.41664   0.00000  Uiso   1.00
H1335  H     0.35304   0.94816   0.40645   0.00000  Uiso   1.00
H1336  H     0.46258   0.85195   0.62640   0.00000  Uiso   1.00
H1337  H     0.01835   0.85884   0.63023   0.00000  Uiso   1.00
H1338  H     0.25068   0.58058   0.41482   0.00000  Uiso   1.00
H1339  H     0.27220   0.60665   0.36810   0.00000  Uiso   1.00
H1340  H     0.21493   0.60149   0.37373   0.00000  Uiso   1.00
H1341  H     0.25171   0.91855   0.58462   0.00000  Uiso   1.00
H1342  H     0.27893   0.89355   0.62952   0.00000  Uiso   1.00
H1343  H     0.22175   0.89689   0.62920   0.00000  Uiso   1.00
H1344  H     0.25091   0.91603   0.41734   0.00000  Uiso   1.00
H1345  H     0.01880   0.85890   0.36844   0.00000  Uiso   1.00
H1346  H     0.21817   0.89890   0.37356   0.00000  Uiso   1.00
H1347  H     0.27397   0.89123   0.36988   0.00000  Uiso   1.00
H1348  H     0.24412   0.58243   0.58523   0.00000  Uiso   1.00
H1349  H     0.19812   0.58740   0.62025   0.00000  Uiso   1.00
H1350  H     0.24716   0.61373   0.63339   0.00000  Uiso   1.00
H1351  H     0.32906   0.72471   0.44421   0.00000  Uiso   1.00
H1352  H     0.38105   0.74676   0.45445   0.00000  Uiso   1.00
H1353  H     0.35881   0.75034   0.39953   0.00000  Uiso   1.00
H1354  H     0.41132   0.68623   0.40163   0.00000  Uiso   1.00
H1355  H     0.35907   0.66819   0.39254   0.00000  Uiso   1.00
H1356  H     0.46289   0.84948   0.37498   0.00000  Uiso   1.00
H1357  H     0.15162   0.86770   0.62929   0.00000  Uiso   1.00
H1358  H     0.12105   0.91396   0.60449   0.00000  Uiso   1.00
H1359  H     0.09886   0.87921   0.64784   0.00000  Uiso   1.00
H1360  H     0.06864   0.85657   0.58093   0.00000  Uiso   1.00
H1361  H     0.10478   0.81034   0.59608   0.00000  Uiso   1.00
H1362  H     0.16088   0.86010   0.37359   0.00000  Uiso   1.00
H1363  H     0.17664   0.81486   0.41169   0.00000  Uiso   1.00
H1364  H     0.14937   0.80255   0.36061   0.00000  Uiso   1.00
H1365  H     0.09888   0.79702   0.41483   0.00000  Uiso   1.00
H1366  H     0.08624   0.84964   0.38958   0.00000  Uiso   1.00
H1367  H     0.00253   0.66659   0.58461   0.00000  Uiso   1.00
H1368  H     0.36818   0.62319   0.63893   0.00000  Uiso   1.00
H1369  H     0.38371   0.57566   0.60368   0.00000  Uiso   1.00
H1370  H     0.42013   0.59935   0.64243   0.00000  Uiso   1.00
H1371  H     0.44149   0.62837   0.57380   0.00000  Uiso   1.00
H1372  H     0.41195   0.67551   0.59853   0.00000  Uiso   1.00
H1373  H     0.18440   0.66006   0.58426   0.00000  Uiso   1.00
H1374  H     0.16121   0.71274   0.56359   0.00000  Uiso   1.00
H1375  H     0.16323   0.70131   0.62255   0.00000  Uiso   1.00
H1376  H     0.09188   0.69017   0.59475   0.00000  Uiso   1.00
H1377  H     0.11376   0.63832   0.61478   0.00000  Uiso   1.00
H1378  H     0.03833   0.64936   0.62762   0.00000  Uiso   1.00
H1379  H     0.43600   0.96992   0.48583   0.00000  Uiso   1.00
H1380  H     0.46551   0.93205   0.52268   0.00000  Uiso   1.00
H1381  H     0.49212   0.96144   0.47811   0.00000  Uiso   1.00
H1382  H     0.48140   0.88101   0.46171   0.00000  Uiso   1.00
H1383  H     0.45465   0.91730   0.42216   0.00000  Uiso   1.00
H1384  H     0.32651   0.79733   0.54403   0.00000  Uiso   1.00
H1385  H     0.37484   0.76336   0.54139   0.00000  Uiso   1.00
H1386  H     0.34467   0.76599   0.59227   0.00000  Uiso   1.00
H1387  H     0.40869   0.81427   0.59659   0.00000  Uiso   1.00
H1388  H     0.35975   0.84212   0.60531   0.00000  Uiso   1.00
H1389  H     0.48302   0.64084   0.63300   0.00000  Uiso   1.00
H1390  H     0.11741   0.70427   0.36199   0.00000  Uiso   1.00
H1391  H     0.14890   0.65513   0.37819   0.00000  Uiso   1.00
H1392  H     0.09370   0.65844   0.39309   0.00000  Uiso   1.00
H1393  H     0.11165   0.72983   0.43816   0.00000  Uiso   1.00
H1394  H     0.16488   0.71883   0.42739   0.00000  Uiso   1.00
H1395  H     0.08125   0.97135   0.45624   0.00000  Uiso   1.00
H1396  H     0.13260   0.99826   0.45184   0.00000  Uiso   1.00
H1397  H     0.09839   0.99707   0.40475   0.00000  Uiso   1.00
H1398  H     0.15918   0.93826   0.40250   0.00000  Uiso   1.00
H1399  H     0.10750   0.91945   0.39406   0.00000  Uiso   1.00
H1400  H     0.00110   0.66619   0.41764   0.00000  Uiso   1.00
H1401  H     0.33568   0.68971   0.60584   0.00000  Uiso   1.00
H1402  H     0.30894   0.70622   0.55435   0.00000  Uiso   1.00
H1403  H     0.27901   0.68906   0.60253   0.00000  Uiso   1.00
H1404  H     0.28029   0.62984   0.54915   0.00000  Uiso   1.00
H1405  H     0.31133   0.61013   0.59649   0.00000  Uiso   1.00
H1406  H     0.42171   0.54399   0.44252   0.00000  Uiso   1.00
H1407  H     0.37279   0.51475   0.45296   0.00000  Uiso   1.00
H1408  H     0.39521   0.51577   0.39777   0.00000  Uiso   1.00
H1409  H     0.33514   0.57244   0.40148   0.00000  Uiso   1.00
H1410  H     0.38479   0.59676   0.39097   0.00000  Uiso   1.00
H1411  H     0.47017   0.64678   0.37342   0.00000  Uiso   1.00
H1412  H     0.17906   0.78120   0.52674   0.00000  Uiso   1.00
H1413  H     0.20945   0.81133   0.48510   0.00000  Uiso   1.00
H1414  H     0.23543   0.78721   0.53345   0.00000  Uiso   1.00
H1415  H     0.22688   0.86959   0.53908   0.00000  Uiso   1.00
H1416  H     0.19818   0.84060   0.58223   0.00000  Uiso   1.00
H1417  H     0.41876   0.97505   0.57012   0.00000  Uiso   1.00
H1418  H     0.36721   0.99631   0.55357   0.00000  Uiso   1.00
H1419  H     0.38196   0.99506   0.61144   0.00000  Uiso   1.00
H1420  H     0.33548   0.93054   0.60015   0.00000  Uiso   1.00
H1421  H     0.38800   0.91205   0.61078   0.00000  Uiso   1.00
H1422  H     0.02696   0.64234   0.37157   0.00000  Uiso   1.00
H1423  H     0.21059   0.72202   0.48162   0.00000  Uiso   1.00
H1424  H     0.22831   0.68356   0.52470   0.00000  Uiso   1.00
H1425  H     0.26277   0.69747   0.47910   0.00000  Uiso   1.00
H1426  H     0.23614   0.62302   0.46971   0.00000  Uiso   1.00
H1427  H     0.21433   0.65865   0.42626   0.00000  Uiso   1.00
H1428  H     0.07712   0.53047   0.51665   0.00000  Uiso   1.00
H1429  H     0.12696   0.50026   0.52629   0.00000  Uiso   1.00
H1430  H     0.08506   0.99581   0.56589   0.00000  Uiso   1.00
H1431  H     0.14481   0.54911   0.58791   0.00000  Uiso   1.00
H1432  H     0.09229   0.57079   0.59011   0.00000  Uiso   1.00
N1433  N    -0.00000   0.75000   0.61907   0.00000  Uiso   1.00
N1434  N     0.00000   0.75000   0.38093   0.00000  Uiso   1.00
N1435  N     0.25000   0.50000   0.61907   0.00000  Uiso   1.00
N1436  N     0.25000   0.50000   0.38093   0.00000  Uiso   1.00
O1437  O     0.04580   0.70419   0.53821   0.00000  Uiso   1.00
O1438  O     0.20419   0.54581   0.46179   0.00000  Uiso   1.00
O1439  O     0.20419   0.54581   0.53821   0.00000  Uiso   1.00
O1440  O     0.29580   0.95419   0.46179   0.00000  Uiso   1.00
O1441  O     0.20419   0.95419   0.46179   0.00000  Uiso   1.00
O1442  O     0.29580   0.54581   0.53821   0.00000  Uiso   1.00
O1443  O     0.29580   0.54581   0.46179   0.00000  Uiso   1.00
O1444  O     0.20419   0.95419   0.53821   0.00000  Uiso   1.00
O1445  O     0.45419   0.79581   0.46179   0.00000  Uiso   1.00
O1446  O     0.45419   0.79581   0.53821   0.00000  Uiso   1.00
O1447  O     0.04580   0.70419   0.46179   0.00000  Uiso   1.00
O1448  O     0.45419   0.70419   0.46179   0.00000  Uiso   1.00
O1449  O     0.04580   0.79581   0.53821   0.00000  Uiso   1.00
O1450  O     0.04580   0.79581   0.46179   0.00000  Uiso   1.00
O1451  O     0.45419   0.70419   0.53821   0.00000  Uiso   1.00
O1452  O     0.29580   0.95419   0.53821   0.00000  Uiso   1.00
Zn1453 Zn    0.00000   0.75000   0.55104   0.00000  Uiso   1.00
Zn1454 Zn    0.00000   0.75000   0.44896   0.00000  Uiso   1.00
Zn1455 Zn    0.25000   0.50000   0.55104   0.00000  Uiso   1.00
Zn1456 Zn    0.25000   0.50000   0.44896   0.00000  Uiso   1.00
C1457  C     0.56287   0.69360   0.50046   0.00000  Uiso   1.00
C1458  C     0.50237   0.70993   0.64330   0.00000  Uiso   1.00
C1459  C     0.50131   0.70985   0.35767   0.00000  Uiso   1.00
C1460  C     0.99748   0.79008   0.64245   0.00000  Uiso   1.00
C1461  C     0.74766   0.53982   0.35670   0.00000  Uiso   1.00
C1462  C     0.75165   0.95999   0.64329   0.00000  Uiso   1.00
C1463  C     0.75093   0.95991   0.35762   0.00000  Uiso   1.00
C1464  C     0.74556   0.53971   0.64261   0.00000  Uiso   1.00
C1465  C     0.88286   0.65069   0.45876   0.00000  Uiso   1.00
C1466  C     0.62035   0.85033   0.53726   0.00000  Uiso   1.00
C1467  C     0.61241   0.85664   0.45644   0.00000  Uiso   1.00
C1468  C     0.94075   0.81087   0.50041   0.00000  Uiso   1.00
C1469  C     0.88493   0.64408   0.53992   0.00000  Uiso   1.00
C1470  C     0.60884   0.64084   0.54209   0.00000  Uiso   1.00
C1471  C     0.91288   0.88138   0.46783   0.00000  Uiso   1.00
C1472  C     0.88872   0.85965   0.54158   0.00000  Uiso   1.00
C1473  C     0.63450   0.66844   0.47067   0.00000  Uiso   1.00
C1474  C     0.63380   0.89806   0.45846   0.00000  Uiso   1.00
C1475  C     0.84616   0.62293   0.53625   0.00000  Uiso   1.00
C1476  C     0.86108   0.60982   0.45801   0.00000  Uiso   1.00
C1477  C     0.65834   0.87248   0.53129   0.00000  Uiso   1.00
C1478  C     0.86831   0.90179   0.54239   0.00000  Uiso   1.00
C1479  C     0.93893   0.69123   0.50009   0.00000  Uiso   1.00
C1480  C     0.66848   0.63759   0.47632   0.00000  Uiso   1.00
C1481  C     0.62918   0.59933   0.53572   0.00000  Uiso   1.00
C1482  C     0.87530   0.90587   0.46161   0.00000  Uiso   1.00
C1483  C     0.59838   0.83816   0.49794   0.00000  Uiso   1.00
C1484  C     0.90208   0.66204   0.49982   0.00000  Uiso   1.00
C1485  C     0.91228   0.84942   0.50258   0.00000  Uiso   1.00
C1486  C     0.60227   0.66751   0.50346   0.00000  Uiso   1.00
C1487  C     0.83949   0.59746   0.49770   0.00000  Uiso   1.00
C1488  C     0.65923   0.90469   0.49697   0.00000  Uiso   1.00
C1489  C     0.66082   0.59801   0.50219   0.00000  Uiso   1.00
C1490  C     0.56140   0.80864   0.49964   0.00000  Uiso   1.00
C1491  C     0.85252   0.91770   0.50096   0.00000  Uiso   1.00
C1492  C     0.99480   0.83459   0.38010   0.00000  Uiso   1.00
C1493  C     0.50691   0.66474   0.62043   0.00000  Uiso   1.00
C1494  C     0.99994   0.66435   0.38165   0.00000  Uiso   1.00
C1495  C     0.99355   0.83560   0.61882   0.00000  Uiso   1.00
C1496  C     0.74609   0.58463   0.37968   0.00000  Uiso   1.00
C1497  C     0.75109   0.91493   0.62026   0.00000  Uiso   1.00
C1498  C     0.74858   0.91460   0.38135   0.00000  Uiso   1.00
C1499  C     0.73294   0.58302   0.61911   0.00000  Uiso   1.00
C1500  C     0.88033   0.68236   0.41820   0.00000  Uiso   1.00
C1501  C     0.81256   0.94304   0.50007   0.00000  Uiso   1.00
C1502  C     0.86125   0.72884   0.43002   0.00000  Uiso   1.00
C1503  C     0.60206   0.84601   0.58376   0.00000  Uiso   1.00
C1504  C     0.61981   0.87877   0.61818   0.00000  Uiso   1.00
C1505  C     0.60918   0.83216   0.41172   0.00000  Uiso   1.00
C1506  C     0.65183   0.82723   0.38825   0.00000  Uiso   1.00
C1507  C     0.90971   0.64135   0.58331   0.00000  Uiso   1.00
C1508  C     0.89408   0.60781   0.61891   0.00000  Uiso   1.00
C1509  C     0.61559   0.66348   0.58714   0.00000  Uiso   1.00
C1510  C     0.65885   0.68571   0.58940   0.00000  Uiso   1.00
C1511  C     0.95429   0.90465   0.45693   0.00000  Uiso   1.00
C1512  C     0.69014   0.56020   0.50029   0.00000  Uiso   1.00
C1513  C     0.96226   0.94453   0.48785   0.00000  Uiso   1.00
C1514  C     0.87980   0.82610   0.57924   0.00000  Uiso   1.00
C1515  C     0.85503   0.78568   0.56278   0.00000  Uiso   1.00
C1516  C     0.63415   0.70190   0.43192   0.00000  Uiso   1.00
C1517  C     0.62282   0.67841   0.38863   0.00000  Uiso   1.00
C1518  C     0.62893   0.93234   0.41997   0.00000  Uiso   1.00
C1519  C     0.60910   0.97740   0.43450   0.00000  Uiso   1.00
C1520  C     0.81019   0.63380   0.56775   0.00000  Uiso   1.00
C1521  C     0.80870   0.68284   0.58355   0.00000  Uiso   1.00
C1522  C     0.86588   0.57967   0.41723   0.00000  Uiso   1.00
C1523  C     0.69014   0.94014   0.49948   0.00000  Uiso   1.00
C1524  C     0.89023   0.53582   0.42850   0.00000  Uiso   1.00
C1525  C     0.69892   0.84864   0.54626   0.00000  Uiso   1.00
C1526  C     0.70602   0.80433   0.52127   0.00000  Uiso   1.00
C1527  C     0.86742   0.92890   0.58544   0.00000  Uiso   1.00
C1528  C     0.88482   0.97675   0.57942   0.00000  Uiso   1.00
C1529  C     0.71311   0.65058   0.46229   0.00000  Uiso   1.00
C1530  C     0.72942   0.69091   0.48854   0.00000  Uiso   1.00
C1531  C     0.61781   0.55999   0.56682   0.00000  Uiso   1.00
C1532  C     0.60067   0.51929   0.54204   0.00000  Uiso   1.00
C1533  C     0.85699   0.91163   0.41517   0.00000  Uiso   1.00
C1534  C     0.80929   0.56073   0.49944   0.00000  Uiso   1.00
C1535  C     0.88040   0.88773   0.37724   0.00000  Uiso   1.00
C1536  C     0.99809   0.78993   0.35672   0.00000  Uiso   1.00
H1537  H     0.50057   0.83067   0.41513   0.00000  Uiso   1.00
H1538  H     0.99747   0.83414   0.58295   0.00000  Uiso   1.00
H1539  H     0.90889   0.90683   0.36727   0.00000  Uiso   1.00
H1540  H     0.88866   0.85205   0.38651   0.00000  Uiso   1.00
H1541  H     0.85923   0.88673   0.34784   0.00000  Uiso   1.00
H1542  H     0.82588   0.89525   0.41664   0.00000  Uiso   1.00
H1543  H     0.85304   0.94816   0.40645   0.00000  Uiso   1.00
H1544  H     0.96258   0.85195   0.62640   0.00000  Uiso   1.00
H1545  H     0.51835   0.85884   0.63023   0.00000  Uiso   1.00
H1546  H     0.75068   0.58058   0.41482   0.00000  Uiso   1.00
H1547  H     0.77220   0.60665   0.36810   0.00000  Uiso   1.00
H1548  H     0.71493   0.60149   0.37373   0.00000  Uiso   1.00
H1549  H     0.75171   0.91855   0.58462   0.00000  Uiso   1.00
H1550  H     0.77893   0.89355   0.62952   0.00000  Uiso   1.00
H1551  H     0.72175   0.89689   0.62920   0.00000  Uiso   1.00
H1552  H     0.75091   0.91603   0.41734   0.00000  Uiso   1.00
H1553  H     0.51880   0.85890   0.36844   0.00000  Uiso   1.00
H1554  H     0.71817   0.89890   0.37356   0.00000  Uiso   1.00
H1555  H     0.77397   0.89123   0.36988   0.00000  Uiso   1.00
H1556  H     0.74412   0.58243   0.58523   0.00000  Uiso   1.00
H1557  H     0.69812   0.58740   0.62025   0.00000  Uiso   1.00
H1558  H     0.74716   0.61373   0.63339   0.00000  Uiso   1.00
H1559  H     0.82906   0.72471   0.44421   0.00000  Uiso   1.00
H1560  H     0.88105   0.74676   0.45445   0.00000  Uiso   1.00
H1561  H     0.85881   0.75034   0.39953   0.00000  Uiso   1.00
H1562  H     0.91132   0.68623   0.40163   0.00000  Uiso   1.00
H1563  H     0.85907   0.66819   0.39254   0.00000  Uiso   1.00
H1564  H     0.96289   0.84948   0.37498   0.00000  Uiso   1.00
H1565  H     0.65162   0.86770   0.62929   0.00000  Uiso   1.00
H1566  H     0.62105   0.91396   0.60449   0.00000  Uiso   1.00
H1567  H     0.59886   0.87921   0.64784   0.00000  Uiso   1.00
H1568  H     0.56864   0.85657   0.58093   0.00000  Uiso   1.00
H1569  H     0.60478   0.81034   0.59608   0.00000  Uiso   1.00
H1570  H     0.66088   0.86010   0.37359   0.00000  Uiso   1.00
H1571  H     0.67664   0.81486   0.41169   0.00000  Uiso   1.00
H1572  H     0.64937   0.80255   0.36061   0.00000  Uiso   1.00
H1573  H     0.59888   0.79702   0.41483   0.00000  Uiso   1.00
H1574  H     0.58624   0.84964   0.38958   0.00000  Uiso   1.00
H1575  H     0.50253   0.66659   0.58461   0.00000  Uiso   1.00
H1576  H     0.86818   0.62319   0.63893   0.00000  Uiso   1.00
H1577  H     0.88371   0.57566   0.60368   0.00000  Uiso   1.00
H1578  H     0.92013   0.59935   0.64243   0.00000  Uiso   1.00
H1579  H     0.94149   0.62837   0.57380   0.00000  Uiso   1.00
H1580  H     0.91195   0.67551   0.59853   0.00000  Uiso   1.00
H1581  H     0.68440   0.66006   0.58426   0.00000  Uiso   1.00
H1582  H     0.66121   0.71274   0.56359   0.00000  Uiso   1.00
H1583  H     0.66323   0.70131   0.62255   0.00000  Uiso   1.00
H1584  H     0.59188   0.69017   0.59475   0.00000  Uiso   1.00
H1585  H     0.61376   0.63832   0.61478   0.00000  Uiso   1.00
H1586  H     0.53833   0.64936   0.62762   0.00000  Uiso   1.00
H1587  H     0.93600   0.96992   0.48583   0.00000  Uiso   1.00
H1588  H     0.96551   0.93205   0.52268   0.00000  Uiso   1.00
H1589  H     0.99212   0.96144   0.47811   0.00000  Uiso   1.00
H1590  H     0.98140   0.88101   0.46171   0.00000  Uiso   1.00
H1591  H     0.95465   0.91730   0.42216   0.00000  Uiso   1.00
H1592  H     0.82651   0.79733   0.54403   0.00000  Uiso   1.00
H1593  H     0.87484   0.76336   0.54139   0.00000  Uiso   1.00
H1594  H     0.84467   0.76599   0.59227   0.00000  Uiso   1.00
H1595  H     0.90869   0.81427   0.59659   0.00000  Uiso   1.00
H1596  H     0.85975   0.84212   0.60531   0.00000  Uiso   1.00
H1597  H     0.98302   0.64084   0.63300   0.00000  Uiso   1.00
H1598  H     0.61741   0.70427   0.36199   0.00000  Uiso   1.00
H1599  H     0.64890   0.65513   0.37819   0.00000  Uiso   1.00
H1600  H     0.59370   0.65844   0.39309   0.00000  Uiso   1.00
H1601  H     0.61165   0.72983   0.43816   0.00000  Uiso   1.00
H1602  H     0.66488   0.71883   0.42739   0.00000  Uiso   1.00
H1603  H     0.58125   0.97135   0.45624   0.00000  Uiso   1.00
H1604  H     0.63260   0.99826   0.45184   0.00000  Uiso   1.00
H1605  H     0.59839   0.99707   0.40475   0.00000  Uiso   1.00
H1606  H     0.65918   0.93826   0.40250   0.00000  Uiso   1.00
H1607  H     0.60750   0.91945   0.39406   0.00000  Uiso   1.00
H1608  H     0.50110   0.66619   0.41764   0.00000  Uiso   1.00
H1609  H     0.83568   0.68971   0.60584   0.00000  Uiso   1.00
H1610  H     0.80894   0.70622   0.55435   0.00000  Uiso   1.00
H1611  H     0.77901   0.68906   0.60253   0.00000  Uiso   1.00
H1612  H     0.78029   0.62984   0.54915   0.00000  Uiso   1.00
H1613  H     0.81133   0.61013   0.59649   0.00000  Uiso   1.00
H1614  H     0.92171   0.54399   0.44252   0.00000  Uiso   1.00
H1615  H     0.87279   0.51475   0.45296   0.00000  Uiso   1.00
H1616  H     0.89521   0.51577   0.39777   0.00000  Uiso   1.00
H1617  H     0.83514   0.57244   0.40148   0.00000  Uiso   1.00
H1618  H     0.88479   0.59676   0.39097   0.00000  Uiso   1.00
H1619  H     0.97017   0.64678   0.37342   0.00000  Uiso   1.00
H1620  H     0.67906   0.78120   0.52674   0.00000  Uiso   1.00
H1621  H     0.70945   0.81133   0.48510   0.00000  Uiso   1.00
H1622  H     0.73543   0.78721   0.53345   0.00000  Uiso   1.00
H1623  H     0.72688   0.86959   0.53908   0.00000  Uiso   1.00
H1624  H     0.69818   0.84060   0.58223   0.00000  Uiso   1.00
H1625  H     0.91876   0.97505   0.57012   0.00000  Uiso   1.00
H1626  H     0.86721   0.99631   0.55357   0.00000  Uiso   1.00
H1627  H     0.88196   0.99506   0.61144   0.00000  Uiso   1.00
H1628  H     0.83548   0.93054   0.60015   0.00000  Uiso   1.00
H1629  H     0.88800   0.91205   0.61078   0.00000  Uiso   1.00
H1630  H     0.52696   0.64234   0.37157   0.00000  Uiso   1.00
H1631  H     0.71059   0.72202   0.48162   0.00000  Uiso   1.00
H1632  H     0.72831   0.68356   0.52470   0.00000  Uiso   1.00
H1633  H     0.76277   0.69747   0.47910   0.00000  Uiso   1.00
H1634  H     0.73614   0.62302   0.46971   0.00000  Uiso   1.00
H1635  H     0.71433   0.65865   0.42626   0.00000  Uiso   1.00
H1636  H     0.57712   0.53047   0.51665   0.00000  Uiso   1.00
H1637  H     0.62696   0.50026   0.52629   0.00000  Uiso   1.00
H1638  H     0.58506   0.99581   0.56589   0.00000  Uiso   1.00
H1639  H     0.64481   0.54911   0.58791   0.00000  Uiso   1.00
H1640  H     0.59229   0.57079   0.59011   0.00000  Uiso   1.00
N1641  N     0.50000   0.75000   0.61907   0.00000  Uiso   1.00
N1642  N     0.50000   0.75000   0.38093   0.00000  Uiso   1.00
N1643  N     0.75000   0.50000   0.61907   0.00000  Uiso   1.00
N1644  N     0.75000   0.50000   0.38093   0.00000  Uiso   1.00
O1645  O     0.54580   0.70419   0.53821   0.00000  Uiso   1.00
O1646  O     0.70419   0.54581   0.46179   0.00000  Uiso   1.00
O1647  O     0.70419   0.54581   0.53821   0.00000  Uiso   1.00
O1648  O     0.79580   0.95419   0.46179   0.00000  Uiso   1.00
O1649  O     0.70419   0.95419   0.46179   0.00000  Uiso   1.00
O1650  O     0.79580   0.54581   0.53821   0.00000  Uiso   1.00
O1651  O     0.79580   0.54581   0.46179   0.00000  Uiso   1.00
O1652  O     0.70419   0.95419   0.53821   0.00000  Uiso   1.00
O1653  O     0.95419   0.79581   0.46179   0.00000  Uiso   1.00
O1654  O     0.95419   0.79581   0.53821   0.00000  Uiso   1.00
O1655  O     0.54580   0.70419   0.46179   0.00000  Uiso   1.00
O1656  O     0.95419   0.70419   0.46179   0.00000  Uiso   1.00
O1657  O     0.54580   0.79581   0.53821   0.00000  Uiso   1.00
O1658  O     0.54580   0.79581   0.46179   0.00000  Uiso   1.00
O1659  O     0.95419   0.70419   0.53821   0.00000  Uiso   1.00
O1660  O     0.79580   0.95419   0.53821   0.00000  Uiso   1.00
Zn1661 Zn    0.50000   0.75000   0.55104   0.00000  Uiso   1.00
Zn1662 Zn    0.50000   0.75000   0.44896   0.00000  Uiso   1.00
Zn1663 Zn    0.75000   0.50000   0.55104   0.00000  Uiso   1.00
Zn1664 Zn    0.75000   0.50000   0.44896   0.00000  Uiso   1.00
C1665  C     0.06287   0.19360   0.83379   0.00000  Uiso   1.00
C1666  C     0.00237   0.20993   0.97663   0.00000  Uiso   1.00
C1667  C     0.00131   0.20985   0.69100   0.00000  Uiso   1.00
C1668  C     0.49748   0.29008   0.97578   0.00000  Uiso   1.00
C1669  C     0.24766   0.03982   0.69003   0.00000  Uiso   1.00
C1670  C     0.25165   0.45999   0.97662   0.00000  Uiso   1.00
C1671  C     0.25093   0.45991   0.69095   0.00000  Uiso   1.00
C1672  C     0.24556   0.03971   0.97594   0.00000  Uiso   1.00
C1673  C     0.38286   0.15069   0.79209   0.00000  Uiso   1.00
C1674  C     0.12035   0.35033   0.87059   0.00000  Uiso   1.00
C1675  C     0.11241   0.35664   0.78977   0.00000  Uiso   1.00
C1676  C     0.44075   0.31087   0.83375   0.00000  Uiso   1.00
C1677  C     0.38493   0.14408   0.87325   0.00000  Uiso   1.00
C1678  C     0.10884   0.14084   0.87542   0.00000  Uiso   1.00
C1679  C     0.41288   0.38138   0.80116   0.00000  Uiso   1.00
C1680  C     0.38872   0.35965   0.87491   0.00000  Uiso   1.00
C1681  C     0.13450   0.16844   0.80400   0.00000  Uiso   1.00
C1682  C     0.13380   0.39806   0.79180   0.00000  Uiso   1.00
C1683  C     0.34616   0.12293   0.86959   0.00000  Uiso   1.00
C1684  C     0.36108   0.10982   0.79135   0.00000  Uiso   1.00
C1685  C     0.15834   0.37248   0.86462   0.00000  Uiso   1.00
C1686  C     0.36831   0.40179   0.87572   0.00000  Uiso   1.00
C1687  C     0.43893   0.19123   0.83342   0.00000  Uiso   1.00
C1688  C     0.16848   0.13759   0.80965   0.00000  Uiso   1.00
C1689  C     0.12918   0.09933   0.86906   0.00000  Uiso   1.00
C1690  C     0.37530   0.40587   0.79495   0.00000  Uiso   1.00
C1691  C     0.09838   0.33816   0.83127   0.00000  Uiso   1.00
C1692  C     0.40208   0.16204   0.83316   0.00000  Uiso   1.00
C1693  C     0.41228   0.34942   0.83591   0.00000  Uiso   1.00
C1694  C     0.10227   0.16751   0.83680   0.00000  Uiso   1.00
C1695  C     0.33949   0.09746   0.83103   0.00000  Uiso   1.00
C1696  C     0.15923   0.40469   0.83030   0.00000  Uiso   1.00
C1697  C     0.16082   0.09801   0.83552   0.00000  Uiso   1.00
C1698  C     0.06140   0.30864   0.83298   0.00000  Uiso   1.00
C1699  C     0.35252   0.41770   0.83429   0.00000  Uiso   1.00
C1700  C     0.49480   0.33459   0.71344   0.00000  Uiso   1.00
C1701  C     0.00691   0.16474   0.95376   0.00000  Uiso   1.00
C1702  C     0.49994   0.16435   0.71498   0.00000  Uiso   1.00
C1703  C     0.49355   0.33560   0.95216   0.00000  Uiso   1.00
C1704  C     0.24609   0.08463   0.71301   0.00000  Uiso   1.00
C1705  C     0.25109   0.41493   0.95359   0.00000  Uiso   1.00
C1706  C     0.24858   0.41460   0.71468   0.00000  Uiso   1.00
C1707  C     0.23294   0.08302   0.95244   0.00000  Uiso   1.00
C1708  C     0.38033   0.18236   0.75154   0.00000  Uiso   1.00
C1709  C     0.31256   0.44304   0.83341   0.00000  Uiso   1.00
C1710  C     0.36125   0.22884   0.76335   0.00000  Uiso   1.00
C1711  C     0.10206   0.34601   0.91709   0.00000  Uiso   1.00
C1712  C     0.11981   0.37877   0.95152   0.00000  Uiso   1.00
C1713  C     0.10918   0.33216   0.74505   0.00000  Uiso   1.00
C1714  C     0.15183   0.32723   0.72158   0.00000  Uiso   1.00
C1715  C     0.40971   0.14135   0.91664   0.00000  Uiso   1.00
C1716  C     0.39408   0.10781   0.95224   0.00000  Uiso   1.00
C1717  C     0.11559   0.16348   0.92048   0.00000  Uiso   1.00
C1718  C     0.15885   0.18571   0.92273   0.00000  Uiso   1.00
C1719  C     0.45429   0.40465   0.79026   0.00000  Uiso   1.00
C1720  C     0.19014   0.06020   0.83362   0.00000  Uiso   1.00
C1721  C     0.46226   0.44453   0.82118   0.00000  Uiso   1.00
C1722  C     0.37980   0.32610   0.91257   0.00000  Uiso   1.00
C1723  C     0.35503   0.28568   0.89611   0.00000  Uiso   1.00
C1724  C     0.13415   0.20190   0.76526   0.00000  Uiso   1.00
C1725  C     0.12282   0.17841   0.72196   0.00000  Uiso   1.00
C1726  C     0.12893   0.43234   0.75331   0.00000  Uiso   1.00
C1727  C     0.10910   0.47740   0.76783   0.00000  Uiso   1.00
C1728  C     0.31019   0.13380   0.90108   0.00000  Uiso   1.00
C1729  C     0.30870   0.18284   0.91688   0.00000  Uiso   1.00
C1730  C     0.36588   0.07967   0.75056   0.00000  Uiso   1.00
C1731  C     0.19014   0.44014   0.83281   0.00000  Uiso   1.00
C1732  C     0.39023   0.03582   0.76184   0.00000  Uiso   1.00
C1733  C     0.19892   0.34864   0.87960   0.00000  Uiso   1.00
C1734  C     0.20602   0.30433   0.85461   0.00000  Uiso   1.00
C1735  C     0.36742   0.42890   0.91877   0.00000  Uiso   1.00
C1736  C     0.38482   0.47675   0.91276   0.00000  Uiso   1.00
C1737  C     0.21311   0.15058   0.79563   0.00000  Uiso   1.00
C1738  C     0.22942   0.19091   0.82187   0.00000  Uiso   1.00
C1739  C     0.11781   0.05999   0.90015   0.00000  Uiso   1.00
C1740  C     0.10067   0.01929   0.87538   0.00000  Uiso   1.00
C1741  C     0.35699   0.41163   0.74851   0.00000  Uiso   1.00
C1742  C     0.30929   0.06073   0.83277   0.00000  Uiso   1.00
C1743  C     0.38040   0.38773   0.71057   0.00000  Uiso   1.00
C1744  C     0.49809   0.28993   0.69006   0.00000  Uiso   1.00
H1745  H     0.00057   0.33067   0.74847   0.00000  Uiso   1.00
H1746  H     0.49747   0.33414   0.91628   0.00000  Uiso   1.00
H1747  H     0.40889   0.40683   0.70061   0.00000  Uiso   1.00
H1748  H     0.38866   0.35205   0.71984   0.00000  Uiso   1.00
H1749  H     0.35923   0.38673   0.68117   0.00000  Uiso   1.00
H1750  H     0.32588   0.39525   0.74997   0.00000  Uiso   1.00
H1751  H     0.35304   0.44816   0.73978   0.00000  Uiso   1.00
H1752  H     0.46258   0.35195   0.95974   0.00000  Uiso   1.00
H1753  H     0.01835   0.35884   0.96357   0.00000  Uiso   1.00
H1754  H     0.25068   0.08058   0.74815   0.00000  Uiso   1.00
H1755  H     0.27220   0.10665   0.70143   0.00000  Uiso   1.00
H1756  H     0.21493   0.10149   0.70706   0.00000  Uiso   1.00
H1757  H     0.25171   0.41855   0.91796   0.00000  Uiso   1.00
H1758  H     0.27893   0.39355   0.96285   0.00000  Uiso   1.00
H1759  H     0.22175   0.39689   0.96253   0.00000  Uiso   1.00
H1760  H     0.25091   0.41603   0.75067   0.00000  Uiso   1.00
H1761  H     0.01880   0.35890   0.70177   0.00000  Uiso   1.00
H1762  H     0.21817   0.39890   0.70690   0.00000  Uiso   1.00
H1763  H     0.27397   0.39123   0.70321   0.00000  Uiso   1.00
H1764  H     0.24412   0.08243   0.91856   0.00000  Uiso   1.00
H1765  H     0.19812   0.08740   0.95359   0.00000  Uiso   1.00
H1766  H     0.24716   0.11373   0.96673   0.00000  Uiso   1.00
H1767  H     0.32906   0.22471   0.77754   0.00000  Uiso   1.00
H1768  H     0.38105   0.24676   0.78778   0.00000  Uiso   1.00
H1769  H     0.35881   0.25034   0.73286   0.00000  Uiso   1.00
H1770  H     0.41132   0.18623   0.73496   0.00000  Uiso   1.00
H1771  H     0.35907   0.16819   0.72588   0.00000  Uiso   1.00
H1772  H     0.46289   0.34948   0.70831   0.00000  Uiso   1.00
H1773  H     0.15162   0.36770   0.96262   0.00000  Uiso   1.00
H1774  H     0.12105   0.41396   0.93782   0.00000  Uiso   1.00
H1775  H     0.09886   0.37921   0.98118   0.00000  Uiso   1.00
H1776  H     0.06864   0.35657   0.91426   0.00000  Uiso   1.00
H1777  H     0.10478   0.31034   0.92942   0.00000  Uiso   1.00
H1778  H     0.16088   0.36010   0.70692   0.00000  Uiso   1.00
H1779  H     0.17664   0.31486   0.74503   0.00000  Uiso   1.00
H1780  H     0.14937   0.30255   0.69394   0.00000  Uiso   1.00
H1781  H     0.09888   0.29702   0.74817   0.00000  Uiso   1.00
H1782  H     0.08624   0.34964   0.72291   0.00000  Uiso   1.00
H1783  H     0.00253   0.16659   0.91795   0.00000  Uiso   1.00
H1784  H     0.36818   0.12319   0.97226   0.00000  Uiso   1.00
H1785  H     0.38371   0.07566   0.93701   0.00000  Uiso   1.00
H1786  H     0.42013   0.09935   0.97577   0.00000  Uiso   1.00
H1787  H     0.44149   0.12837   0.90713   0.00000  Uiso   1.00
H1788  H     0.41195   0.17551   0.93186   0.00000  Uiso   1.00
H1789  H     0.18440   0.16006   0.91760   0.00000  Uiso   1.00
H1790  H     0.16121   0.21274   0.89693   0.00000  Uiso   1.00
H1791  H     0.16323   0.20131   0.95588   0.00000  Uiso   1.00
H1792  H     0.09188   0.19017   0.92809   0.00000  Uiso   1.00
H1793  H     0.11376   0.13832   0.94812   0.00000  Uiso   1.00
H1794  H     0.03833   0.14936   0.96095   0.00000  Uiso   1.00
H1795  H     0.43600   0.46992   0.81917   0.00000  Uiso   1.00
H1796  H     0.46551   0.43205   0.85601   0.00000  Uiso   1.00
H1797  H     0.49212   0.46144   0.81144   0.00000  Uiso   1.00
H1798  H     0.48140   0.38101   0.79505   0.00000  Uiso   1.00
H1799  H     0.45465   0.41730   0.75550   0.00000  Uiso   1.00
H1800  H     0.32651   0.29733   0.87736   0.00000  Uiso   1.00
H1801  H     0.37484   0.26336   0.87472   0.00000  Uiso   1.00
H1802  H     0.34467   0.26599   0.92561   0.00000  Uiso   1.00
H1803  H     0.40869   0.31427   0.92993   0.00000  Uiso   1.00
H1804  H     0.35975   0.34212   0.93865   0.00000  Uiso   1.00
H1805  H     0.48302   0.14084   0.96633   0.00000  Uiso   1.00
H1806  H     0.11741   0.20427   0.69532   0.00000  Uiso   1.00
H1807  H     0.14890   0.15513   0.71153   0.00000  Uiso   1.00
H1808  H     0.09370   0.15844   0.72642   0.00000  Uiso   1.00
H1809  H     0.11165   0.22983   0.77149   0.00000  Uiso   1.00
H1810  H     0.16488   0.21883   0.76073   0.00000  Uiso   1.00
H1811  H     0.08125   0.47135   0.78958   0.00000  Uiso   1.00
H1812  H     0.13260   0.49826   0.78517   0.00000  Uiso   1.00
H1813  H     0.09839   0.49707   0.73808   0.00000  Uiso   1.00
H1814  H     0.15918   0.43826   0.73583   0.00000  Uiso   1.00
H1815  H     0.10750   0.41945   0.72739   0.00000  Uiso   1.00
H1816  H     0.00110   0.16619   0.75097   0.00000  Uiso   1.00
H1817  H     0.33568   0.18971   0.93918   0.00000  Uiso   1.00
H1818  H     0.30894   0.20622   0.88768   0.00000  Uiso   1.00
H1819  H     0.27901   0.18906   0.93586   0.00000  Uiso   1.00
H1820  H     0.28029   0.12984   0.88249   0.00000  Uiso   1.00
H1821  H     0.31133   0.11013   0.92983   0.00000  Uiso   1.00
H1822  H     0.42171   0.04399   0.77585   0.00000  Uiso   1.00
H1823  H     0.37279   0.01475   0.78629   0.00000  Uiso   1.00
H1824  H     0.39521   0.01577   0.73110   0.00000  Uiso   1.00
H1825  H     0.33514   0.07244   0.73481   0.00000  Uiso   1.00
H1826  H     0.38479   0.09676   0.72431   0.00000  Uiso   1.00
H1827  H     0.47017   0.14678   0.70675   0.00000  Uiso   1.00
H1828  H     0.17906   0.28120   0.86008   0.00000  Uiso   1.00
H1829  H     0.20945   0.31133   0.81844   0.00000  Uiso   1.00
H1830  H     0.23543   0.28721   0.86678   0.00000  Uiso   1.00
H1831  H     0.22688   0.36959   0.87241   0.00000  Uiso   1.00
H1832  H     0.19818   0.34060   0.91556   0.00000  Uiso   1.00
H1833  H     0.41876   0.47505   0.90345   0.00000  Uiso   1.00
H1834  H     0.36721   0.49631   0.88690   0.00000  Uiso   1.00
H1835  H     0.38196   0.49506   0.94477   0.00000  Uiso   1.00
H1836  H     0.33548   0.43054   0.93349   0.00000  Uiso   1.00
H1837  H     0.38800   0.41205   0.94411   0.00000  Uiso   1.00
H1838  H     0.02696   0.14234   0.70490   0.00000  Uiso   1.00
H1839  H     0.21059   0.22202   0.81495   0.00000  Uiso   1.00
H1840  H     0.22831   0.18356   0.85804   0.00000  Uiso   1.00
H1841  H     0.26277   0.19747   0.81243   0.00000  Uiso   1.00
H1842  H     0.23614   0.12302   0.80304   0.00000  Uiso   1.00
H1843  H     0.21433   0.15865   0.75960   0.00000  Uiso   1.00
H1844  H     0.07712   0.03047   0.84998   0.00000  Uiso   1.00
H1845  H     0.12696   0.00026   0.85963   0.00000  Uiso   1.00
H1846  H     0.08506   0.49581   0.89922   0.00000  Uiso   1.00
H1847  H     0.14481   0.04911   0.92124   0.00000  Uiso   1.00
H1848  H     0.09229   0.07079   0.92344   0.00000  Uiso   1.00
N1849  N    -0.00000   0.25000   0.95240   0.00000  Uiso   1.00
N1850  N     0.00000   0.25000   0.71427   0.00000  Uiso   1.00
N1851  N     0.25000  -0.00000   0.95240   0.00000  Uiso   1.00
N1852  N     0.25000  -0.00000   0.71427   0.00000  Uiso   1.00
O1853  O     0.04580   0.20419   0.87154   0.00000  Uiso   1.00
O1854  O     0.20419   0.04581   0.79513   0.00000  Uiso   1.00
O1855  O     0.20419   0.04581   0.87154   0.00000  Uiso   1.00
O1856  O     0.29580   0.45419   0.79513   0.00000  Uiso   1.00
O1857  O     0.20419   0.45419   0.79513   0.00000  Uiso   1.00
O1858  O     0.29580   0.04581   0.87154   0.00000  Uiso   1.00
O1859  O     0.29580   0.04581   0.79513   0.00000  Uiso   1.00
O1860  O     0.20419   0.45419   0.87154   0.00000  Uiso   1.00
O1861  O     0.45419   0.29581   0.79513   0.00000  Uiso   1.00
O1862  O     0.45419   0.29581   0.87154   0.00000  Uiso   1.00
O1863  O     0.04580   0.20419   0.79513   0.00000  Uiso   1.00
O1864  O     0.45419   0.20419   0.79513   0.00000  Uiso   1.00
O1865  O     0.04580   0.29581   0.87154   0.00000  Uiso   1.00
O1866  O     0.04580   0.29581   0.79513   0.00000  Uiso   1.00
O1867  O     0.45419   0.20419   0.87154   0.00000  Uiso   1.00
O1868  O     0.29580   0.45419   0.87154   0.00000  Uiso   1.00
Zn1869 Zn    0.00000   0.25000   0.88437   0.00000  Uiso   1.00
Zn1870 Zn    0.00000   0.25000   0.78229   0.00000  Uiso   1.00
Zn1871 Zn    0.25000  -0.00000   0.88437   0.00000  Uiso   1.00
Zn1872 Zn    0.25000  -0.00000   0.78229   0.00000  Uiso   1.00
C1873  C     0.56287   0.19360   0.83379   0.00000  Uiso   1.00
C1874  C     0.50237   0.20993   0.97663   0.00000  Uiso   1.00
C1875  C     0.50131   0.20985   0.69100   0.00000  Uiso   1.00
C1876  C     0.99748   0.29008   0.97578   0.00000  Uiso   1.00
C1877  C     0.74766   0.03982   0.69003   0.00000  Uiso   1.00
C1878  C     0.75165   0.45999   0.97662   0.00000  Uiso   1.00
C1879  C     0.75093   0.45991   0.69095   0.00000  Uiso   1.00
C1880  C     0.74556   0.03971   0.97594   0.00000  Uiso   1.00
C1881  C     0.88286   0.15069   0.79209   0.00000  Uiso   1.00
C1882  C     0.62035   0.35033   0.87059   0.00000  Uiso   1.00
C1883  C     0.61241   0.35664   0.78977   0.00000  Uiso   1.00
C1884  C     0.94075   0.31087   0.83375   0.00000  Uiso   1.00
C1885  C     0.88493   0.14408   0.87325   0.00000  Uiso   1.00
C1886  C     0.60884   0.14084   0.87542   0.00000  Uiso   1.00
C1887  C     0.91288   0.38138   0.80116   0.00000  Uiso   1.00
C1888  C     0.88872   0.35965   0.87491   0.00000  Uiso   1.00
C1889  C     0.63450   0.16844   0.80400   0.00000  Uiso   1.00
C1890  C     0.63380   0.39806   0.79180   0.00000  Uiso   1.00
C1891  C     0.84616   0.12293   0.86959   0.00000  Uiso   1.00
C1892  C     0.86108   0.10982   0.79135   0.00000  Uiso   1.00
C1893  C     0.65834   0.37248   0.86462   0.00000  Uiso   1.00
C1894  C     0.86831   0.40179   0.87572   0.00000  Uiso   1.00
C1895  C     0.93893   0.19123   0.83342   0.00000  Uiso   1.00
C1896  C     0.66848   0.13759   0.80965   0.00000  Uiso   1.00
C1897  C     0.62918   0.09933   0.86906   0.00000  Uiso   1.00
C1898  C     0.87530   0.40587   0.79495   0.00000  Uiso   1.00
C1899  C     0.59838   0.33816   0.83127   0.00000  Uiso   1.00
C1900  C     0.90208   0.16204   0.83316   0.00000  Uiso   1.00
C1901  C     0.91228   0.34942   0.83591   0.00000  Uiso   1.00
C1902  C     0.60227   0.16751   0.83680   0.00000  Uiso   1.00
C1903  C     0.83949   0.09746   0.83103   0.00000  Uiso   1.00
C1904  C     0.65923   0.40469   0.83030   0.00000  Uiso   1.00
C1905  C     0.66082   0.09801   0.83552   0.00000  Uiso   1.00
C1906  C     0.56140   0.30864   0.83298   0.00000  Uiso   1.00
C1907  C     0.85252   0.41770   0.83429   0.00000  Uiso   1.00
C1908  C     0.99480   0.33459   0.71344   0.00000  Uiso   1.00
C1909  C     0.50691   0.16474   0.95376   0.00000  Uiso   1.00
C1910  C     0.99994   0.16435   0.71498   0.00000  Uiso   1.00
C1911  C     0.99355   0.33560   0.95216   0.00000  Uiso   1.00
C1912  C     0.74609   0.08463   0.71301   0.00000  Uiso   1.00
C1913  C     0.75109   0.41493   0.95359   0.00000  Uiso   1.00
C1914  C     0.74858   0.41460   0.71468   0.00000  Uiso   1.00
C1915  C     0.73294   0.08302   0.95244   0.00000  Uiso   1.00
C1916  C     0.88033   0.18236   0.75154   0.00000  Uiso   1.00
C1917  C     0.81256   0.44304   0.83341   0.00000  Uiso   1.00
C1918  C     0.86125   0.22884   0.76335   0.00000  Uiso   1.00
C1919  C     0.60206   0.34601   0.91709   0.00000  Uiso   1.00
C1920  C     0.61981   0.37877   0.95152   0.00000  Uiso   1.00
C1921  C     0.60918   0.33216   0.74505   0.00000  Uiso   1.00
C1922  C     0.65183   0.32723   0.72158   0.00000  Uiso   1.00
C1923  C     0.90971   0.14135   0.91664   0.00000  Uiso   1.00
C1924  C     0.89408   0.10781   0.95224   0.00000  Uiso   1.00
C1925  C     0.61559   0.16348   0.92048   0.00000  Uiso   1.00
C1926  C     0.65885   0.18571   0.92273   0.00000  Uiso   1.00
C1927  C     0.95429   0.40465   0.79026   0.00000  Uiso   1.00
C1928  C     0.69014   0.06020   0.83362   0.00000  Uiso   1.00
C1929  C     0.96226   0.44453   0.82118   0.00000  Uiso   1.00
C1930  C     0.87980   0.32610   0.91257   0.00000  Uiso   1.00
C1931  C     0.85503   0.28568   0.89611   0.00000  Uiso   1.00
C1932  C     0.63415   0.20190   0.76526   0.00000  Uiso   1.00
C1933  C     0.62282   0.17841   0.72196   0.00000  Uiso   1.00
C1934  C     0.62893   0.43234   0.75331   0.00000  Uiso   1.00
C1935  C     0.60910   0.47740   0.76783   0.00000  Uiso   1.00
C1936  C     0.81019   0.13380   0.90108   0.00000  Uiso   1.00
C1937  C     0.80870   0.18284   0.91688   0.00000  Uiso   1.00
C1938  C     0.86588   0.07967   0.75056   0.00000  Uiso   1.00
C1939  C     0.69014   0.44014   0.83281   0.00000  Uiso   1.00
C1940  C     0.89023   0.03582   0.76184   0.00000  Uiso   1.00
C1941  C     0.69892   0.34864   0.87960   0.00000  Uiso   1.00
C1942  C     0.70602   0.30433   0.85461   0.00000  Uiso   1.00
C1943  C     0.86742   0.42890   0.91877   0.00000  Uiso   1.00
C1944  C     0.88482   0.47675   0.91276   0.00000  Uiso   1.00
C1945  C     0.71311   0.15058   0.79563   0.00000  Uiso   1.00
C1946  C     0.72942   0.19091   0.82187   0.00000  Uiso   1.00
C1947  C     0.61781   0.05999   0.90015   0.00000  Uiso   1.00
C1948  C     0.60067   0.01929   0.87538   0.00000  Uiso   1.00
C1949  C     0.85699   0.41163   0.74851   0.00000  Uiso   1.00
C1950  C     0.80929   0.06073   0.83277   0.00000  Uiso   1.00
C1951  C     0.88040   0.38773   0.71057   0.00000  Uiso   1.00
C1952  C     0.99809   0.28993   0.69006   0.00000  Uiso   1.00
H1953  H     0.50057   0.33067   0.74847   0.00000  Uiso   1.00
H1954  H     0.99747   0.33414   0.91628   0.00000  Uiso   1.00
H1955  H     0.90889   0.40683   0.70061   0.00000  Uiso   1.00
H1956  H     0.88866   0.35205   0.71984   0.00000  Uiso   1.00
H1957  H     0.85923   0.38673   0.68117   0.00000  Uiso   1.00
H1958  H     0.82588   0.39525   0.74997   0.00000  Uiso   1.00
H1959  H     0.85304   0.44816   0.73978   0.00000  Uiso   1.00
H1960  H     0.96258   0.35195   0.95974   0.00000  Uiso   1.00
H1961  H     0.51835   0.35884   0.96357   0.00000  Uiso   1.00
H1962  H     0.75068   0.08058   0.74815   0.00000  Uiso   1.00
H1963  H     0.77220   0.10665   0.70143   0.00000  Uiso   1.00
H1964  H     0.71493   0.10149   0.70706   0.00000  Uiso   1.00
H1965  H     0.75171   0.41855   0.91796   0.00000  Uiso   1.00
H1966  H     0.77893   0.39355   0.96285   0.00000  Uiso   1.00
H1967  H     0.72175   0.39689   0.96253   0.00000  Uiso   1.00
H1968  H     0.75091   0.41603   0.75067   0.00000  Uiso   1.00
H1969  H     0.51880   0.35890   0.70177   0.00000  Uiso   1.00
H1970  H     0.71817   0.39890   0.70690   0.00000  Uiso   1.00
H1971  H     0.77397   0.39123   0.70321   0.00000  Uiso   1.00
H1972  H     0.74412   0.08243   0.91856   0.00000  Uiso   1.00
H1973  H     0.69812   0.08740   0.95359   0.00000  Uiso   1.00
H1974  H     0.74716   0.11373   0.96673   0.00000  Uiso   1.00
H1975  H     0.82906   0.22471   0.77754   0.00000  Uiso   1.00
H1976  H     0.88105   0.24676   0.78778   0.00000  Uiso   1.00
H1977  H     0.85881   0.25034   0.73286   0.00000  Uiso   1.00
H1978  H     0.91132   0.18623   0.73496   0.00000  Uiso   1.00
H1979  H     0.85907   0.16819   0.72588   0.00000  Uiso   1.00
H1980  H     0.96289   0.34948   0.70831   0.00000  Uiso   1.00
H1981  H     0.65162   0.36770   0.96262   0.00000  Uiso   1.00
H1982  H     0.62105   0.41396   0.93782   0.00000  Uiso   1.00
H1983  H     0.59886   0.37921   0.98118   0.00000  Uiso   1.00
H1984  H     0.56864   0.35657   0.91426   0.00000  Uiso   1.00
H1985  H     0.60478   0.31034   0.92942   0.00000  Uiso   1.00
H1986  H     0.66088   0.36010   0.70692   0.00000  Uiso   1.00
H1987  H     0.67664   0.31486   0.74503   0.00000  Uiso   1.00
H1988  H     0.64937   0.30255   0.69394   0.00000  Uiso   1.00
H1989  H     0.59888   0.29702   0.74817   0.00000  Uiso   1.00
H1990  H     0.58624   0.34964   0.72291   0.00000  Uiso   1.00
H1991  H     0.50253   0.16659   0.91795   0.00000  Uiso   1.00
H1992  H     0.86818   0.12319   0.97226   0.00000  Uiso   1.00
H1993  H     0.88371   0.07566   0.93701   0.00000  Uiso   1.00
H1994  H     0.92013   0.09935   0.97577   0.00000  Uiso   1.00
H1995  H     0.94149   0.12837   0.90713   0.00000  Uiso   1.00
H1996  H     0.91195   0.17551   0.93186   0.00000  Uiso   1.00
H1997  H     0.68440   0.16006   0.91760   0.00000  Uiso   1.00
H1998  H     0.66121   0.21274   0.89693   0.00000  Uiso   1.00
H1999  H     0.66323   0.20131   0.95588   0.00000  Uiso   1.00
H2000  H     0.59188   0.19017   0.92809   0.00000  Uiso   1.00
H2001  H     0.61376   0.13832   0.94812   0.00000  Uiso   1.00
H2002  H     0.53833   0.14936   0.96095   0.00000  Uiso   1.00
H2003  H     0.93600   0.46992   0.81917   0.00000  Uiso   1.00
H2004  H     0.96551   0.43205   0.85601   0.00000  Uiso   1.00
H2005  H     0.99212   0.46144   0.81144   0.00000  Uiso   1.00
H2006  H     0.98140   0.38101   0.79505   0.00000  Uiso   1.00
H2007  H     0.95465   0.41730   0.75550   0.00000  Uiso   1.00
H2008  H     0.82651   0.29733   0.87736   0.00000  Uiso   1.00
H2009  H     0.87484   0.26336   0.87472   0.00000  Uiso   1.00
H2010  H     0.84467   0.26599   0.92561   0.00000  Uiso   1.00
H2011  H     0.90869   0.31427   0.92993   0.00000  Uiso   1.00
H2012  H     0.85975   0.34212   0.93865   0.00000  Uiso   1.00
H2013  H     0.98302   0.14084   0.96633   0.00000  Uiso   1.00
H2014  H     0.61741   0.20427   0.69532   0.00000  Uiso   1.00
H2015  H     0.64890   0.15513   0.71153   0.00000  Uiso   1.00
H2016  H     0.59370   0.15844   0.72642   0.00000  Uiso   1.00
H2017  H     0.61165   0.22983   0.77149   0.00000  Uiso   1.00
H2018  H     0.66488   0.21883   0.76073   0.00000  Uiso   1.00
H2019  H     0.58125   0.47135   0.78958   0.00000  Uiso   1.00
H2020  H     0.63260   0.49826   0.78517   0.00000  Uiso   1.00
H2021  H     0.59839   0.49707   0.73808   0.00000  Uiso   1.00
H2022  H     0.65918   0.43826   0.73583   0.00000  Uiso   1.00
H2023  H     0.60750   0.41945   0.72739   0.00000  Uiso   1.00
H2024  H     0.50110   0.16619   0.75097   0.00000  Uiso   1.00
H2025  H     0.83568   0.18971   0.93918   0.00000  Uiso   1.00
H2026  H     0.80894   0.20622   0.88768   0.00000  Uiso   1.00
H2027  H     0.77901   0.18906   0.93586   0.00000  Uiso   1.00
H2028  H     0.78029   0.12984   0.88249   0.00000  Uiso   1.00
H2029  H     0.81133   0.11013   0.92983   0.00000  Uiso   1.00
H2030  H     0.92171   0.04399   0.77585   0.00000  Uiso   1.00
H2031  H     0.87279   0.01475   0.78629   0.00000  Uiso   1.00
H2032  H     0.89521   0.01577   0.73110   0.00000  Uiso   1.00
H2033  H     0.83514   0.07244   0.73481   0.00000  Uiso   1.00
H2034  H     0.88479   0.09676   0.72431   0.00000  Uiso   1.00
H2035  H     0.97017   0.14678   0.70675   0.00000  Uiso   1.00
H2036  H     0.67906   0.28120   0.86008   0.00000  Uiso   1.00
H2037  H     0.70945   0.31133   0.81844   0.00000  Uiso   1.00
H2038  H     0.73543   0.28721   0.86678   0.00000  Uiso   1.00
H2039  H     0.72688   0.36959   0.87241   0.00000  Uiso   1.00
H2040  H     0.69818   0.34060   0.91556   0.00000  Uiso   1.00
H2041  H     0.91876   0.47505   0.90345   0.00000  Uiso   1.00
H2042  H     0.86721   0.49631   0.88690   0.00000  Uiso   1.00
H2043  H     0.88196   0.49506   0.94477   0.00000  Uiso   1.00
H2044  H     0.83548   0.43054   0.93349   0.00000  Uiso   1.00
H2045  H     0.88800   0.41205   0.94411   0.00000  Uiso   1.00
H2046  H     0.52696   0.14234   0.70490   0.00000  Uiso   1.00
H2047  H     0.71059   0.22202   0.81495   0.00000  Uiso   1.00
H2048  H     0.72831   0.18356   0.85804   0.00000  Uiso   1.00
H2049  H     0.76277   0.19747   0.81243   0.00000  Uiso   1.00
H2050  H     0.73614   0.12302   0.80304   0.00000  Uiso   1.00
H2051  H     0.71433   0.15865   0.75960   0.00000  Uiso   1.00
H2052  H     0.57712   0.03047   0.84998   0.00000  Uiso   1.00
H2053  H     0.62696   0.00026   0.85963   0.00000  Uiso   1.00
H2054  H     0.58506   0.49581   0.89922   0.00000  Uiso   1.00
H2055  H     0.64481   0.04911   0.92124   0.00000  Uiso   1.00
H2056  H     0.59229   0.07079   0.92344   0.00000  Uiso   1.00
N2057  N     0.50000   0.25000   0.95240   0.00000  Uiso   1.00
N2058  N     0.50000   0.25000   0.71427   0.00000  Uiso   1.00
N2059  N     0.75000  -0.00000   0.95240   0.00000  Uiso   1.00
N2060  N     0.75000  -0.00000   0.71427   0.00000  Uiso   1.00
O2061  O     0.54580   0.20419   0.87154   0.00000  Uiso   1.00
O2062  O     0.70419   0.04581   0.79513   0.00000  Uiso   1.00
O2063  O     0.70419   0.04581   0.87154   0.00000  Uiso   1.00
O2064  O     0.79580   0.45419   0.79513   0.00000  Uiso   1.00
O2065  O     0.70419   0.45419   0.79513   0.00000  Uiso   1.00
O2066  O     0.79580   0.04581   0.87154   0.00000  Uiso   1.00
O2067  O     0.79580   0.04581   0.79513   0.00000  Uiso   1.00
O2068  O     0.70419   0.45419   0.87154   0.00000  Uiso   1.00
O2069  O     0.95419   0.29581   0.79513   0.00000  Uiso   1.00
O2070  O     0.95419   0.29581   0.87154   0.00000  Uiso   1.00
O2071  O     0.54580   0.20419   0.79513   0.00000  Uiso   1.00
O2072  O     0.95419   0.20419   0.79513   0.00000  Uiso   1.00
O2073  O     0.54580   0.29581   0.87154   0.00000  Uiso   1.00
O2074  O     0.54580   0.29581   0.79513   0.00000  Uiso   1.00
O2075  O     0.95419   0.20419   0.87154   0.00000  Uiso   1.00
O2076  O     0.79580   0.45419   0.87154   0.00000  Uiso   1.00
Zn2077 Zn    0.50000   0.25000   0.88437   0.00000  Uiso   1.00
Zn2078 Zn    0.50000   0.25000   0.78229   0.00000  Uiso   1.00
Zn2079 Zn    0.75000  -0.00000   0.88437   0.00000  Uiso   1.00
Zn2080 Zn    0.75000  -0.00000   0.78229   0.00000  Uiso   1.00
C2081  C     0.06287   0.69360   0.83379   0.00000  Uiso   1.00
C2082  C     0.00237   0.70993   0.97663   0.00000  Uiso   1.00
C2083  C     0.00131   0.70985   0.69100   0.00000  Uiso   1.00
C2084  C     0.49748   0.79008   0.97578   0.00000  Uiso   1.00
C2085  C     0.24766   0.53982   0.69003   0.00000  Uiso   1.00
C2086  C     0.25165   0.95999   0.97662   0.00000  Uiso   1.00
C2087  C     0.25093   0.95991   0.69095   0.00000  Uiso   1.00
C2088  C     0.24556   0.53971   0.97594   0.00000  Uiso   1.00
C2089  C     0.38286   0.65069   0.79209   0.00000  Uiso   1.00
C2090  C     0.12035   0.85033   0.87059   0.00000  Uiso   1.00
C2091  C     0.11241   0.85664   0.78977   0.00000  Uiso   1.00
C2092  C     0.44075   0.81087   0.83375   0.00000  Uiso   1.00
C2093  C     0.38493   0.64408   0.87325   0.00000  Uiso   1.00
C2094  C     0.10884   0.64084   0.87542   0.00000  Uiso   1.00
C2095  C     0.41288   0.88138   0.80116   0.00000  Uiso   1.00
C2096  C     0.38872   0.85965   0.87491   0.00000  Uiso   1.00
C2097  C     0.13450   0.66844   0.80400   0.00000  Uiso   1.00
C2098  C     0.13380   0.89806   0.79180   0.00000  Uiso   1.00
C2099  C     0.34616   0.62293   0.86959   0.00000  Uiso   1.00
C2100  C     0.36108   0.60982   0.79135   0.00000  Uiso   1.00
C2101  C     0.15834   0.87248   0.86462   0.00000  Uiso   1.00
C2102  C     0.36831   0.90179   0.87572   0.00000  Uiso   1.00
C2103  C     0.43893   0.69123   0.83342   0.00000  Uiso   1.00
C2104  C     0.16848   0.63759   0.80965   0.00000  Uiso   1.00
C2105  C     0.12918   0.59933   0.86906   0.00000  Uiso   1.00
C2106  C     0.37530   0.90587   0.79495   0.00000  Uiso   1.00
C2107  C     0.09838   0.83816   0.83127   0.00000  Uiso   1.00
C2108  C     0.40208   0.66204   0.83316   0.00000  Uiso   1.00
C2109  C     0.41228   0.84942   0.83591   0.00000  Uiso   1.00
C2110  C     0.10227   0.66751   0.83680   0.00000  Uiso   1.00
C2111  C     0.33949   0.59746   0.83103   0.00000  Uiso   1.00
C2112  C     0.15923   0.90469   0.83030   0.00000  Uiso   1.00
C2113  C     0.16082   0.59801   0.83552   0.00000  Uiso   1.00
C2114  C     0.06140   0.80864   0.83298   0.00000  Uiso   1.00
C2115  C     0.35252   0.91770   0.83429   0.00000  Uiso   1.00
C2116  C     0.49480   0.83459   0.71344   0.00000  Uiso   1.00
C2117  C     0.00691   0.66474   0.95376   0.00000  Uiso   1.00
C2118  C     0.49994   0.66435   0.71498   0.00000  Uiso   1.00
C2119  C     0.49355   0.83560   0.95216   0.00000  Uiso   1.00
C2120  C     0.24609   0.58463   0.71301   0.00000  Uiso   1.00
C2121  C     0.25109   0.91493   0.95359   0.00000  Uiso   1.00
C2122  C     0.24858   0.91460   0.71468   0.00000  Uiso   1.00
C2123  C     0.23294   0.58302   0.95244   0.00000  Uiso   1.00
C2124  C     0.38033   0.68236   0.75154   0.00000  Uiso   1.00
C2125  C     0.31256   0.94304   0.83341   0.00000  Uiso   1.00
C2126  C     0.36125   0.72884   0.76335   0.00000  Uiso   1.00
C2127  C     0.10206   0.84601   0.91709   0.00000  Uiso   1.00
C2128  C     0.11981   0.87877   0.95152   0.00000  Uiso   1.00
C2129  C     0.10918   0.83216   0.74505   0.00000  Uiso   1.00
C2130  C     0.15183   0.82723   0.72158   0.00000  Uiso   1.00
C2131  C     0.40971   0.64135   0.91664   0.00000  Uiso   1.00
C2132  C     0.39408   0.60781   0.95224   0.00000  Uiso   1.00
C2133  C     0.11559   0.66348   0.92048   0.00000  Uiso   1.00
C2134  C     0.15885   0.68571   0.92273   0.00000  Uiso   1.00
C2135  C     0.45429   0.90465   0.79026   0.00000  Uiso   1.00
C2136  C     0.19014   0.56020   0.83362   0.00000  Uiso   1.00
C2137  C     0.46226   0.94453   0.82118   0.00000  Uiso   1.00
C2138  C     0.37980   0.82610   0.91257   0.00000  Uiso   1.00
C2139  C     0.35503   0.78568   0.89611   0.00000  Uiso   1.00
C2140  C     0.13415   0.70190   0.76526   0.00000  Uiso   1.00
C2141  C     0.12282   0.67841   0.72196   0.00000  Uiso   1.00
C2142  C     0.12893   0.93234   0.75331   0.00000  Uiso   1.00
C2143  C     0.10910   0.97740   0.76783   0.00000  Uiso   1.00
C2144  C     0.31019   0.63380   0.90108   0.00000  Uiso   1.00
C2145  C     0.30870   0.68284   0.91688   0.00000  Uiso   1.00
C2146  C     0.36588   0.57967   0.75056   0.00000  Uiso   1.00
C2147  C     0.19014   0.94014   0.83281   0.00000  Uiso   1.00
C2148  C     0.39023   0.53582   0.76184   0.00000  Uiso   1.00
C2149  C     0.19892   0.84864   0.87960   0.00000  Uiso   1.00
C2150  C     0.20602   0.80433   0.85461   0.00000  Uiso   1.00
C2151  C     0.36742   0.92890   0.91877   0.00000  Uiso   1.00
C2152  C     0.38482   0.97675   0.91276   0.00000  Uiso   1.00
C2153  C     0.21311   0.65058   0.79563   0.00000  Uiso   1.00
C2154  C     0.22942   0.69091   0.82187   0.00000  Uiso   1.00
C2155  C     0.11781   0.55999   0.90015   0.00000  Uiso   1.00
C2156  C     0.10067   0.51929   0.87538   0.00000  Uiso   1.00
C2157  C     0.35699   0.91163   0.74851   0.00000  Uiso   1.00
C2158  C     0.30929   0.56073   0.83277   0.00000  Uiso   1.00
C2159  C     0.38040   0.88773   0.71057   0.00000  Uiso   1.00
C2160  C     0.49809   0.78993   0.69006   0.00000  Uiso   1.00
H2161  H     0.00057   0.83067   0.74847   0.00000  Uiso   1.00
H2162  H     0.49747   0.83414   0.91628   0.00000  Uiso   1.00
H2163  H     0.40889   0.90683   0.70061   0.00000  Uiso   1.00
H2164  H     0.38866   0.85205   0.71984   0.00000  Uiso   1.00
H2165  H     0.35923   0.88673   0.68117   0.00000  Uiso   1.00
H2166  H     0.32588   0.89525   0.74997   0.00000  Uiso   1.00
H2167  H     0.35304   0.94816   0.73978   0.00000  Uiso   1.00
H2168  H     0.46258   0.85195   0.95974   0.00000  Uiso   1.00
H2169  H     0.01835   0.85884   0.96357   0.00000  Uiso   1.00
H2170  H     0.25068   0.58058   0.74815   0.00000  Uiso   1.00
H2171  H     0.27220   0.60665   0.70143   0.00000  Uiso   1.00
H2172  H     0.21493   0.60149   0.70706   0.00000  Uiso   1.00
H2173  H     0.25171   0.91855   0.91796   0.00000  Uiso   1.00
H2174  H     0.27893   0.89355   0.96285   0.00000  Uiso   1.00
H2175  H     0.22175   0.89689   0.96253   0.00000  Uiso   1.00
H2176  H     0.25091   0.91603   0.75067   0.00000  Uiso   1.00
H2177  H     0.01880   0.85890   0.70177   0.00000  Uiso   1.00
H2178  H     0.21817   0.89890   0.70690   0.00000  Uiso   1.00
H2179  H     0.27397   0.89123   0.70321   0.00000  Uiso   1.00
H2180  H     0.24412   0.58243   0.91856   0.00000  Uiso   1.00
H2181  H     0.19812   0.58740   0.95359   0.00000  Uiso   1.00
H2182  H     0.24716   0.61373   0.96673   0.00000  Uiso   1.00
H2183  H     0.32906   0.72471   0.77754   0.00000  Uiso   1.00
H2184  H     0.38105   0.74676   0.78778   0.00000  Uiso   1.00
H2185  H     0.35881   0.75034   0.73286   0.00000  Uiso   1.00
H2186  H     0.41132   0.68623   0.73496   0.00000  Uiso   1.00
H2187  H     0.35907   0.66819   0.72588   0.00000  Uiso   1.00
H2188  H     0.46289   0.84948   0.70831   0.00000  Uiso   1.00
H2189  H     0.15162   0.86770   0.96262   0.00000  Uiso   1.00
H2190  H     0.12105   0.91396   0.93782   0.00000  Uiso   1.00
H2191  H     0.09886   0.87921   0.98118   0.00000  Uiso   1.00
H2192  H     0.06864   0.85657   0.91426   0.00000  Uiso   1.00
H2193  H     0.10478   0.81034   0.92942   0.00000  Uiso   1.00
H2194  H     0.16088   0.86010   0.70692   0.00000  Uiso   1.00
H2195  H     0.17664   0.81486   0.74503   0.00000  Uiso   1.00
H2196  H     0.14937   0.80255   0.69394   0.00000  Uiso   1.00
H2197  H     0.09888   0.79702   0.74817   0.00000  Uiso   1.00
H2198  H     0.08624   0.84964   0.72291   0.00000  Uiso   1.00
H2199  H     0.00253   0.66659   0.91795   0.00000  Uiso   1.00
H2200  H     0.36818   0.62319   0.97226   0.00000  Uiso   1.00
H2201  H     0.38371   0.57566   0.93701   0.00000  Uiso   1.00
H2202  H     0.42013   0.59935   0.97577   0.00000  Uiso   1.00
H2203  H     0.44149   0.62837   0.90713   0.00000  Uiso   1.00
H2204  H     0.41195   0.67551   0.93186   0.00000  Uiso   1.00
H2205  H     0.18440   0.66006   0.91760   0.00000  Uiso   1.00
H2206  H     0.16121   0.71274   0.89693   0.00000  Uiso   1.00
H2207  H     0.16323   0.70131   0.95588   0.00000  Uiso   1.00
H2208  H     0.09188   0.69017   0.92809   0.00000  Uiso   1.00
H2209  H     0.11376   0.63832   0.94812   0.00000  Uiso   1.00
H2210  H     0.03833   0.64936   0.96095   0.00000  Uiso   1.00
H2211  H     0.43600   0.96992   0.81917   0.00000  Uiso   1.00
H2212  H     0.46551   0.93205   0.85601   0.00000  Uiso   1.00
H2213  H     0.49212   0.96144   0.81144   0.00000  Uiso   1.00
H2214  H     0.48140   0.88101   0.79505   0.00000  Uiso   1.00
H2215  H     0.45465   0.91730   0.75550   0.00000  Uiso   1.00
H2216  H     0.32651   0.79733   0.87736   0.00000  Uiso   1.00
H2217  H     0.37484   0.76336   0.87472   0.00000  Uiso   1.00
H2218  H     0.34467   0.76599   0.92561   0.00000  Uiso   1.00
H2219  H     0.40869   0.81427   0.92993   0.00000  Uiso   1.00
H2220  H     0.35975   0.84212   0.93865   0.00000  Uiso   1.00
H2221  H     0.48302   0.64084   0.96633   0.00000  Uiso   1.00
H2222  H     0.11741   0.70427   0.69532   0.00000  Uiso   1.00
H2223  H     0.14890   0.65513   0.71153   0.00000  Uiso   1.00
H2224  H     0.09370   0.65844   0.72642   0.00000  Uiso   1.00
H2225  H     0.11165   0.72983   0.77149   0.00000  Uiso   1.00
H2226  H     0.16488   0.71883   0.76073   0.00000  Uiso   1.00
H2227  H     0.08125   0.97135   0.78958   0.00000  Uiso   1.00
H2228  H     0.13260   0.99826   0.78517   0.00000  Uiso   1.00
H2229  H     0.09839   0.99707   0.73808   0.00000  Uiso   1.00
H2230  H     0.15918   0.93826   0.73583   0.00000  Uiso   1.00
H2231  H     0.10750   0.91945   0.72739   0.00000  Uiso   1.00
H2232  H     0.00110   0.66619   0.75097   0.00000  Uiso   1.00
H2233  H     0.33568   0.68971   0.93918   0.00000  Uiso   1.00
H2234  H     0.30894   0.70622   0.88768   0.00000  Uiso   1.00
H2235  H     0.27901   0.68906   0.93586   0.00000  Uiso   1.00
H2236  H     0.28029   0.62984   0.88249   0.00000  Uiso   1.00
H2237  H     0.31133   0.61013   0.92983   0.00000  Uiso   1.00
H2238  H     0.42171   0.54399   0.77585   0.00000  Uiso   1.00
H2239  H     0.37279   0.51475   0.78629   0.00000  Uiso   1.00
H2240  H     0.39521   0.51577   0.73110   0.00000  Uiso   1.00
H2241  H     0.33514   0.57244   0.73481   0.00000  Uiso   1.00
H2242  H     0.38479   0.59676   0.72431   0.00000  Uiso   1.00
H2243  H     0.47017   0.64678   0.70675   0.00000  Uiso   1.00
H2244  H     0.17906   0.78120   0.86008   0.00000  Uiso   1.00
H2245  H     0.20945   0.81133   0.81844   0.00000  Uiso   1.00
H2246  H     0.23543   0.78721   0.86678   0.00000  Uiso   1.00
H2247  H     0.22688   0.86959   0.87241   0.00000  Uiso   1.00
H2248  H     0.19818   0.84060   0.91556   0.00000  Uiso   1.00
H2249  H     0.41876   0.97505   0.90345   0.00000  Uiso   1.00
H2250  H     0.36721   0.99631   0.88690   0.00000  Uiso   1.00
H2251  H     0.38196   0.99506   0.94477   0.00000  Uiso   1.00
H2252  H     0.33548   0.93054   0.93349   0.00000  Uiso   1.00
H2253  H     0.38800   0.91205   0.94411   0.00000  Uiso   1.00
H2254  H     0.02696   0.64234   0.70490   0.00000  Uiso   1.00
H2255  H     0.21059   0.72202   0.81495   0.00000  Uiso   1.00
H2256  H     0.22831   0.68356   0.85804   0.00000  Uiso   1.00
H2257  H     0.26277   0.69747   0.81243   0.00000  Uiso   1.00
H2258  H     0.23614   0.62302   0.80304   0.00000  Uiso   1.00
H2259  H     0.21433   0.65865   0.75960   0.00000  Uiso   1.00
H2260  H     0.07712   0.53047   0.84998   0.00000  Uiso   1.00
H2261  H     0.12696   0.50026   0.85963   0.00000  Uiso   1.00
H2262  H     0.08506   0.99581   0.89922   0.00000  Uiso   1.00
H2263  H     0.14481   0.54911   0.92124   0.00000  Uiso   1.00
H2264  H     0.09229   0.57079   0.92344   0.00000  Uiso   1.00
N2265  N    -0.00000   0.75000   0.95240   0.00000  Uiso   1.00
N2266  N     0.00000   0.75000   0.71427   0.00000  Uiso   1.00
N2267  N     0.25000   0.50000   0.95240   0.00000  Uiso   1.00
N2268  N     0.25000   0.50000   0.71427   0.00000  Uiso   1.00
O2269  O     0.04580   0.70419   0.87154   0.00000  Uiso   1.00
O2270  O     0.20419   0.54581   0.79513   0.00000  Uiso   1.00
O2271  O     0.20419   0.54581   0.87154   0.00000  Uiso   1.00
O2272  O     0.29580   0.95419   0.79513   0.00000  Uiso   1.00
O2273  O     0.20419   0.95419   0.79513   0.00000  Uiso   1.00
O2274  O     0.29580   0.54581   0.87154   0.00000  Uiso   1.00
O2275  O     0.29580   0.54581   0.79513   0.00000  Uiso   1.00
O2276  O     0.20419   0.95419   0.87154   0.00000  Uiso   1.00
O2277  O     0.45419   0.79581   0.79513   0.00000  Uiso   1.00
O2278  O     0.45419   0.79581   0.87154   0.00000  Uiso   1.00
O2279  O     0.04580   0.70419   0.79513   0.00000  Uiso   1.00
O2280  O     0.45419   0.70419   0.79513   0.00000  Uiso   1.00
O2281  O     0.04580   0.79581   0.87154   0.00000  Uiso   1.00
O2282  O     0.04580   0.79581   0.79513   0.00000  Uiso   1.00
O2283  O     0.45419   0.70419   0.87154   0.00000  Uiso   1.00
O2284  O     0.29580   0.95419   0.87154   0.00000  Uiso   1.00
Zn2285 Zn    0.00000   0.75000   0.88437   0.00000  Uiso   1.00
Zn2286 Zn    0.00000   0.75000   0.78229   0.00000  Uiso   1.00
Zn2287 Zn    0.25000   0.50000   0.88437   0.00000  Uiso   1.00
Zn2288 Zn    0.25000   0.50000   0.78229   0.00000  Uiso   1.00
C2289  C     0.56287   0.69360   0.83379   0.00000  Uiso   1.00
C2290  C     0.50237   0.70993   0.97663   0.00000  Uiso   1.00
C2291  C     0.50131   0.70985   0.69100   0.00000  Uiso   1.00
C2292  C     0.99748   0.79008   0.97578   0.00000  Uiso   1.00
C2293  C     0.74766   0.53982   0.69003   0.00000  Uiso   1.00
C2294  C     0.75165   0.95999   0.97662   0.00000  Uiso   1.00
C2295  C     0.75093   0.95991   0.69095   0.00000  Uiso   1.00
C2296  C     0.74556   0.53971   0.97594   0.00000  Uiso   1.00
C2297  C     0.88286   0.65069   0.79209   0.00000  Uiso   1.00
C2298  C     0.62035   0.85033   0.87059   0.00000  Uiso   1.00
C2299  C     0.61241   0.85664   0.78977   0.00000  Uiso   1.00
C2300  C     0.94075   0.81087   0.83375   0.00000  Uiso   1.00
C2301  C     0.88493   0.64408   0.87325   0.00000  Uiso   1.00
C2302  C     0.60884   0.64084   0.87542   0.00000  Uiso   1.00
C2303  C     0.91288   0.88138   0.80116   0.00000  Uiso   1.00
C2304  C     0.88872   0.85965   0.87491   0.00000  Uiso   1.00
C2305  C     0.63450   0.66844   0.80400   0.00000  Uiso   1.00
C2306  C     0.63380   0.89806   0.79180   0.00000  Uiso   1.00
C2307  C     0.84616   0.62293   0.86959   0.00000  Uiso   1.00
C2308  C     0.86108   0.60982   0.79135   0.00000  Uiso   1.00
C2309  C     0.65834   0.87248   0.86462   0.00000  Uiso   1.00
C2310  C     0.86831   0.90179   0.87572   0.00000  Uiso   1.00
C2311  C     0.93893   0.69123   0.83342   0.00000  Uiso   1.00
C2312  C     0.66848   0.63759   0.80965   0.00000  Uiso   1.00
C2313  C     0.62918   0.59933   0.86906   0.00000  Uiso   1.00
C2314  C     0.87530   0.90587   0.79495   0.00000  Uiso   1.00
C2315  C     0.59838   0.83816   0.83127   0.00000  Uiso   1.00
C2316  C     0.90208   0.66204   0.83316   0.00000  Uiso   1.00
C2317  C     0.91228   0.84942   0.83591   0.00000  Uiso   1.00
C2318  C     0.60227   0.66751   0.83680   0.00000  Uiso   1.00
C2319  C     0.83949   0.59746   0.83103   0.00000  Uiso   1.00
C2320  C     0.65923   0.90469   0.83030   0.00000  Uiso   1.00
C2321  C     0.66082   0.59801   0.83552   0.00000  Uiso   1.00
C2322  C     0.56140   0.80864   0.83298   0.00000  Uiso   1.00
C2323  C     0.85252   0.91770   0.83429   0.00000  Uiso   1.00
C2324  C     0.99480   0.83459   0.71344   0.00000  Uiso   1.00
C2325  C     0.50691   0.66474   0.95376   0.00000  Uiso   1.00
C2326  C     0.99994   0.66435   0.71498   0.00000  Uiso   1.00
C2327  C     0.99355   0.83560   0.95216   0.00000  Uiso   1.00
C2328  C     0.74609   0.58463   0.71301   0.00000  Uiso   1.00
C2329  C     0.75109   0.91493   0.95359   0.00000  Uiso   1.00
C2330  C     0.74858   0.91460   0.71468   0.00000  Uiso   1.00
C2331  C     0.73294   0.58302   0.95244   0.00000  Uiso   1.00
C2332  C     0.88033   0.68236   0.75154   0.00000  Uiso   1.00
C2333  C     0.81256   0.94304   0.83341   0.00000  Uiso   1.00
C2334  C     0.86125   0.72884   0.76335   0.00000  Uiso   1.00
C2335  C     0.60206   0.84601   0.91709   0.00000  Uiso   1.00
C2336  C     0.61981   0.87877   0.95152   0.00000  Uiso   1.00
C2337  C     0.60918   0.83216   0.74505   0.00000  Uiso   1.00
C2338  C     0.65183   0.82723   0.72158   0.00000  Uiso   1.00
C2339  C     0.90971   0.64135   0.91664   0.00000  Uiso   1.00
C2340  C     0.89408   0.60781   0.95224   0.00000  Uiso   1.00
C2341  C     0.61559   0.66348   0.92048   0.00000  Uiso   1.00
C2342  C     0.65885   0.68571   0.92273   0.00000  Uiso   1.00
C2343  C     0.95429   0.90465   0.79026   0.00000  Uiso   1.00
C2344  C     0.69014   0.56020   0.83362   0.00000  Uiso   1.00
C2345  C     0.96226   0.94453   0.82118   0.00000  Uiso   1.00
C2346  C     0.87980   0.82610   0.91257   0.00000  Uiso   1.00
C2347  C     0.85503   0.78568   0.89611   0.00000  Uiso   1.00
C2348  C     0.63415   0.70190   0.76526   0.00000  Uiso   1.00
C2349  C     0.62282   0.67841   0.72196   0.00000  Uiso   1.00
C2350  C     0.62893   0.93234   0.75331   0.00000  Uiso   1.00
C2351  C     0.60910   0.97740   0.76783   0.00000  Uiso   1.00
C2352  C     0.81019   0.63380   0.90108   0.00000  Uiso   1.00
C2353  C     0.80870   0.68284   0.91688   0.00000  Uiso   1.00
C2354  C     0.86588   0.57967   0.75056   0.00000  Uiso   1.00
C2355  C     0.69014   0.94014   0.83281   0.00000  Uiso   1.00
C2356  C     0.89023   0.53582   0.76184   0.00000  Uiso   1.00
C2357  C     0.69892   0.84864   0.87960   0.00000  Uiso   1.00
C2358  C     0.70602   0.80433   0.85461   0.00000  Uiso   1.00
C2359  C     0.86742   0.92890   0.91877   0.00000  Uiso   1.00
C2360  C     0.88482   0.97675   0.91276   0.00000  Uiso   1.00
C2361  C     0.71311   0.65058   0.79563   0.00000  Uiso   1.00
C2362  C     0.72942   0.69091   0.82187   0.00000  Uiso   1.00
C2363  C     0.61781   0.55999   0.90015   0.00000  Uiso   1.00
C2364  C     0.60067   0.51929   0.87538   0.00000  Uiso   1.00
C2365  C     0.85699   0.91163   0.74851   0.00000  Uiso   1.00
C2366  C     0.80929   0.56073   0.83277   0.00000  Uiso   1.00
C2367  C     0.88040   0.88773   0.71057   0.00000  Uiso   1.00
C2368  C     0.99809   0.78993   0.69006   0.00000  Uiso   1.00
H2369  H     0.50057   0.83067   0.74847   0.00000  Uiso   1.00
H2370  H     0.99747   0.83414   0.91628   0.00000  Uiso   1.00
H2371  H     0.90889   0.90683   0.70061   0.00000  Uiso   1.00
H2372  H     0.88866   0.85205   0.71984   0.00000  Uiso   1.00
H2373  H     0.85923   0.88673   0.68117   0.00000  Uiso   1.00
H2374  H     0.82588   0.89525   0.74997   0.00000  Uiso   1.00
H2375  H     0.85304   0.94816   0.73978   0.00000  Uiso   1.00
H2376  H     0.96258   0.85195   0.95974   0.00000  Uiso   1.00
H2377  H     0.51835   0.85884   0.96357   0.00000  Uiso   1.00
H2378  H     0.75068   0.58058   0.74815   0.00000  Uiso   1.00
H2379  H     0.77220   0.60665   0.70143   0.00000  Uiso   1.00
H2380  H     0.71493   0.60149   0.70706   0.00000  Uiso   1.00
H2381  H     0.75171   0.91855   0.91796   0.00000  Uiso   1.00
H2382  H     0.77893   0.89355   0.96285   0.00000  Uiso   1.00
H2383  H     0.72175   0.89689   0.96253   0.00000  Uiso   1.00
H2384  H     0.75091   0.91603   0.75067   0.00000  Uiso   1.00
H2385  H     0.51880   0.85890   0.70177   0.00000  Uiso   1.00
H2386  H     0.71817   0.89890   0.70690   0.00000  Uiso   1.00
H2387  H     0.77397   0.89123   0.70321   0.00000  Uiso   1.00
H2388  H     0.74412   0.58243   0.91856   0.00000  Uiso   1.00
H2389  H     0.69812   0.58740   0.95359   0.00000  Uiso   1.00
H2390  H     0.74716   0.61373   0.96673   0.00000  Uiso   1.00
H2391  H     0.82906   0.72471   0.77754   0.00000  Uiso   1.00
H2392  H     0.88105   0.74676   0.78778   0.00000  Uiso   1.00
H2393  H     0.85881   0.75034   0.73286   0.00000  Uiso   1.00
H2394  H     0.91132   0.68623   0.73496   0.00000  Uiso   1.00
H2395  H     0.85907   0.66819   0.72588   0.00000  Uiso   1.00
H2396  H     0.96289   0.84948   0.70831   0.00000  Uiso   1.00
H2397  H     0.65162   0.86770   0.96262   0.00000  Uiso   1.00
H2398  H     0.62105   0.91396   0.93782   0.00000  Uiso   1.00
H2399  H     0.59886   0.87921   0.98118   0.00000  Uiso   1.00
H2400  H     0.56864   0.85657   0.91426   0.00000  Uiso   1.00
H2401  H     0.60478   0.81034   0.92942   0.00000  Uiso   1.00
H2402  H     0.66088   0.86010   0.70692   0.00000  Uiso   1.00
H2403  H     0.67664   0.81486   0.74503   0.00000  Uiso   1.00
H2404  H     0.64937   0.80255   0.69394   0.00000  Uiso   1.00
H2405  H     0.59888   0.79702   0.74817   0.00000  Uiso   1.00
H2406  H     0.58624   0.84964   0.72291   0.00000  Uiso   1.00
H2407  H     0.50253   0.66659   0.91795   0.00000  Uiso   1.00
H2408  H     0.86818   0.62319   0.97226   0.00000  Uiso   1.00
H2409  H     0.88371   0.57566   0.93701   0.00000  Uiso   1.00
H2410  H     0.92013   0.59935   0.97577   0.00000  Uiso   1.00
H2411  H     0.94149   0.62837   0.90713   0.00000  Uiso   1.00
H2412  H     0.91195   0.67551   0.93186   0.00000  Uiso   1.00
H2413  H     0.68440   0.66006   0.91760   0.00000  Uiso   1.00
H2414  H     0.66121   0.71274   0.89693   0.00000  Uiso   1.00
H2415  H     0.66323   0.70131   0.95588   0.00000  Uiso   1.00
H2416  H     0.59188   0.69017   0.92809   0.00000  Uiso   1.00
H2417  H     0.61376   0.63832   0.94812   0.00000  Uiso   1.00
H2418  H     0.53833   0.64936   0.96095   0.00000  Uiso   1.00
H2419  H     0.93600   0.96992   0.81917   0.00000  Uiso   1.00
H2420  H     0.96551   0.93205   0.85601   0.00000  Uiso   1.00
H2421  H     0.99212   0.96144   0.81144   0.00000  Uiso   1.00
H2422  H     0.98140   0.88101   0.79505   0.00000  Uiso   1.00
H2423  H     0.95465   0.91730   0.75550   0.00000  Uiso   1.00
H2424  H     0.82651   0.79733   0.87736   0.00000  Uiso   1.00
H2425  H     0.87484   0.76336   0.87472   0.00000  Uiso   1.00
H2426  H     0.84467   0.76599   0.92561   0.00000  Uiso   1.00
H2427  H     0.90869   0.81427   0.92993   0.00000  Uiso   1.00
H2428  H     0.85975   0.84212   0.93865   0.00000  Uiso   1.00
H2429  H     0.98302   0.64084   0.96633   0.00000  Uiso   1.00
H2430  H     0.61741   0.70427   0.69532   0.00000  Uiso   1.00
H2431  H     0.64890   0.65513   0.71153   0.00000  Uiso   1.00
H2432  H     0.59370   0.65844   0.72642   0.00000  Uiso   1.00
H2433  H     0.61165   0.72983   0.77149   0.00000  Uiso   1.00
H2434  H     0.66488   0.71883   0.76073   0.00000  Uiso   1.00
H2435  H     0.58125   0.97135   0.78958   0.00000  Uiso   1.00
H2436  H     0.63260   0.99826   0.78517   0.00000  Uiso   1.00
H2437  H     0.59839   0.99707   0.73808   0.00000  Uiso   1.00
H2438  H     0.65918   0.93826   0.73583   0.00000  Uiso   1.00
H2439  H     0.60750   0.91945   0.72739   0.00000  Uiso   1.00
H2440  H     0.50110   0.66619   0.75097   0.00000  Uiso   1.00
H2441  H     0.83568   0.68971   0.93918   0.00000  Uiso   1.00
H2442  H     0.80894   0.70622   0.88768   0.00000  Uiso   1.00
H2443  H     0.77901   0.68906   0.93586   0.00000  Uiso   1.00
H2444  H     0.78029   0.62984   0.88249   0.00000  Uiso   1.00
H2445  H     0.81133   0.61013   0.92983   0.00000  Uiso   1.00
H2446  H     0.92171   0.54399   0.77585   0.00000  Uiso   1.00
H2447  H     0.87279   0.51475   0.78629   0.00000  Uiso   1.00
H2448  H     0.89521   0.51577   0.73110   0.00000  Uiso   1.00
H2449  H     0.83514   0.57244   0.73481   0.00000  Uiso   1.00
H2450  H     0.88479   0.59676   0.72431   0.00000  Uiso   1.00
H2451  H     0.97017   0.64678   0.70675   0.00000  Uiso   1.00
H2452  H     0.67906   0.78120   0.86008   0.00000  Uiso   1.00
H2453  H     0.70945   0.81133   0.81844   0.00000  Uiso   1.00
H2454  H     0.73543   0.78721   0.86678   0.00000  Uiso   1.00
H2455  H     0.72688   0.86959   0.87241   0.00000  Uiso   1.00
H2456  H     0.69818   0.84060   0.91556   0.00000  Uiso   1.00
H2457  H     0.91876   0.97505   0.90345   0.00000  Uiso   1.00
H2458  H     0.86721   0.99631   0.88690   0.00000  Uiso   1.00
H2459  H     0.88196   0.99506   0.94477   0.00000  Uiso   1.00
H2460  H     0.83548   0.93054   0.93349   0.00000  Uiso   1.00
H2461  H     0.88800   0.91205   0.94411   0.00000  Uiso   1.00
H2462  H     0.52696   0.64234   0.70490   0.00000  Uiso   1.00
H2463  H     0.71059   0.72202   0.81495   0.00000  Uiso   1.00
H2464  H     0.72831   0.68356   0.85804   0.00000  Uiso   1.00
H2465  H     0.76277   0.69747   0.81243   0.00000  Uiso   1.00
H2466  H     0.73614   0.62302   0.80304   0.00000  Uiso   1.00
H2467  H     0.71433   0.65865   0.75960   0.00000  Uiso   1.00
H2468  H     0.57712   0.53047   0.84998   0.00000  Uiso   1.00
H2469  H     0.62696   0.50026   0.85963   0.00000  Uiso   1.00
H2470  H     0.58506   0.99581   0.89922   0.00000  Uiso   1.00
H2471  H     0.64481   0.54911   0.92124   0.00000  Uiso   1.00
H2472  H     0.59229   0.57079   0.92344   0.00000  Uiso   1.00
N2473  N     0.50000   0.75000   0.95240   0.00000  Uiso   1.00
N2474  N     0.50000   0.75000   0.71427   0.00000  Uiso   1.00
N2475  N     0.75000   0.50000   0.95240   0.00000  Uiso   1.00
N2476  N     0.75000   0.50000   0.71427   0.00000  Uiso   1.00
O2477  O     0.54580   0.70419   0.87154   0.00000  Uiso   1.00
O2478  O     0.70419   0.54581   0.79513   0.00000  Uiso   1.00
O2479  O     0.70419   0.54581   0.87154   0.00000  Uiso   1.00
O2480  O     0.79580   0.95419   0.79513   0.00000  Uiso   1.00
O2481  O     0.70419   0.95419   0.79513   0.00000  Uiso   1.00
O2482  O     0.79580   0.54581   0.87154   0.00000  Uiso   1.00
O2483  O     0.79580   0.54581   0.79513   0.00000  Uiso   1.00
O2484  O     0.70419   0.95419   0.87154   0.00000  Uiso   1.00
O2485  O     0.95419   0.79581   0.79513   0.00000  Uiso   1.00
O2486  O     0.95419   0.79581   0.87154   0.00000  Uiso   1.00
O2487  O     0.54580   0.70419   0.79513   0.00000  Uiso   1.00
O2488  O     0.95419   0.70419   0.79513   0.00000  Uiso   1.00
O2489  O     0.54580   0.79581   0.87154   0.00000  Uiso   1.00
O2490  O     0.54580   0.79581   0.79513   0.00000  Uiso   1.00
O2491  O     0.95419   0.70419   0.87154   0.00000  Uiso   1.00
O2492  O     0.79580   0.95419   0.87154   0.00000  Uiso   1.00
Zn2493 Zn    0.50000   0.75000   0.88437   0.00000  Uiso   1.00
Zn2494 Zn    0.50000   0.75000   0.78229   0.00000  Uiso   1.00
Zn2495 Zn    0.75000   0.50000   0.88437   0.00000  Uiso   1.00
Zn2496 Zn    0.75000   0.50000   0.78229   0.00000  Uiso   1.00
loop_
_geom_bond_atom_site_label_1
_geom_bond_atom_site_label_2
_geom_bond_distance
_geom_bond_site_symmetry_2
_ccdc_geom_bond_type
C1     O199    1.315   .     A
C1     C30     1.455   .     S
C1     O189    1.294   .     A
C2     C37     1.506   .     S
C2     C835    1.434   .     S
C2     N185    1.381   .     S
C3     N186    1.378   .     A
C3     C1666   1.434   1_554 S
C3     C246    1.515   1_455 S
C4     N393    1.379   .     A
C4     C39     1.513   .     S
C4     C912    1.431   .     S
C5     C40     1.493   .     S
C5     N188    1.374   .     A
C5     C1672   1.427   1_554 S
C6     C41     1.501   .     S
C6     C839    1.433   .     S
C6     N603    1.378   .     S
C7     C42     1.508   .     S
C7     C1670   1.433   1_554 S
C7     N604    1.377   .     S
C8     C43     1.500   .     S
C8     N187    1.376   .     A
C8     C837    1.427   .     S
C9     C20     1.394   .     A
C9     C44     1.529   .     S
C9     C28     1.421   .     A
C10    C27     1.423   .     A
C10    C21     1.385   .     A
C10    C47     1.517   .     S
C11    C18     1.403   .     A
C11    C27     1.429   .     A
C11    C49     1.535   .     S
C12    C29     1.438   .     S
C12    O197    1.314   .     A
C12    O198    1.286   .     A
C13    C51     1.523   .     S
C13    C28     1.421   .     A
C13    C19     1.387   .     A
C14    C30     1.409   .     A
C14    C53     1.531   .     S
C14    C25     1.386   .     A
C15    C29     1.399   .     A
C15    C26     1.391   .     A
C15    C55     1.519   .     S
C16    C29     1.420   .     A
C16    C58     1.523   .     S
C16    C22     1.389   .     A
C17    C30     1.417   .     A
C17    C24     1.405   .     A
C17    C60     1.518   .     S
C18    C62     1.534   .     S
C18    C32     1.426   .     A
C19    C31     1.403   .     A
C19    C64     1.510   .     S
C20    C66     1.526   .     S
C20    C31     1.420   .     A
C21    C32     1.395   .     A
C21    C69     1.519   .     S
C22    C35     1.415   .     A
C22    C71     1.526   .     S
C23    C28     1.457   .     S
C23    O200    1.303   .     A
C23    O203    1.306   .     A
C24    C73     1.524   .     S
C24    C33     1.417   .     A
C25    C75     1.527   .     S
C25    C33     1.419   .     A
C26    C77     1.519   .     S
C26    C35     1.427   .     A
C27    C34     1.466   .     S
C31    C78     1.452   .     S
C32    C67     1.442   .     S
C33    C56     1.438   .     S
C34    O201    1.313   .     A
C34    O202    1.302   .     A
C35    C45     1.456   .     S
C36    H108    1.104   .     S
C36    C80     1.497   .     S
C36    H289    1.074   .     S
C36    H305    1.104   .     S
C37    H130    1.106   .     S
C37    H119    1.086   .     S
C37    H349    1.103   1_455 S
C38    H163    1.109   .     S
C38    C211    1.515   .     S
C38    H360    1.084   .     S
C38    H382    1.107   .     S
C39    H88     1.108   .     S
C39    H82     1.086   .     S
C39    H297    1.104   .     S
C40    H90     1.072   .     S
C40    H92     1.110   .     S
C40    H91     1.110   .     S
C41    H94     1.108   .     S
C41    H93     1.076   .     S
C41    H95     1.106   .     S
C42    H96     1.086   .     S
C42    H98     1.099   .     S
C42    H99     1.105   .     S
C43    H101    1.106   .     S
C43    H100    1.078   .     S
C43    H102    1.105   .     S
C44    C46     1.530   .     S
C44    H107    1.111   .     S
C44    H106    1.105   .     S
C45    O192    1.304   .     A
C45    O204    1.304   .     A
C46    H105    1.111   .     S
C46    H104    1.107   .     S
C46    H103    1.110   .     S
C47    H112    1.099   .     S
C47    C48     1.533   .     S
C47    H113    1.111   .     S
C48    H110    1.111   .     S
C48    H109    1.103   .     S
C48    H111    1.110   .     S
C49    H117    1.091   .     S
C49    H118    1.103   .     S
C49    C50     1.525   .     S
C50    H115    1.110   .     S
C50    H114    1.100   .     S
C50    H116    1.112   .     S
C51    H123    1.107   .     S
C51    H124    1.111   .     S
C51    C52     1.535   .     S
C52    H122    1.110   .     S
C52    H121    1.108   .     S
C52    H120    1.108   .     S
C53    C54     1.526   .     S
C53    H128    1.102   .     S
C53    H129    1.109   .     S
C54    H126    1.109   .     S
C54    H125    1.108   .     S
C54    H127    1.110   .     S
C55    C57     1.527   .     S
C55    H134    1.104   .     S
C55    H135    1.106   .     S
C56    O191    1.289   .     A
C56    O190    1.310   .     A
C57    H132    1.111   .     S
C57    H133    1.111   .     S
C57    H131    1.109   .     S
C58    H139    1.102   .     S
C58    H140    1.111   .     S
C58    C59     1.519   .     S
C59    H137    1.109   .     S
C59    H136    1.111   .     S
C59    H138    1.106   .     S
C60    H146    1.105   .     S
C60    C61     1.524   .     S
C60    H145    1.096   .     S
C61    H143    1.110   .     S
C61    H144    1.106   .     S
C61    H142    1.111   .     S
C62    C63     1.524   .     S
C62    H151    1.106   .     S
C62    H150    1.105   .     S
C63    H148    1.104   .     S
C63    H149    1.111   .     S
C63    H147    1.111   .     S
C64    H157    1.105   .     S
C64    H156    1.107   .     S
C64    C65     1.522   .     S
C65    H153    1.107   .     S
C65    H154    1.110   .     S
C65    H155    1.111   .     S
C66    C68     1.527   .     S
C66    H162    1.110   .     S
C66    H161    1.105   .     S
C67    O196    1.318   .     A
C67    O193    1.283   .     A
C68    H159    1.108   .     S
C68    H158    1.111   .     S
C68    H160    1.110   .     S
C69    H167    1.104   .     S
C69    C70     1.523   .     S
C69    H168    1.105   .     S
C70    H165    1.110   .     S
C70    H164    1.109   .     S
C70    H166    1.111   .     S
C71    H173    1.111   .     S
C71    C72     1.527   .     S
C71    H172    1.102   .     S
C72    H170    1.108   .     S
C72    H171    1.110   .     S
C72    H169    1.109   .     S
C73    C74     1.527   .     S
C73    H178    1.102   .     S
C73    H179    1.107   .     S
C74    H176    1.107   .     S
C74    H177    1.110   .     S
C74    H175    1.102   .     S
C75    H183    1.105   .     S
C75    H184    1.112   .     S
C75    C76     1.522   .     S
C76    H180    1.111   .     S
C76    H181    1.103   .     S
C76    H598    1.111   1_545 S
C77    C79     1.529   .     S
C77    H86     1.101   .     S
C77    H87     1.108   .     S
C78    O194    1.314   .     A
C78    O195    1.293   .     A
C79    H84     1.111   .     S
C79    H83     1.107   .     S
C79    H85     1.110   .     S
C80    C1668   1.431   1_554 S
C80    N394    1.376   .     S
H81    C244    1.074   1_455 S
H89    C247    1.104   1_455 S
H97    C244    1.104   1_455 S
H141   C245    1.103   .     S
H152   C246    1.084   1_455 S
H174   C246    1.107   1_455 S
H182   C492    1.111   .     S
N185   C212    1.379   1_455 A
N185   Zn205   2.045   .     S
N186   Zn206   2.045   .     S
N186   C288    1.376   1_455 S
N187   Zn207   2.045   .     S
N187   C422    1.378   1_545 S
N188   Zn208   2.045   .     S
N188   C423    1.377   1_545 S
O189   Zn205   2.002   .     S
O190   Zn208   2.002   .     S
O191   Zn207   1.998   .     S
O192   Zn624   1.998   .     S
O193   Zn624   2.026   .     S
O194   Zn207   2.026   .     S
O195   Zn208   2.031   .     S
O196   Zn623   2.031   .     S
O197   Zn414   2.002   .     S
O198   Zn413   1.998   .     S
O199   Zn206   1.998   .     S
O200   Zn414   2.026   .     S
O201   Zn205   2.026   .     S
O202   Zn206   2.031   .     S
O203   Zn413   2.031   .     S
O204   Zn623   2.002   .     S
Zn205  O411    2.031   1_455 S
Zn205  O406    1.998   1_455 S
Zn206  O408    2.026   1_455 S
Zn206  O405    2.002   1_455 S
Zn207  O612    2.031   1_545 S
Zn207  O620    2.002   1_545 S
Zn208  O609    2.026   1_545 S
Zn208  O608    1.998   1_545 S
C209   O407    1.315   .     A
C209   C238    1.455   .     S
C209   O397    1.294   .     A
C210   C245    1.506   .     S
C210   C1043   1.434   .     S
C210   N393    1.381   .     S
C211   N394    1.378   .     A
C211   C1874   1.434   1_554 S
C212   N185    1.379   1_655 A
C212   C247    1.513   .     S
C212   C1120   1.431   .     S
C213   C248    1.493   .     S
C213   N396    1.374   .     A
C213   C1880   1.427   1_554 S
C214   C249    1.501   .     S
C214   C1047   1.433   .     S
C214   N811    1.378   .     S
C215   C250    1.508   .     S
C215   C1878   1.433   1_554 S
C215   N812    1.377   .     S
C216   C251    1.500   .     S
C216   N395    1.376   .     A
C216   C1045   1.427   .     S
C217   C228    1.394   .     A
C217   C252    1.529   .     S
C217   C236    1.421   .     A
C218   C235    1.423   .     A
C218   C229    1.385   .     A
C218   C255    1.517   .     S
C219   C226    1.403   .     A
C219   C235    1.429   .     A
C219   C257    1.535   .     S
C220   C237    1.438   .     S
C220   O405    1.314   .     A
C220   O406    1.286   .     A
C221   C259    1.523   .     S
C221   C236    1.421   .     A
C221   C227    1.387   .     A
C222   C238    1.409   .     A
C222   C261    1.531   .     S
C222   C233    1.386   .     A
C223   C237    1.399   .     A
C223   C234    1.391   .     A
C223   C263    1.519   .     S
C224   C237    1.420   .     A
C224   C266    1.523   .     S
C224   C230    1.389   .     A
C225   C238    1.417   .     A
C225   C232    1.405   .     A
C225   C268    1.518   .     S
C226   C270    1.534   .     S
C226   C240    1.426   .     A
C227   C239    1.403   .     A
C227   C272    1.510   .     S
C228   C274    1.526   .     S
C228   C239    1.420   .     A
C229   C240    1.395   .     A
C229   C277    1.519   .     S
C230   C243    1.415   .     A
C230   C279    1.526   .     S
C231   C236    1.457   .     S
C231   O408    1.303   .     A
C231   O411    1.306   .     A
C232   C281    1.524   .     S
C232   C241    1.417   .     A
C233   C283    1.527   .     S
C233   C241    1.419   .     A
C234   C285    1.519   .     S
C234   C243    1.427   .     A
C235   C242    1.466   .     S
C239   C286    1.452   .     S
C240   C275    1.442   .     S
C241   C264    1.438   .     S
C242   O409    1.313   .     A
C242   O410    1.302   .     A
C243   C253    1.456   .     S
C244   H316    1.104   .     S
C244   C288    1.497   .     S
C244   H81     1.074   1_655 S
C244   H97     1.104   1_655 S
C245   H338    1.106   .     S
C245   H327    1.086   .     S
C246   H371    1.109   .     S
C246   C3      1.515   1_655 S
C246   H152    1.084   1_655 S
C246   H174    1.107   1_655 S
C247   H296    1.108   .     S
C247   H290    1.086   .     S
C247   H89     1.104   1_655 S
C248   H298    1.072   .     S
C248   H300    1.110   .     S
C248   H299    1.110   .     S
C249   H302    1.108   .     S
C249   H301    1.076   .     S
C249   H303    1.106   .     S
C250   H304    1.086   .     S
C250   H306    1.099   .     S
C250   H307    1.105   .     S
C251   H309    1.106   .     S
C251   H308    1.078   .     S
C251   H310    1.105   .     S
C252   C254    1.530   .     S
C252   H315    1.111   .     S
C252   H314    1.105   .     S
C253   O400    1.304   .     A
C253   O412    1.304   .     A
C254   H313    1.111   .     S
C254   H312    1.107   .     S
C254   H311    1.110   .     S
C255   H320    1.099   .     S
C255   C256    1.533   .     S
C255   H321    1.111   .     S
C256   H318    1.111   .     S
C256   H317    1.103   .     S
C256   H319    1.110   .     S
C257   H325    1.091   .     S
C257   H326    1.103   .     S
C257   C258    1.525   .     S
C258   H323    1.110   .     S
C258   H322    1.100   .     S
C258   H324    1.112   .     S
C259   H331    1.107   .     S
C259   H332    1.111   .     S
C259   C260    1.535   .     S
C260   H330    1.110   .     S
C260   H329    1.108   .     S
C260   H328    1.108   .     S
C261   C262    1.526   .     S
C261   H336    1.102   .     S
C261   H337    1.109   .     S
C262   H334    1.109   .     S
C262   H333    1.108   .     S
C262   H335    1.110   .     S
C263   C265    1.527   .     S
C263   H342    1.104   .     S
C263   H343    1.106   .     S
C264   O399    1.289   .     A
C264   O398    1.310   .     A
C265   H340    1.111   .     S
C265   H341    1.111   .     S
C265   H339    1.109   .     S
C266   H347    1.102   .     S
C266   H348    1.111   .     S
C266   C267    1.519   .     S
C267   H345    1.109   .     S
C267   H344    1.111   .     S
C267   H346    1.106   .     S
C268   H354    1.105   .     S
C268   C269    1.524   .     S
C268   H353    1.096   .     S
C269   H351    1.110   .     S
C269   H352    1.106   .     S
C269   H350    1.111   .     S
C270   C271    1.524   .     S
C270   H359    1.106   .     S
C270   H358    1.105   .     S
C271   H356    1.104   .     S
C271   H357    1.111   .     S
C271   H355    1.111   .     S
C272   H365    1.105   .     S
C272   H364    1.107   .     S
C272   C273    1.522   .     S
C273   H361    1.107   .     S
C273   H362    1.110   .     S
C273   H363    1.111   .     S
C274   C276    1.527   .     S
C274   H370    1.110   .     S
C274   H369    1.105   .     S
C275   O404    1.318   .     A
C275   O401    1.283   .     A
C276   H367    1.108   .     S
C276   H366    1.111   .     S
C276   H368    1.110   .     S
C277   H375    1.104   .     S
C277   C278    1.523   .     S
C277   H376    1.105   .     S
C278   H373    1.110   .     S
C278   H372    1.109   .     S
C278   H374    1.111   .     S
C279   H381    1.111   .     S
C279   C280    1.527   .     S
C279   H380    1.102   .     S
C280   H378    1.108   .     S
C280   H379    1.110   .     S
C280   H377    1.109   .     S
C281   C282    1.527   .     S
C281   H386    1.102   .     S
C281   H387    1.107   .     S
C282   H384    1.107   .     S
C282   H385    1.110   .     S
C282   H383    1.102   .     S
C283   H391    1.105   .     S
C283   H392    1.112   .     S
C283   C284    1.522   .     S
C284   H388    1.111   .     S
C284   H389    1.103   .     S
C284   H806    1.111   1_545 S
C285   C287    1.529   .     S
C285   H294    1.101   .     S
C285   H295    1.108   .     S
C286   O402    1.314   .     A
C286   O403    1.293   .     A
C287   H292    1.111   .     S
C287   H291    1.107   .     S
C287   H293    1.110   .     S
C288   C1876   1.431   1_554 S
C288   N186    1.376   1_655 S
H349   C37     1.103   1_655 S
H390   C700    1.111   .     S
N393   Zn413   2.045   .     S
N394   Zn414   2.045   .     S
N395   Zn415   2.045   .     S
N395   C630    1.378   1_545 S
N396   Zn416   2.045   .     S
N396   C631    1.377   1_545 S
O397   Zn413   2.002   .     S
O398   Zn416   2.002   .     S
O399   Zn415   1.998   .     S
O400   Zn832   1.998   .     S
O401   Zn832   2.026   .     S
O402   Zn415   2.026   .     S
O403   Zn416   2.031   .     S
O404   Zn831   2.031   .     S
O405   Zn206   2.002   1_655 S
O406   Zn205   1.998   1_655 S
O407   Zn414   1.998   .     S
O408   Zn206   2.026   1_655 S
O409   Zn413   2.026   .     S
O410   Zn414   2.031   .     S
O411   Zn205   2.031   1_655 S
O412   Zn831   2.002   .     S
Zn415  O820    2.031   1_545 S
Zn415  O828    2.002   1_545 S
Zn416  O817    2.026   1_545 S
Zn416  O816    1.998   1_545 S
C417   O615    1.315   .     A
C417   C446    1.455   .     S
C417   O605    1.294   .     A
C418   C453    1.506   .     S
C418   C1251   1.434   .     S
C418   N601    1.381   .     S
C419   N602    1.378   .     A
C419   C2082   1.434   1_554 S
C419   C662    1.515   1_455 S
C420   N809    1.379   .     A
C420   C455    1.513   .     S
C420   C1328   1.431   .     S
C421   C456    1.493   .     S
C421   N604    1.374   .     A
C421   C2088   1.427   1_554 S
C422   C457    1.501   .     S
C422   C1255   1.433   .     S
C422   N187    1.378   1_565 S
C423   C458    1.508   .     S
C423   C2086   1.433   1_554 S
C423   N188    1.377   1_565 S
C424   C459    1.500   .     S
C424   N603    1.376   .     A
C424   C1253   1.427   .     S
C425   C436    1.394   .     A
C425   C460    1.529   .     S
C425   C444    1.421   .     A
C426   C443    1.423   .     A
C426   C437    1.385   .     A
C426   C463    1.517   .     S
C427   C434    1.403   .     A
C427   C443    1.429   .     A
C427   C465    1.535   .     S
C428   C445    1.438   .     S
C428   O613    1.314   .     A
C428   O614    1.286   .     A
C429   C467    1.523   .     S
C429   C444    1.421   .     A
C429   C435    1.387   .     A
C430   C446    1.409   .     A
C430   C469    1.531   .     S
C430   C441    1.386   .     A
C431   C445    1.399   .     A
C431   C442    1.391   .     A
C431   C471    1.519   .     S
C432   C445    1.420   .     A
C432   C474    1.523   .     S
C432   C438    1.389   .     A
C433   C446    1.417   .     A
C433   C440    1.405   .     A
C433   C476    1.518   .     S
C434   C478    1.534   .     S
C434   C448    1.426   .     A
C435   C447    1.403   .     A
C435   C480    1.510   .     S
C436   C482    1.526   .     S
C436   C447    1.420   .     A
C437   C448    1.395   .     A
C437   C485    1.519   .     S
C438   C451    1.415   .     A
C438   C487    1.526   .     S
C439   C444    1.457   .     S
C439   O616    1.303   .     A
C439   O619    1.306   .     A
C440   C489    1.524   .     S
C440   C449    1.417   .     A
C441   C491    1.527   .     S
C441   C449    1.419   .     A
C442   C493    1.519   .     S
C442   C451    1.427   .     A
C443   C450    1.466   .     S
C447   C494    1.452   .     S
C448   C483    1.442   .     S
C449   C472    1.438   .     S
C450   O617    1.313   .     A
C450   O618    1.302   .     A
C451   C461    1.456   .     S
C452   H524    1.104   .     S
C452   C496    1.497   .     S
C452   H705    1.074   .     S
C452   H721    1.104   .     S
C453   H546    1.106   .     S
C453   H535    1.086   .     S
C453   H765    1.103   1_455 S
C454   H579    1.109   .     S
C454   C627    1.515   .     S
C454   H776    1.084   .     S
C454   H798    1.107   .     S
C455   H504    1.108   .     S
C455   H498    1.086   .     S
C455   H713    1.104   .     S
C456   H506    1.072   .     S
C456   H508    1.110   .     S
C456   H507    1.110   .     S
C457   H510    1.108   .     S
C457   H509    1.076   .     S
C457   H511    1.106   .     S
C458   H512    1.086   .     S
C458   H514    1.099   .     S
C458   H515    1.105   .     S
C459   H517    1.106   .     S
C459   H516    1.078   .     S
C459   H518    1.105   .     S
C460   C462    1.530   .     S
C460   H523    1.111   .     S
C460   H522    1.105   .     S
C461   O608    1.304   .     A
C461   O620    1.304   .     A
C462   H521    1.111   .     S
C462   H520    1.107   .     S
C462   H519    1.110   .     S
C463   H528    1.099   .     S
C463   C464    1.533   .     S
C463   H529    1.111   .     S
C464   H526    1.111   .     S
C464   H525    1.103   .     S
C464   H527    1.110   .     S
C465   H533    1.091   .     S
C465   H534    1.103   .     S
C465   C466    1.525   .     S
C466   H531    1.110   .     S
C466   H530    1.100   .     S
C466   H532    1.112   .     S
C467   H539    1.107   .     S
C467   H540    1.111   .     S
C467   C468    1.535   .     S
C468   H538    1.110   .     S
C468   H537    1.108   .     S
C468   H536    1.108   .     S
C469   C470    1.526   .     S
C469   H544    1.102   .     S
C469   H545    1.109   .     S
C470   H542    1.109   .     S
C470   H541    1.108   .     S
C470   H543    1.110   .     S
C471   C473    1.527   .     S
C471   H550    1.104   .     S
C471   H551    1.106   .     S
C472   O607    1.289   .     A
C472   O606    1.310   .     A
C473   H548    1.111   .     S
C473   H549    1.111   .     S
C473   H547    1.109   .     S
C474   H555    1.102   .     S
C474   H556    1.111   .     S
C474   C475    1.519   .     S
C475   H553    1.109   .     S
C475   H552    1.111   .     S
C475   H554    1.106   .     S
C476   H562    1.105   .     S
C476   C477    1.524   .     S
C476   H561    1.096   .     S
C477   H559    1.110   .     S
C477   H560    1.106   .     S
C477   H558    1.111   .     S
C478   C479    1.524   .     S
C478   H567    1.106   .     S
C478   H566    1.105   .     S
C479   H564    1.104   .     S
C479   H565    1.111   .     S
C479   H563    1.111   .     S
C480   H573    1.105   .     S
C480   H572    1.107   .     S
C480   C481    1.522   .     S
C481   H569    1.107   .     S
C481   H570    1.110   .     S
C481   H571    1.111   .     S
C482   C484    1.527   .     S
C482   H578    1.110   .     S
C482   H577    1.105   .     S
C483   O612    1.318   .     A
C483   O609    1.283   .     A
C484   H575    1.108   .     S
C484   H574    1.111   .     S
C484   H576    1.110   .     S
C485   H583    1.104   .     S
C485   C486    1.523   .     S
C485   H584    1.105   .     S
C486   H581    1.110   .     S
C486   H580    1.109   .     S
C486   H582    1.111   .     S
C487   H589    1.111   .     S
C487   C488    1.527   .     S
C487   H588    1.102   .     S
C488   H586    1.108   .     S
C488   H587    1.110   .     S
C488   H585    1.109   .     S
C489   C490    1.527   .     S
C489   H594    1.102   .     S
C489   H595    1.107   .     S
C490   H592    1.107   .     S
C490   H593    1.110   .     S
C490   H591    1.102   .     S
C491   H599    1.105   .     S
C491   H600    1.112   .     S
C491   C492    1.522   .     S
C492   H596    1.111   .     S
C492   H597    1.103   .     S
C493   C495    1.529   .     S
C493   H502    1.101   .     S
C493   H503    1.108   .     S
C494   O610    1.314   .     A
C494   O611    1.293   .     A
C495   H500    1.111   .     S
C495   H499    1.107   .     S
C495   H501    1.110   .     S
C496   C2084   1.431   1_554 S
C496   N810    1.376   .     S
H497   C660    1.074   1_455 S
H505   C663    1.104   1_455 S
H513   C660    1.104   1_455 S
H557   C661    1.103   .     S
H568   C662    1.084   1_455 S
H590   C662    1.107   1_455 S
H598   C76     1.111   1_565 S
N601   C628    1.379   1_455 A
N601   Zn621   2.045   .     S
N602   Zn622   2.045   .     S
N602   C704    1.376   1_455 S
N603   Zn623   2.045   .     S
N604   Zn624   2.045   .     S
O605   Zn621   2.002   .     S
O606   Zn624   2.002   .     S
O607   Zn623   1.998   .     S
O608   Zn208   1.998   1_565 S
O609   Zn208   2.026   1_565 S
O610   Zn623   2.026   .     S
O611   Zn624   2.031   .     S
O612   Zn207   2.031   1_565 S
O613   Zn830   2.002   .     S
O614   Zn829   1.998   .     S
O615   Zn622   1.998   .     S
O616   Zn830   2.026   .     S
O617   Zn621   2.026   .     S
O618   Zn622   2.031   .     S
O619   Zn829   2.031   .     S
O620   Zn207   2.002   1_565 S
Zn621  O827    2.031   1_455 S
Zn621  O822    1.998   1_455 S
Zn622  O824    2.026   1_455 S
Zn622  O821    2.002   1_455 S
C625   O823    1.315   .     A
C625   C654    1.455   .     S
C625   O813    1.294   .     A
C626   C661    1.506   .     S
C626   C1459   1.434   .     S
C626   N809    1.381   .     S
C627   N810    1.378   .     A
C627   C2290   1.434   1_554 S
C628   N601    1.379   1_655 A
C628   C663    1.513   .     S
C628   C1536   1.431   .     S
C629   C664    1.493   .     S
C629   N812    1.374   .     A
C629   C2296   1.427   1_554 S
C630   C665    1.501   .     S
C630   C1463   1.433   .     S
C630   N395    1.378   1_565 S
C631   C666    1.508   .     S
C631   C2294   1.433   1_554 S
C631   N396    1.377   1_565 S
C632   C667    1.500   .     S
C632   N811    1.376   .     A
C632   C1461   1.427   .     S
C633   C644    1.394   .     A
C633   C668    1.529   .     S
C633   C652    1.421   .     A
C634   C651    1.423   .     A
C634   C645    1.385   .     A
C634   C671    1.517   .     S
C635   C642    1.403   .     A
C635   C651    1.429   .     A
C635   C673    1.535   .     S
C636   C653    1.438   .     S
C636   O821    1.314   .     A
C636   O822    1.286   .     A
C637   C675    1.523   .     S
C637   C652    1.421   .     A
C637   C643    1.387   .     A
C638   C654    1.409   .     A
C638   C677    1.531   .     S
C638   C649    1.386   .     A
C639   C653    1.399   .     A
C639   C650    1.391   .     A
C639   C679    1.519   .     S
C640   C653    1.420   .     A
C640   C682    1.523   .     S
C640   C646    1.389   .     A
C641   C654    1.417   .     A
C641   C648    1.405   .     A
C641   C684    1.518   .     S
C642   C686    1.534   .     S
C642   C656    1.426   .     A
C643   C655    1.403   .     A
C643   C688    1.510   .     S
C644   C690    1.526   .     S
C644   C655    1.420   .     A
C645   C656    1.395   .     A
C645   C693    1.519   .     S
C646   C659    1.415   .     A
C646   C695    1.526   .     S
C647   C652    1.457   .     S
C647   O824    1.303   .     A
C647   O827    1.306   .     A
C648   C697    1.524   .     S
C648   C657    1.417   .     A
C649   C699    1.527   .     S
C649   C657    1.419   .     A
C650   C701    1.519   .     S
C650   C659    1.427   .     A
C651   C658    1.466   .     S
C655   C702    1.452   .     S
C656   C691    1.442   .     S
C657   C680    1.438   .     S
C658   O825    1.313   .     A
C658   O826    1.302   .     A
C659   C669    1.456   .     S
C660   H732    1.104   .     S
C660   C704    1.497   .     S
C660   H497    1.074   1_655 S
C660   H513    1.104   1_655 S
C661   H754    1.106   .     S
C661   H743    1.086   .     S
C662   H787    1.109   .     S
C662   C419    1.515   1_655 S
C662   H568    1.084   1_655 S
C662   H590    1.107   1_655 S
C663   H712    1.108   .     S
C663   H706    1.086   .     S
C663   H505    1.104   1_655 S
C664   H714    1.072   .     S
C664   H716    1.110   .     S
C664   H715    1.110   .     S
C665   H718    1.108   .     S
C665   H717    1.076   .     S
C665   H719    1.106   .     S
C666   H720    1.086   .     S
C666   H722    1.099   .     S
C666   H723    1.105   .     S
C667   H725    1.106   .     S
C667   H724    1.078   .     S
C667   H726    1.105   .     S
C668   C670    1.530   .     S
C668   H731    1.111   .     S
C668   H730    1.105   .     S
C669   O816    1.304   .     A
C669   O828    1.304   .     A
C670   H729    1.111   .     S
C670   H728    1.107   .     S
C670   H727    1.110   .     S
C671   H736    1.099   .     S
C671   C672    1.533   .     S
C671   H737    1.111   .     S
C672   H734    1.111   .     S
C672   H733    1.103   .     S
C672   H735    1.110   .     S
C673   H741    1.091   .     S
C673   H742    1.103   .     S
C673   C674    1.525   .     S
C674   H739    1.110   .     S
C674   H738    1.100   .     S
C674   H740    1.112   .     S
C675   H747    1.107   .     S
C675   H748    1.111   .     S
C675   C676    1.535   .     S
C676   H746    1.110   .     S
C676   H745    1.108   .     S
C676   H744    1.108   .     S
C677   C678    1.526   .     S
C677   H752    1.102   .     S
C677   H753    1.109   .     S
C678   H750    1.109   .     S
C678   H749    1.108   .     S
C678   H751    1.110   .     S
C679   C681    1.527   .     S
C679   H758    1.104   .     S
C679   H759    1.106   .     S
C680   O815    1.289   .     A
C680   O814    1.310   .     A
C681   H756    1.111   .     S
C681   H757    1.111   .     S
C681   H755    1.109   .     S
C682   H763    1.102   .     S
C682   H764    1.111   .     S
C682   C683    1.519   .     S
C683   H761    1.109   .     S
C683   H760    1.111   .     S
C683   H762    1.106   .     S
C684   H770    1.105   .     S
C684   C685    1.524   .     S
C684   H769    1.096   .     S
C685   H767    1.110   .     S
C685   H768    1.106   .     S
C685   H766    1.111   .     S
C686   C687    1.524   .     S
C686   H775    1.106   .     S
C686   H774    1.105   .     S
C687   H772    1.104   .     S
C687   H773    1.111   .     S
C687   H771    1.111   .     S
C688   H781    1.105   .     S
C688   H780    1.107   .     S
C688   C689    1.522   .     S
C689   H777    1.107   .     S
C689   H778    1.110   .     S
C689   H779    1.111   .     S
C690   C692    1.527   .     S
C690   H786    1.110   .     S
C690   H785    1.105   .     S
C691   O820    1.318   .     A
C691   O817    1.283   .     A
C692   H783    1.108   .     S
C692   H782    1.111   .     S
C692   H784    1.110   .     S
C693   H791    1.104   .     S
C693   C694    1.523   .     S
C693   H792    1.105   .     S
C694   H789    1.110   .     S
C694   H788    1.109   .     S
C694   H790    1.111   .     S
C695   H797    1.111   .     S
C695   C696    1.527   .     S
C695   H796    1.102   .     S
C696   H794    1.108   .     S
C696   H795    1.110   .     S
C696   H793    1.109   .     S
C697   C698    1.527   .     S
C697   H802    1.102   .     S
C697   H803    1.107   .     S
C698   H800    1.107   .     S
C698   H801    1.110   .     S
C698   H799    1.102   .     S
C699   H807    1.105   .     S
C699   H808    1.112   .     S
C699   C700    1.522   .     S
C700   H804    1.111   .     S
C700   H805    1.103   .     S
C701   C703    1.529   .     S
C701   H710    1.101   .     S
C701   H711    1.108   .     S
C702   O818    1.314   .     A
C702   O819    1.293   .     A
C703   H708    1.111   .     S
C703   H707    1.107   .     S
C703   H709    1.110   .     S
C704   C2292   1.431   1_554 S
C704   N602    1.376   1_655 S
H765   C453    1.103   1_655 S
H806   C284    1.111   1_565 S
N809   Zn829   2.045   .     S
N810   Zn830   2.045   .     S
N811   Zn831   2.045   .     S
N812   Zn832   2.045   .     S
O813   Zn829   2.002   .     S
O814   Zn832   2.002   .     S
O815   Zn831   1.998   .     S
O816   Zn416   1.998   1_565 S
O817   Zn416   2.026   1_565 S
O818   Zn831   2.026   .     S
O819   Zn832   2.031   .     S
O820   Zn415   2.031   1_565 S
O821   Zn622   2.002   1_655 S
O822   Zn621   1.998   1_655 S
O823   Zn830   1.998   .     S
O824   Zn622   2.026   1_655 S
O825   Zn829   2.026   .     S
O826   Zn830   2.031   .     S
O827   Zn621   2.031   1_655 S
O828   Zn415   2.002   1_565 S
C833   O1031   1.315   .     A
C833   C862    1.455   .     S
C833   O1021   1.294   .     A
C834   C869    1.506   .     S
C834   C1667   1.434   .     S
C834   N1017   1.381   .     S
C835   N1018   1.378   .     A
C835   C1078   1.515   1_455 S
C836   N1225   1.379   .     A
C836   C871    1.513   .     S
C836   C1744   1.431   .     S
C837   C872    1.493   .     S
C837   N1020   1.374   .     A
C838   C873    1.501   .     S
C838   C1671   1.433   .     S
C838   N1435   1.378   .     S
C839   C874    1.508   .     S
C839   N1436   1.377   .     S
C840   C875    1.500   .     S
C840   N1019   1.376   .     A
C840   C1669   1.427   .     S
C841   C852    1.394   .     A
C841   C876    1.529   .     S
C841   C860    1.421   .     A
C842   C859    1.423   .     A
C842   C853    1.385   .     A
C842   C879    1.517   .     S
C843   C850    1.403   .     A
C843   C859    1.429   .     A
C843   C881    1.535   .     S
C844   C861    1.438   .     S
C844   O1029   1.314   .     A
C844   O1030   1.286   .     A
C845   C883    1.523   .     S
C845   C860    1.421   .     A
C845   C851    1.387   .     A
C846   C862    1.409   .     A
C846   C885    1.531   .     S
C846   C857    1.386   .     A
C847   C861    1.399   .     A
C847   C858    1.391   .     A
C847   C887    1.519   .     S
C848   C861    1.420   .     A
C848   C890    1.523   .     S
C848   C854    1.389   .     A
C849   C862    1.417   .     A
C849   C856    1.405   .     A
C849   C892    1.518   .     S
C850   C894    1.534   .     S
C850   C864    1.426   .     A
C851   C863    1.403   .     A
C851   C896    1.510   .     S
C852   C898    1.526   .     S
C852   C863    1.420   .     A
C853   C864    1.395   .     A
C853   C901    1.519   .     S
C854   C867    1.415   .     A
C854   C903    1.526   .     S
C855   C860    1.457   .     S
C855   O1032   1.303   .     A
C855   O1035   1.306   .     A
C856   C905    1.524   .     S
C856   C865    1.417   .     A
C857   C907    1.527   .     S
C857   C865    1.419   .     A
C858   C909    1.519   .     S
C858   C867    1.427   .     A
C859   C866    1.466   .     S
C863   C910    1.452   .     S
C864   C899    1.442   .     S
C865   C888    1.438   .     S
C866   O1033   1.313   .     A
C866   O1034   1.302   .     A
C867   C877    1.456   .     S
C868   H940    1.104   .     S
C868   C912    1.497   .     S
C868   H1121   1.074   .     S
C868   H1137   1.104   .     S
C869   H962    1.106   .     S
C869   H951    1.086   .     S
C869   H1181   1.103   1_455 S
C870   H995    1.109   .     S
C870   C1043   1.515   .     S
C870   H1192   1.084   .     S
C870   H1214   1.107   .     S
C871   H920    1.108   .     S
C871   H914    1.086   .     S
C871   H1129   1.104   .     S
C872   H922    1.072   .     S
C872   H924    1.110   .     S
C872   H923    1.110   .     S
C873   H926    1.108   .     S
C873   H925    1.076   .     S
C873   H927    1.106   .     S
C874   H928    1.086   .     S
C874   H930    1.099   .     S
C874   H931    1.105   .     S
C875   H933    1.106   .     S
C875   H932    1.078   .     S
C875   H934    1.105   .     S
C876   C878    1.530   .     S
C876   H939    1.111   .     S
C876   H938    1.105   .     S
C877   O1024   1.304   .     A
C877   O1036   1.304   .     A
C878   H937    1.111   .     S
C878   H936    1.107   .     S
C878   H935    1.110   .     S
C879   H944    1.099   .     S
C879   C880    1.533   .     S
C879   H945    1.111   .     S
C880   H942    1.111   .     S
C880   H941    1.103   .     S
C880   H943    1.110   .     S
C881   H949    1.091   .     S
C881   H950    1.103   .     S
C881   C882    1.525   .     S
C882   H947    1.110   .     S
C882   H946    1.100   .     S
C882   H948    1.112   .     S
C883   H955    1.107   .     S
C883   H956    1.111   .     S
C883   C884    1.535   .     S
C884   H954    1.110   .     S
C884   H953    1.108   .     S
C884   H952    1.108   .     S
C885   C886    1.526   .     S
C885   H960    1.102   .     S
C885   H961    1.109   .     S
C886   H958    1.109   .     S
C886   H957    1.108   .     S
C886   H959    1.110   .     S
C887   C889    1.527   .     S
C887   H966    1.104   .     S
C887   H967    1.106   .     S
C888   O1023   1.289   .     A
C888   O1022   1.310   .     A
C889   H964    1.111   .     S
C889   H965    1.111   .     S
C889   H963    1.109   .     S
C890   H971    1.102   .     S
C890   H972    1.111   .     S
C890   C891    1.519   .     S
C891   H969    1.109   .     S
C891   H968    1.111   .     S
C891   H970    1.106   .     S
C892   H978    1.105   .     S
C892   C893    1.524   .     S
C892   H977    1.096   .     S
C893   H975    1.110   .     S
C893   H976    1.106   .     S
C893   H974    1.111   .     S
C894   C895    1.524   .     S
C894   H983    1.106   .     S
C894   H982    1.105   .     S
C895   H980    1.104   .     S
C895   H981    1.111   .     S
C895   H979    1.111   .     S
C896   H989    1.105   .     S
C896   H988    1.107   .     S
C896   C897    1.522   .     S
C897   H985    1.107   .     S
C897   H986    1.110   .     S
C897   H987    1.111   .     S
C898   C900    1.527   .     S
C898   H994    1.110   .     S
C898   H993    1.105   .     S
C899   O1028   1.318   .     A
C899   O1025   1.283   .     A
C900   H991    1.108   .     S
C900   H990    1.111   .     S
C900   H992    1.110   .     S
C901   H999    1.104   .     S
C901   C902    1.523   .     S
C901   H1000   1.105   .     S
C902   H997    1.110   .     S
C902   H996    1.109   .     S
C902   H998    1.111   .     S
C903   H1005   1.111   .     S
C903   C904    1.527   .     S
C903   H1004   1.102   .     S
C904   H1002   1.108   .     S
C904   H1003   1.110   .     S
C904   H1001   1.109   .     S
C905   C906    1.527   .     S
C905   H1010   1.102   .     S
C905   H1011   1.107   .     S
C906   H1008   1.107   .     S
C906   H1009   1.110   .     S
C906   H1007   1.102   .     S
C907   H1015   1.105   .     S
C907   H1016   1.112   .     S
C907   C908    1.522   .     S
C908   H1012   1.111   .     S
C908   H1013   1.103   .     S
C908   H1430   1.111   1_545 S
C909   C911    1.529   .     S
C909   H918    1.101   .     S
C909   H919    1.108   .     S
C910   O1026   1.314   .     A
C910   O1027   1.293   .     A
C911   H916    1.111   .     S
C911   H915    1.107   .     S
C911   H917    1.110   .     S
C912   N1226   1.376   .     S
H913   C1076   1.074   1_455 S
H921   C1079   1.104   1_455 S
H929   C1076   1.104   1_455 S
H973   C1077   1.103   .     S
H984   C1078   1.084   1_455 S
H1006  C1078   1.107   1_455 S
H1014  C1324   1.111   .     S
N1017  C1044   1.379   1_455 A
N1017  Zn1037  2.045   .     S
N1018  Zn1038  2.045   .     S
N1018  C1120   1.376   1_455 S
N1019  Zn1039  2.045   .     S
N1019  C1254   1.378   1_545 S
N1020  Zn1040  2.045   .     S
N1020  C1255   1.377   1_545 S
O1021  Zn1037  2.002   .     S
O1022  Zn1040  2.002   .     S
O1023  Zn1039  1.998   .     S
O1024  Zn1456  1.998   .     S
O1025  Zn1456  2.026   .     S
O1026  Zn1039  2.026   .     S
O1027  Zn1040  2.031   .     S
O1028  Zn1455  2.031   .     S
O1029  Zn1246  2.002   .     S
O1030  Zn1245  1.998   .     S
O1031  Zn1038  1.998   .     S
O1032  Zn1246  2.026   .     S
O1033  Zn1037  2.026   .     S
O1034  Zn1038  2.031   .     S
O1035  Zn1245  2.031   .     S
O1036  Zn1455  2.002   .     S
Zn1037 O1243   2.031   1_455 S
Zn1037 O1238   1.998   1_455 S
Zn1038 O1240   2.026   1_455 S
Zn1038 O1237   2.002   1_455 S
Zn1039 O1444   2.031   1_545 S
Zn1039 O1452   2.002   1_545 S
Zn1040 O1441   2.026   1_545 S
Zn1040 O1440   1.998   1_545 S
C1041  O1239   1.315   .     A
C1041  C1070   1.455   .     S
C1041  O1229   1.294   .     A
C1042  C1077   1.506   .     S
C1042  C1875   1.434   .     S
C1042  N1225   1.381   .     S
C1043  N1226   1.378   .     A
C1044  N1017   1.379   1_655 A
C1044  C1079   1.513   .     S
C1044  C1952   1.431   .     S
C1045  C1080   1.493   .     S
C1045  N1228   1.374   .     A
C1046  C1081   1.501   .     S
C1046  C1879   1.433   .     S
C1046  N1643   1.378   .     S
C1047  C1082   1.508   .     S
C1047  N1644   1.377   .     S
C1048  C1083   1.500   .     S
C1048  N1227   1.376   .     A
C1048  C1877   1.427   .     S
C1049  C1060   1.394   .     A
C1049  C1084   1.529   .     S
C1049  C1068   1.421   .     A
C1050  C1067   1.423   .     A
C1050  C1061   1.385   .     A
C1050  C1087   1.517   .     S
C1051  C1058   1.403   .     A
C1051  C1067   1.429   .     A
C1051  C1089   1.535   .     S
C1052  C1069   1.438   .     S
C1052  O1237   1.314   .     A
C1052  O1238   1.286   .     A
C1053  C1091   1.523   .     S
C1053  C1068   1.421   .     A
C1053  C1059   1.387   .     A
C1054  C1070   1.409   .     A
C1054  C1093   1.531   .     S
C1054  C1065   1.386   .     A
C1055  C1069   1.399   .     A
C1055  C1066   1.391   .     A
C1055  C1095   1.519   .     S
C1056  C1069   1.420   .     A
C1056  C1098   1.523   .     S
C1056  C1062   1.389   .     A
C1057  C1070   1.417   .     A
C1057  C1064   1.405   .     A
C1057  C1100   1.518   .     S
C1058  C1102   1.534   .     S
C1058  C1072   1.426   .     A
C1059  C1071   1.403   .     A
C1059  C1104   1.510   .     S
C1060  C1106   1.526   .     S
C1060  C1071   1.420   .     A
C1061  C1072   1.395   .     A
C1061  C1109   1.519   .     S
C1062  C1075   1.415   .     A
C1062  C1111   1.526   .     S
C1063  C1068   1.457   .     S
C1063  O1240   1.303   .     A
C1063  O1243   1.306   .     A
C1064  C1113   1.524   .     S
C1064  C1073   1.417   .     A
C1065  C1115   1.527   .     S
C1065  C1073   1.419   .     A
C1066  C1117   1.519   .     S
C1066  C1075   1.427   .     A
C1067  C1074   1.466   .     S
C1071  C1118   1.452   .     S
C1072  C1107   1.442   .     S
C1073  C1096   1.438   .     S
C1074  O1241   1.313   .     A
C1074  O1242   1.302   .     A
C1075  C1085   1.456   .     S
C1076  H1148   1.104   .     S
C1076  C1120   1.497   .     S
C1076  H913    1.074   1_655 S
C1076  H929    1.104   1_655 S
C1077  H1170   1.106   .     S
C1077  H1159   1.086   .     S
C1078  H1203   1.109   .     S
C1078  C835    1.515   1_655 S
C1078  H984    1.084   1_655 S
C1078  H1006   1.107   1_655 S
C1079  H1128   1.108   .     S
C1079  H1122   1.086   .     S
C1079  H921    1.104   1_655 S
C1080  H1130   1.072   .     S
C1080  H1132   1.110   .     S
C1080  H1131   1.110   .     S
C1081  H1134   1.108   .     S
C1081  H1133   1.076   .     S
C1081  H1135   1.106   .     S
C1082  H1136   1.086   .     S
C1082  H1138   1.099   .     S
C1082  H1139   1.105   .     S
C1083  H1141   1.106   .     S
C1083  H1140   1.078   .     S
C1083  H1142   1.105   .     S
C1084  C1086   1.530   .     S
C1084  H1147   1.111   .     S
C1084  H1146   1.105   .     S
C1085  O1232   1.304   .     A
C1085  O1244   1.304   .     A
C1086  H1145   1.111   .     S
C1086  H1144   1.107   .     S
C1086  H1143   1.110   .     S
C1087  H1152   1.099   .     S
C1087  C1088   1.533   .     S
C1087  H1153   1.111   .     S
C1088  H1150   1.111   .     S
C1088  H1149   1.103   .     S
C1088  H1151   1.110   .     S
C1089  H1157   1.091   .     S
C1089  H1158   1.103   .     S
C1089  C1090   1.525   .     S
C1090  H1155   1.110   .     S
C1090  H1154   1.100   .     S
C1090  H1156   1.112   .     S
C1091  H1163   1.107   .     S
C1091  H1164   1.111   .     S
C1091  C1092   1.535   .     S
C1092  H1162   1.110   .     S
C1092  H1161   1.108   .     S
C1092  H1160   1.108   .     S
C1093  C1094   1.526   .     S
C1093  H1168   1.102   .     S
C1093  H1169   1.109   .     S
C1094  H1166   1.109   .     S
C1094  H1165   1.108   .     S
C1094  H1167   1.110   .     S
C1095  C1097   1.527   .     S
C1095  H1174   1.104   .     S
C1095  H1175   1.106   .     S
C1096  O1231   1.289   .     A
C1096  O1230   1.310   .     A
C1097  H1172   1.111   .     S
C1097  H1173   1.111   .     S
C1097  H1171   1.109   .     S
C1098  H1179   1.102   .     S
C1098  H1180   1.111   .     S
C1098  C1099   1.519   .     S
C1099  H1177   1.109   .     S
C1099  H1176   1.111   .     S
C1099  H1178   1.106   .     S
C1100  H1186   1.105   .     S
C1100  C1101   1.524   .     S
C1100  H1185   1.096   .     S
C1101  H1183   1.110   .     S
C1101  H1184   1.106   .     S
C1101  H1182   1.111   .     S
C1102  C1103   1.524   .     S
C1102  H1191   1.106   .     S
C1102  H1190   1.105   .     S
C1103  H1188   1.104   .     S
C1103  H1189   1.111   .     S
C1103  H1187   1.111   .     S
C1104  H1197   1.105   .     S
C1104  H1196   1.107   .     S
C1104  C1105   1.522   .     S
C1105  H1193   1.107   .     S
C1105  H1194   1.110   .     S
C1105  H1195   1.111   .     S
C1106  C1108   1.527   .     S
C1106  H1202   1.110   .     S
C1106  H1201   1.105   .     S
C1107  O1236   1.318   .     A
C1107  O1233   1.283   .     A
C1108  H1199   1.108   .     S
C1108  H1198   1.111   .     S
C1108  H1200   1.110   .     S
C1109  H1207   1.104   .     S
C1109  C1110   1.523   .     S
C1109  H1208   1.105   .     S
C1110  H1205   1.110   .     S
C1110  H1204   1.109   .     S
C1110  H1206   1.111   .     S
C1111  H1213   1.111   .     S
C1111  C1112   1.527   .     S
C1111  H1212   1.102   .     S
C1112  H1210   1.108   .     S
C1112  H1211   1.110   .     S
C1112  H1209   1.109   .     S
C1113  C1114   1.527   .     S
C1113  H1218   1.102   .     S
C1113  H1219   1.107   .     S
C1114  H1216   1.107   .     S
C1114  H1217   1.110   .     S
C1114  H1215   1.102   .     S
C1115  H1223   1.105   .     S
C1115  H1224   1.112   .     S
C1115  C1116   1.522   .     S
C1116  H1220   1.111   .     S
C1116  H1221   1.103   .     S
C1116  H1638   1.111   1_545 S
C1117  C1119   1.529   .     S
C1117  H1126   1.101   .     S
C1117  H1127   1.108   .     S
C1118  O1234   1.314   .     A
C1118  O1235   1.293   .     A
C1119  H1124   1.111   .     S
C1119  H1123   1.107   .     S
C1119  H1125   1.110   .     S
C1120  N1018   1.376   1_655 S
H1181  C869    1.103   1_655 S
H1222  C1532   1.111   .     S
N1225  Zn1245  2.045   .     S
N1226  Zn1246  2.045   .     S
N1227  Zn1247  2.045   .     S
N1227  C1462   1.378   1_545 S
N1228  Zn1248  2.045   .     S
N1228  C1463   1.377   1_545 S
O1229  Zn1245  2.002   .     S
O1230  Zn1248  2.002   .     S
O1231  Zn1247  1.998   .     S
O1232  Zn1664  1.998   .     S
O1233  Zn1664  2.026   .     S
O1234  Zn1247  2.026   .     S
O1235  Zn1248  2.031   .     S
O1236  Zn1663  2.031   .     S
O1237  Zn1038  2.002   1_655 S
O1238  Zn1037  1.998   1_655 S
O1239  Zn1246  1.998   .     S
O1240  Zn1038  2.026   1_655 S
O1241  Zn1245  2.026   .     S
O1242  Zn1246  2.031   .     S
O1243  Zn1037  2.031   1_655 S
O1244  Zn1663  2.002   .     S
Zn1247 O1652   2.031   1_545 S
Zn1247 O1660   2.002   1_545 S
Zn1248 O1649   2.026   1_545 S
Zn1248 O1648   1.998   1_545 S
C1249  O1447   1.315   .     A
C1249  C1278   1.455   .     S
C1249  O1437   1.294   .     A
C1250  C1285   1.506   .     S
C1250  C2083   1.434   .     S
C1250  N1433   1.381   .     S
C1251  N1434   1.378   .     A
C1251  C1494   1.515   1_455 S
C1252  N1641   1.379   .     A
C1252  C1287   1.513   .     S
C1252  C2160   1.431   .     S
C1253  C1288   1.493   .     S
C1253  N1436   1.374   .     A
C1254  C1289   1.501   .     S
C1254  C2087   1.433   .     S
C1254  N1019   1.378   1_565 S
C1255  C1290   1.508   .     S
C1255  N1020   1.377   1_565 S
C1256  C1291   1.500   .     S
C1256  N1435   1.376   .     A
C1256  C2085   1.427   .     S
C1257  C1268   1.394   .     A
C1257  C1292   1.529   .     S
C1257  C1276   1.421   .     A
C1258  C1275   1.423   .     A
C1258  C1269   1.385   .     A
C1258  C1295   1.517   .     S
C1259  C1266   1.403   .     A
C1259  C1275   1.429   .     A
C1259  C1297   1.535   .     S
C1260  C1277   1.438   .     S
C1260  O1445   1.314   .     A
C1260  O1446   1.286   .     A
C1261  C1299   1.523   .     S
C1261  C1276   1.421   .     A
C1261  C1267   1.387   .     A
C1262  C1278   1.409   .     A
C1262  C1301   1.531   .     S
C1262  C1273   1.386   .     A
C1263  C1277   1.399   .     A
C1263  C1274   1.391   .     A
C1263  C1303   1.519   .     S
C1264  C1277   1.420   .     A
C1264  C1306   1.523   .     S
C1264  C1270   1.389   .     A
C1265  C1278   1.417   .     A
C1265  C1272   1.405   .     A
C1265  C1308   1.518   .     S
C1266  C1310   1.534   .     S
C1266  C1280   1.426   .     A
C1267  C1279   1.403   .     A
C1267  C1312   1.510   .     S
C1268  C1314   1.526   .     S
C1268  C1279   1.420   .     A
C1269  C1280   1.395   .     A
C1269  C1317   1.519   .     S
C1270  C1283   1.415   .     A
C1270  C1319   1.526   .     S
C1271  C1276   1.457   .     S
C1271  O1448   1.303   .     A
C1271  O1451   1.306   .     A
C1272  C1321   1.524   .     S
C1272  C1281   1.417   .     A
C1273  C1323   1.527   .     S
C1273  C1281   1.419   .     A
C1274  C1325   1.519   .     S
C1274  C1283   1.427   .     A
C1275  C1282   1.466   .     S
C1279  C1326   1.452   .     S
C1280  C1315   1.442   .     S
C1281  C1304   1.438   .     S
C1282  O1449   1.313   .     A
C1282  O1450   1.302   .     A
C1283  C1293   1.456   .     S
C1284  H1356   1.104   .     S
C1284  C1328   1.497   .     S
C1284  H1537   1.074   .     S
C1284  H1553   1.104   .     S
C1285  H1378   1.106   .     S
C1285  H1367   1.086   .     S
C1285  H1597   1.103   1_455 S
C1286  H1411   1.109   .     S
C1286  C1459   1.515   .     S
C1286  H1608   1.084   .     S
C1286  H1630   1.107   .     S
C1287  H1336   1.108   .     S
C1287  H1330   1.086   .     S
C1287  H1545   1.104   .     S
C1288  H1338   1.072   .     S
C1288  H1340   1.110   .     S
C1288  H1339   1.110   .     S
C1289  H1342   1.108   .     S
C1289  H1341   1.076   .     S
C1289  H1343   1.106   .     S
C1290  H1344   1.086   .     S
C1290  H1346   1.099   .     S
C1290  H1347   1.105   .     S
C1291  H1349   1.106   .     S
C1291  H1348   1.078   .     S
C1291  H1350   1.105   .     S
C1292  C1294   1.530   .     S
C1292  H1355   1.111   .     S
C1292  H1354   1.105   .     S
C1293  O1440   1.304   .     A
C1293  O1452   1.304   .     A
C1294  H1353   1.111   .     S
C1294  H1352   1.107   .     S
C1294  H1351   1.110   .     S
C1295  H1360   1.099   .     S
C1295  C1296   1.533   .     S
C1295  H1361   1.111   .     S
C1296  H1358   1.111   .     S
C1296  H1357   1.103   .     S
C1296  H1359   1.110   .     S
C1297  H1365   1.091   .     S
C1297  H1366   1.103   .     S
C1297  C1298   1.525   .     S
C1298  H1363   1.110   .     S
C1298  H1362   1.100   .     S
C1298  H1364   1.112   .     S
C1299  H1371   1.107   .     S
C1299  H1372   1.111   .     S
C1299  C1300   1.535   .     S
C1300  H1370   1.110   .     S
C1300  H1369   1.108   .     S
C1300  H1368   1.108   .     S
C1301  C1302   1.526   .     S
C1301  H1376   1.102   .     S
C1301  H1377   1.109   .     S
C1302  H1374   1.109   .     S
C1302  H1373   1.108   .     S
C1302  H1375   1.110   .     S
C1303  C1305   1.527   .     S
C1303  H1382   1.104   .     S
C1303  H1383   1.106   .     S
C1304  O1439   1.289   .     A
C1304  O1438   1.310   .     A
C1305  H1380   1.111   .     S
C1305  H1381   1.111   .     S
C1305  H1379   1.109   .     S
C1306  H1387   1.102   .     S
C1306  H1388   1.111   .     S
C1306  C1307   1.519   .     S
C1307  H1385   1.109   .     S
C1307  H1384   1.111   .     S
C1307  H1386   1.106   .     S
C1308  H1394   1.105   .     S
C1308  C1309   1.524   .     S
C1308  H1393   1.096   .     S
C1309  H1391   1.110   .     S
C1309  H1392   1.106   .     S
C1309  H1390   1.111   .     S
C1310  C1311   1.524   .     S
C1310  H1399   1.106   .     S
C1310  H1398   1.105   .     S
C1311  H1396   1.104   .     S
C1311  H1397   1.111   .     S
C1311  H1395   1.111   .     S
C1312  H1405   1.105   .     S
C1312  H1404   1.107   .     S
C1312  C1313   1.522   .     S
C1313  H1401   1.107   .     S
C1313  H1402   1.110   .     S
C1313  H1403   1.111   .     S
C1314  C1316   1.527   .     S
C1314  H1410   1.110   .     S
C1314  H1409   1.105   .     S
C1315  O1444   1.318   .     A
C1315  O1441   1.283   .     A
C1316  H1407   1.108   .     S
C1316  H1406   1.111   .     S
C1316  H1408   1.110   .     S
C1317  H1415   1.104   .     S
C1317  C1318   1.523   .     S
C1317  H1416   1.105   .     S
C1318  H1413   1.110   .     S
C1318  H1412   1.109   .     S
C1318  H1414   1.111   .     S
C1319  H1421   1.111   .     S
C1319  C1320   1.527   .     S
C1319  H1420   1.102   .     S
C1320  H1418   1.108   .     S
C1320  H1419   1.110   .     S
C1320  H1417   1.109   .     S
C1321  C1322   1.527   .     S
C1321  H1426   1.102   .     S
C1321  H1427   1.107   .     S
C1322  H1424   1.107   .     S
C1322  H1425   1.110   .     S
C1322  H1423   1.102   .     S
C1323  H1431   1.105   .     S
C1323  H1432   1.112   .     S
C1323  C1324   1.522   .     S
C1324  H1428   1.111   .     S
C1324  H1429   1.103   .     S
C1325  C1327   1.529   .     S
C1325  H1334   1.101   .     S
C1325  H1335   1.108   .     S
C1326  O1442   1.314   .     A
C1326  O1443   1.293   .     A
C1327  H1332   1.111   .     S
C1327  H1331   1.107   .     S
C1327  H1333   1.110   .     S
C1328  N1642   1.376   .     S
H1329  C1492   1.074   1_455 S
H1337  C1495   1.104   1_455 S
H1345  C1492   1.104   1_455 S
H1389  C1493   1.103   .     S
H1400  C1494   1.084   1_455 S
H1422  C1494   1.107   1_455 S
H1430  C908    1.111   1_565 S
N1433  C1460   1.379   1_455 A
N1433  Zn1453  2.045   .     S
N1434  Zn1454  2.045   .     S
N1434  C1536   1.376   1_455 S
N1435  Zn1455  2.045   .     S
N1436  Zn1456  2.045   .     S
O1437  Zn1453  2.002   .     S
O1438  Zn1456  2.002   .     S
O1439  Zn1455  1.998   .     S
O1440  Zn1040  1.998   1_565 S
O1441  Zn1040  2.026   1_565 S
O1442  Zn1455  2.026   .     S
O1443  Zn1456  2.031   .     S
O1444  Zn1039  2.031   1_565 S
O1445  Zn1662  2.002   .     S
O1446  Zn1661  1.998   .     S
O1447  Zn1454  1.998   .     S
O1448  Zn1662  2.026   .     S
O1449  Zn1453  2.026   .     S
O1450  Zn1454  2.031   .     S
O1451  Zn1661  2.031   .     S
O1452  Zn1039  2.002   1_565 S
Zn1453 O1659   2.031   1_455 S
Zn1453 O1654   1.998   1_455 S
Zn1454 O1656   2.026   1_455 S
Zn1454 O1653   2.002   1_455 S
C1457  O1655   1.315   .     A
C1457  C1486   1.455   .     S
C1457  O1645   1.294   .     A
C1458  C1493   1.506   .     S
C1458  C2291   1.434   .     S
C1458  N1641   1.381   .     S
C1459  N1642   1.378   .     A
C1460  N1433   1.379   1_655 A
C1460  C1495   1.513   .     S
C1460  C2368   1.431   .     S
C1461  C1496   1.493   .     S
C1461  N1644   1.374   .     A
C1462  C1497   1.501   .     S
C1462  C2295   1.433   .     S
C1462  N1227   1.378   1_565 S
C1463  C1498   1.508   .     S
C1463  N1228   1.377   1_565 S
C1464  C1499   1.500   .     S
C1464  N1643   1.376   .     A
C1464  C2293   1.427   .     S
C1465  C1476   1.394   .     A
C1465  C1500   1.529   .     S
C1465  C1484   1.421   .     A
C1466  C1483   1.423   .     A
C1466  C1477   1.385   .     A
C1466  C1503   1.517   .     S
C1467  C1474   1.403   .     A
C1467  C1483   1.429   .     A
C1467  C1505   1.535   .     S
C1468  C1485   1.438   .     S
C1468  O1653   1.314   .     A
C1468  O1654   1.286   .     A
C1469  C1507   1.523   .     S
C1469  C1484   1.421   .     A
C1469  C1475   1.387   .     A
C1470  C1486   1.409   .     A
C1470  C1509   1.531   .     S
C1470  C1481   1.386   .     A
C1471  C1485   1.399   .     A
C1471  C1482   1.391   .     A
C1471  C1511   1.519   .     S
C1472  C1485   1.420   .     A
C1472  C1514   1.523   .     S
C1472  C1478   1.389   .     A
C1473  C1486   1.417   .     A
C1473  C1480   1.405   .     A
C1473  C1516   1.518   .     S
C1474  C1518   1.534   .     S
C1474  C1488   1.426   .     A
C1475  C1487   1.403   .     A
C1475  C1520   1.510   .     S
C1476  C1522   1.526   .     S
C1476  C1487   1.420   .     A
C1477  C1488   1.395   .     A
C1477  C1525   1.519   .     S
C1478  C1491   1.415   .     A
C1478  C1527   1.526   .     S
C1479  C1484   1.457   .     S
C1479  O1656   1.303   .     A
C1479  O1659   1.306   .     A
C1480  C1529   1.524   .     S
C1480  C1489   1.417   .     A
C1481  C1531   1.527   .     S
C1481  C1489   1.419   .     A
C1482  C1533   1.519   .     S
C1482  C1491   1.427   .     A
C1483  C1490   1.466   .     S
C1487  C1534   1.452   .     S
C1488  C1523   1.442   .     S
C1489  C1512   1.438   .     S
C1490  O1657   1.313   .     A
C1490  O1658   1.302   .     A
C1491  C1501   1.456   .     S
C1492  H1564   1.104   .     S
C1492  C1536   1.497   .     S
C1492  H1329   1.074   1_655 S
C1492  H1345   1.104   1_655 S
C1493  H1586   1.106   .     S
C1493  H1575   1.086   .     S
C1494  H1619   1.109   .     S
C1494  C1251   1.515   1_655 S
C1494  H1400   1.084   1_655 S
C1494  H1422   1.107   1_655 S
C1495  H1544   1.108   .     S
C1495  H1538   1.086   .     S
C1495  H1337   1.104   1_655 S
C1496  H1546   1.072   .     S
C1496  H1548   1.110   .     S
C1496  H1547   1.110   .     S
C1497  H1550   1.108   .     S
C1497  H1549   1.076   .     S
C1497  H1551   1.106   .     S
C1498  H1552   1.086   .     S
C1498  H1554   1.099   .     S
C1498  H1555   1.105   .     S
C1499  H1557   1.106   .     S
C1499  H1556   1.078   .     S
C1499  H1558   1.105   .     S
C1500  C1502   1.530   .     S
C1500  H1563   1.111   .     S
C1500  H1562   1.105   .     S
C1501  O1648   1.304   .     A
C1501  O1660   1.304   .     A
C1502  H1561   1.111   .     S
C1502  H1560   1.107   .     S
C1502  H1559   1.110   .     S
C1503  H1568   1.099   .     S
C1503  C1504   1.533   .     S
C1503  H1569   1.111   .     S
C1504  H1566   1.111   .     S
C1504  H1565   1.103   .     S
C1504  H1567   1.110   .     S
C1505  H1573   1.091   .     S
C1505  H1574   1.103   .     S
C1505  C1506   1.525   .     S
C1506  H1571   1.110   .     S
C1506  H1570   1.100   .     S
C1506  H1572   1.112   .     S
C1507  H1579   1.107   .     S
C1507  H1580   1.111   .     S
C1507  C1508   1.535   .     S
C1508  H1578   1.110   .     S
C1508  H1577   1.108   .     S
C1508  H1576   1.108   .     S
C1509  C1510   1.526   .     S
C1509  H1584   1.102   .     S
C1509  H1585   1.109   .     S
C1510  H1582   1.109   .     S
C1510  H1581   1.108   .     S
C1510  H1583   1.110   .     S
C1511  C1513   1.527   .     S
C1511  H1590   1.104   .     S
C1511  H1591   1.106   .     S
C1512  O1647   1.289   .     A
C1512  O1646   1.310   .     A
C1513  H1588   1.111   .     S
C1513  H1589   1.111   .     S
C1513  H1587   1.109   .     S
C1514  H1595   1.102   .     S
C1514  H1596   1.111   .     S
C1514  C1515   1.519   .     S
C1515  H1593   1.109   .     S
C1515  H1592   1.111   .     S
C1515  H1594   1.106   .     S
C1516  H1602   1.105   .     S
C1516  C1517   1.524   .     S
C1516  H1601   1.096   .     S
C1517  H1599   1.110   .     S
C1517  H1600   1.106   .     S
C1517  H1598   1.111   .     S
C1518  C1519   1.524   .     S
C1518  H1607   1.106   .     S
C1518  H1606   1.105   .     S
C1519  H1604   1.104   .     S
C1519  H1605   1.111   .     S
C1519  H1603   1.111   .     S
C1520  H1613   1.105   .     S
C1520  H1612   1.107   .     S
C1520  C1521   1.522   .     S
C1521  H1609   1.107   .     S
C1521  H1610   1.110   .     S
C1521  H1611   1.111   .     S
C1522  C1524   1.527   .     S
C1522  H1618   1.110   .     S
C1522  H1617   1.105   .     S
C1523  O1652   1.318   .     A
C1523  O1649   1.283   .     A
C1524  H1615   1.108   .     S
C1524  H1614   1.111   .     S
C1524  H1616   1.110   .     S
C1525  H1623   1.104   .     S
C1525  C1526   1.523   .     S
C1525  H1624   1.105   .     S
C1526  H1621   1.110   .     S
C1526  H1620   1.109   .     S
C1526  H1622   1.111   .     S
C1527  H1629   1.111   .     S
C1527  C1528   1.527   .     S
C1527  H1628   1.102   .     S
C1528  H1626   1.108   .     S
C1528  H1627   1.110   .     S
C1528  H1625   1.109   .     S
C1529  C1530   1.527   .     S
C1529  H1634   1.102   .     S
C1529  H1635   1.107   .     S
C1530  H1632   1.107   .     S
C1530  H1633   1.110   .     S
C1530  H1631   1.102   .     S
C1531  H1639   1.105   .     S
C1531  H1640   1.112   .     S
C1531  C1532   1.522   .     S
C1532  H1636   1.111   .     S
C1532  H1637   1.103   .     S
C1533  C1535   1.529   .     S
C1533  H1542   1.101   .     S
C1533  H1543   1.108   .     S
C1534  O1650   1.314   .     A
C1534  O1651   1.293   .     A
C1535  H1540   1.111   .     S
C1535  H1539   1.107   .     S
C1535  H1541   1.110   .     S
C1536  N1434   1.376   1_655 S
H1597  C1285   1.103   1_655 S
H1638  C1116   1.111   1_565 S
N1641  Zn1661  2.045   .     S
N1642  Zn1662  2.045   .     S
N1643  Zn1663  2.045   .     S
N1644  Zn1664  2.045   .     S
O1645  Zn1661  2.002   .     S
O1646  Zn1664  2.002   .     S
O1647  Zn1663  1.998   .     S
O1648  Zn1248  1.998   1_565 S
O1649  Zn1248  2.026   1_565 S
O1650  Zn1663  2.026   .     S
O1651  Zn1664  2.031   .     S
O1652  Zn1247  2.031   1_565 S
O1653  Zn1454  2.002   1_655 S
O1654  Zn1453  1.998   1_655 S
O1655  Zn1662  1.998   .     S
O1656  Zn1454  2.026   1_655 S
O1657  Zn1661  2.026   .     S
O1658  Zn1662  2.031   .     S
O1659  Zn1453  2.031   1_655 S
O1660  Zn1247  2.002   1_565 S
C1665  O1863   1.315   .     A
C1665  C1694   1.455   .     S
C1665  O1853   1.294   .     A
C1666  C1701   1.506   .     S
C1666  C3      1.434   1_556 S
C1666  N1849   1.381   .     S
C1667  N1850   1.378   .     A
C1667  C1910   1.515   1_455 S
C1668  N2057   1.379   .     A
C1668  C1703   1.513   .     S
C1668  C80     1.431   1_556 S
C1669  C1704   1.493   .     S
C1669  N1852   1.374   .     A
C1670  C1705   1.501   .     S
C1670  C7      1.433   1_556 S
C1670  N2267   1.378   .     S
C1671  C1706   1.508   .     S
C1671  N2268   1.377   .     S
C1672  C1707   1.500   .     S
C1672  N1851   1.376   .     A
C1672  C5      1.427   1_556 S
C1673  C1684   1.394   .     A
C1673  C1708   1.529   .     S
C1673  C1692   1.421   .     A
C1674  C1691   1.423   .     A
C1674  C1685   1.385   .     A
C1674  C1711   1.517   .     S
C1675  C1682   1.403   .     A
C1675  C1691   1.429   .     A
C1675  C1713   1.535   .     S
C1676  C1693   1.438   .     S
C1676  O1861   1.314   .     A
C1676  O1862   1.286   .     A
C1677  C1715   1.523   .     S
C1677  C1692   1.421   .     A
C1677  C1683   1.387   .     A
C1678  C1694   1.409   .     A
C1678  C1717   1.531   .     S
C1678  C1689   1.386   .     A
C1679  C1693   1.399   .     A
C1679  C1690   1.391   .     A
C1679  C1719   1.519   .     S
C1680  C1693   1.420   .     A
C1680  C1722   1.523   .     S
C1680  C1686   1.389   .     A
C1681  C1694   1.417   .     A
C1681  C1688   1.405   .     A
C1681  C1724   1.518   .     S
C1682  C1726   1.534   .     S
C1682  C1696   1.426   .     A
C1683  C1695   1.403   .     A
C1683  C1728   1.510   .     S
C1684  C1730   1.526   .     S
C1684  C1695   1.420   .     A
C1685  C1696   1.395   .     A
C1685  C1733   1.519   .     S
C1686  C1699   1.415   .     A
C1686  C1735   1.526   .     S
C1687  C1692   1.457   .     S
C1687  O1864   1.303   .     A
C1687  O1867   1.306   .     A
C1688  C1737   1.524   .     S
C1688  C1697   1.417   .     A
C1689  C1739   1.527   .     S
C1689  C1697   1.419   .     A
C1690  C1741   1.519   .     S
C1690  C1699   1.427   .     A
C1691  C1698   1.466   .     S
C1695  C1742   1.452   .     S
C1696  C1731   1.442   .     S
C1697  C1720   1.438   .     S
C1698  O1865   1.313   .     A
C1698  O1866   1.302   .     A
C1699  C1709   1.456   .     S
C1700  H1772   1.104   .     S
C1700  C1744   1.497   .     S
C1700  H1953   1.074   .     S
C1700  H1969   1.104   .     S
C1701  H1794   1.106   .     S
C1701  H1783   1.086   .     S
C1701  H2013   1.103   1_455 S
C1702  H1827   1.109   .     S
C1702  C1875   1.515   .     S
C1702  H2024   1.084   .     S
C1702  H2046   1.107   .     S
C1703  H1752   1.108   .     S
C1703  H1746   1.086   .     S
C1703  H1961   1.104   .     S
C1704  H1754   1.072   .     S
C1704  H1756   1.110   .     S
C1704  H1755   1.110   .     S
C1705  H1758   1.108   .     S
C1705  H1757   1.076   .     S
C1705  H1759   1.106   .     S
C1706  H1760   1.086   .     S
C1706  H1762   1.099   .     S
C1706  H1763   1.105   .     S
C1707  H1765   1.106   .     S
C1707  H1764   1.078   .     S
C1707  H1766   1.105   .     S
C1708  C1710   1.530   .     S
C1708  H1771   1.111   .     S
C1708  H1770   1.105   .     S
C1709  O1856   1.304   .     A
C1709  O1868   1.304   .     A
C1710  H1769   1.111   .     S
C1710  H1768   1.107   .     S
C1710  H1767   1.110   .     S
C1711  H1776   1.099   .     S
C1711  C1712   1.533   .     S
C1711  H1777   1.111   .     S
C1712  H1774   1.111   .     S
C1712  H1773   1.103   .     S
C1712  H1775   1.110   .     S
C1713  H1781   1.091   .     S
C1713  H1782   1.103   .     S
C1713  C1714   1.525   .     S
C1714  H1779   1.110   .     S
C1714  H1778   1.100   .     S
C1714  H1780   1.112   .     S
C1715  H1787   1.107   .     S
C1715  H1788   1.111   .     S
C1715  C1716   1.535   .     S
C1716  H1786   1.110   .     S
C1716  H1785   1.108   .     S
C1716  H1784   1.108   .     S
C1717  C1718   1.526   .     S
C1717  H1792   1.102   .     S
C1717  H1793   1.109   .     S
C1718  H1790   1.109   .     S
C1718  H1789   1.108   .     S
C1718  H1791   1.110   .     S
C1719  C1721   1.527   .     S
C1719  H1798   1.104   .     S
C1719  H1799   1.106   .     S
C1720  O1855   1.289   .     A
C1720  O1854   1.310   .     A
C1721  H1796   1.111   .     S
C1721  H1797   1.111   .     S
C1721  H1795   1.109   .     S
C1722  H1803   1.102   .     S
C1722  H1804   1.111   .     S
C1722  C1723   1.519   .     S
C1723  H1801   1.109   .     S
C1723  H1800   1.111   .     S
C1723  H1802   1.106   .     S
C1724  H1810   1.105   .     S
C1724  C1725   1.524   .     S
C1724  H1809   1.096   .     S
C1725  H1807   1.110   .     S
C1725  H1808   1.106   .     S
C1725  H1806   1.111   .     S
C1726  C1727   1.524   .     S
C1726  H1815   1.106   .     S
C1726  H1814   1.105   .     S
C1727  H1812   1.104   .     S
C1727  H1813   1.111   .     S
C1727  H1811   1.111   .     S
C1728  H1821   1.105   .     S
C1728  H1820   1.107   .     S
C1728  C1729   1.522   .     S
C1729  H1817   1.107   .     S
C1729  H1818   1.110   .     S
C1729  H1819   1.111   .     S
C1730  C1732   1.527   .     S
C1730  H1826   1.110   .     S
C1730  H1825   1.105   .     S
C1731  O1860   1.318   .     A
C1731  O1857   1.283   .     A
C1732  H1823   1.108   .     S
C1732  H1822   1.111   .     S
C1732  H1824   1.110   .     S
C1733  H1831   1.104   .     S
C1733  C1734   1.523   .     S
C1733  H1832   1.105   .     S
C1734  H1829   1.110   .     S
C1734  H1828   1.109   .     S
C1734  H1830   1.111   .     S
C1735  H1837   1.111   .     S
C1735  C1736   1.527   .     S
C1735  H1836   1.102   .     S
C1736  H1834   1.108   .     S
C1736  H1835   1.110   .     S
C1736  H1833   1.109   .     S
C1737  C1738   1.527   .     S
C1737  H1842   1.102   .     S
C1737  H1843   1.107   .     S
C1738  H1840   1.107   .     S
C1738  H1841   1.110   .     S
C1738  H1839   1.102   .     S
C1739  H1847   1.105   .     S
C1739  H1848   1.112   .     S
C1739  C1740   1.522   .     S
C1740  H1844   1.111   .     S
C1740  H1845   1.103   .     S
C1740  H2262   1.111   1_545 S
C1741  C1743   1.529   .     S
C1741  H1750   1.101   .     S
C1741  H1751   1.108   .     S
C1742  O1858   1.314   .     A
C1742  O1859   1.293   .     A
C1743  H1748   1.111   .     S
C1743  H1747   1.107   .     S
C1743  H1749   1.110   .     S
C1744  N2058   1.376   .     S
H1745  C1908   1.074   1_455 S
H1753  C1911   1.104   1_455 S
H1761  C1908   1.104   1_455 S
H1805  C1909   1.103   .     S
H1816  C1910   1.084   1_455 S
H1838  C1910   1.107   1_455 S
H1846  C2156   1.111   .     S
N1849  C1876   1.379   1_455 A
N1849  Zn1869  2.045   .     S
N1850  Zn1870  2.045   .     S
N1850  C1952   1.376   1_455 S
N1851  Zn1871  2.045   .     S
N1851  C2086   1.378   1_545 S
N1852  Zn1872  2.045   .     S
N1852  C2087   1.377   1_545 S
O1853  Zn1869  2.002   .     S
O1854  Zn1872  2.002   .     S
O1855  Zn1871  1.998   .     S
O1856  Zn2288  1.998   .     S
O1857  Zn2288  2.026   .     S
O1858  Zn1871  2.026   .     S
O1859  Zn1872  2.031   .     S
O1860  Zn2287  2.031   .     S
O1861  Zn2078  2.002   .     S
O1862  Zn2077  1.998   .     S
O1863  Zn1870  1.998   .     S
O1864  Zn2078  2.026   .     S
O1865  Zn1869  2.026   .     S
O1866  Zn1870  2.031   .     S
O1867  Zn2077  2.031   .     S
O1868  Zn2287  2.002   .     S
Zn1869 O2075   2.031   1_455 S
Zn1869 O2070   1.998   1_455 S
Zn1870 O2072   2.026   1_455 S
Zn1870 O2069   2.002   1_455 S
Zn1871 O2276   2.031   1_545 S
Zn1871 O2284   2.002   1_545 S
Zn1872 O2273   2.026   1_545 S
Zn1872 O2272   1.998   1_545 S
C1873  O2071   1.315   .     A
C1873  C1902   1.455   .     S
C1873  O2061   1.294   .     A
C1874  C1909   1.506   .     S
C1874  C211    1.434   1_556 S
C1874  N2057   1.381   .     S
C1875  N2058   1.378   .     A
C1876  N1849   1.379   1_655 A
C1876  C1911   1.513   .     S
C1876  C288    1.431   1_556 S
C1877  C1912   1.493   .     S
C1877  N2060   1.374   .     A
C1878  C1913   1.501   .     S
C1878  C215    1.433   1_556 S
C1878  N2475   1.378   .     S
C1879  C1914   1.508   .     S
C1879  N2476   1.377   .     S
C1880  C1915   1.500   .     S
C1880  N2059   1.376   .     A
C1880  C213    1.427   1_556 S
C1881  C1892   1.394   .     A
C1881  C1916   1.529   .     S
C1881  C1900   1.421   .     A
C1882  C1899   1.423   .     A
C1882  C1893   1.385   .     A
C1882  C1919   1.517   .     S
C1883  C1890   1.403   .     A
C1883  C1899   1.429   .     A
C1883  C1921   1.535   .     S
C1884  C1901   1.438   .     S
C1884  O2069   1.314   .     A
C1884  O2070   1.286   .     A
C1885  C1923   1.523   .     S
C1885  C1900   1.421   .     A
C1885  C1891   1.387   .     A
C1886  C1902   1.409   .     A
C1886  C1925   1.531   .     S
C1886  C1897   1.386   .     A
C1887  C1901   1.399   .     A
C1887  C1898   1.391   .     A
C1887  C1927   1.519   .     S
C1888  C1901   1.420   .     A
C1888  C1930   1.523   .     S
C1888  C1894   1.389   .     A
C1889  C1902   1.417   .     A
C1889  C1896   1.405   .     A
C1889  C1932   1.518   .     S
C1890  C1934   1.534   .     S
C1890  C1904   1.426   .     A
C1891  C1903   1.403   .     A
C1891  C1936   1.510   .     S
C1892  C1938   1.526   .     S
C1892  C1903   1.420   .     A
C1893  C1904   1.395   .     A
C1893  C1941   1.519   .     S
C1894  C1907   1.415   .     A
C1894  C1943   1.526   .     S
C1895  C1900   1.457   .     S
C1895  O2072   1.303   .     A
C1895  O2075   1.306   .     A
C1896  C1945   1.524   .     S
C1896  C1905   1.417   .     A
C1897  C1947   1.527   .     S
C1897  C1905   1.419   .     A
C1898  C1949   1.519   .     S
C1898  C1907   1.427   .     A
C1899  C1906   1.466   .     S
C1903  C1950   1.452   .     S
C1904  C1939   1.442   .     S
C1905  C1928   1.438   .     S
C1906  O2073   1.313   .     A
C1906  O2074   1.302   .     A
C1907  C1917   1.456   .     S
C1908  H1980   1.104   .     S
C1908  C1952   1.497   .     S
C1908  H1745   1.074   1_655 S
C1908  H1761   1.104   1_655 S
C1909  H2002   1.106   .     S
C1909  H1991   1.086   .     S
C1910  H2035   1.109   .     S
C1910  C1667   1.515   1_655 S
C1910  H1816   1.084   1_655 S
C1910  H1838   1.107   1_655 S
C1911  H1960   1.108   .     S
C1911  H1954   1.086   .     S
C1911  H1753   1.104   1_655 S
C1912  H1962   1.072   .     S
C1912  H1964   1.110   .     S
C1912  H1963   1.110   .     S
C1913  H1966   1.108   .     S
C1913  H1965   1.076   .     S
C1913  H1967   1.106   .     S
C1914  H1968   1.086   .     S
C1914  H1970   1.099   .     S
C1914  H1971   1.105   .     S
C1915  H1973   1.106   .     S
C1915  H1972   1.078   .     S
C1915  H1974   1.105   .     S
C1916  C1918   1.530   .     S
C1916  H1979   1.111   .     S
C1916  H1978   1.105   .     S
C1917  O2064   1.304   .     A
C1917  O2076   1.304   .     A
C1918  H1977   1.111   .     S
C1918  H1976   1.107   .     S
C1918  H1975   1.110   .     S
C1919  H1984   1.099   .     S
C1919  C1920   1.533   .     S
C1919  H1985   1.111   .     S
C1920  H1982   1.111   .     S
C1920  H1981   1.103   .     S
C1920  H1983   1.110   .     S
C1921  H1989   1.091   .     S
C1921  H1990   1.103   .     S
C1921  C1922   1.525   .     S
C1922  H1987   1.110   .     S
C1922  H1986   1.100   .     S
C1922  H1988   1.112   .     S
C1923  H1995   1.107   .     S
C1923  H1996   1.111   .     S
C1923  C1924   1.535   .     S
C1924  H1994   1.110   .     S
C1924  H1993   1.108   .     S
C1924  H1992   1.108   .     S
C1925  C1926   1.526   .     S
C1925  H2000   1.102   .     S
C1925  H2001   1.109   .     S
C1926  H1998   1.109   .     S
C1926  H1997   1.108   .     S
C1926  H1999   1.110   .     S
C1927  C1929   1.527   .     S
C1927  H2006   1.104   .     S
C1927  H2007   1.106   .     S
C1928  O2063   1.289   .     A
C1928  O2062   1.310   .     A
C1929  H2004   1.111   .     S
C1929  H2005   1.111   .     S
C1929  H2003   1.109   .     S
C1930  H2011   1.102   .     S
C1930  H2012   1.111   .     S
C1930  C1931   1.519   .     S
C1931  H2009   1.109   .     S
C1931  H2008   1.111   .     S
C1931  H2010   1.106   .     S
C1932  H2018   1.105   .     S
C1932  C1933   1.524   .     S
C1932  H2017   1.096   .     S
C1933  H2015   1.110   .     S
C1933  H2016   1.106   .     S
C1933  H2014   1.111   .     S
C1934  C1935   1.524   .     S
C1934  H2023   1.106   .     S
C1934  H2022   1.105   .     S
C1935  H2020   1.104   .     S
C1935  H2021   1.111   .     S
C1935  H2019   1.111   .     S
C1936  H2029   1.105   .     S
C1936  H2028   1.107   .     S
C1936  C1937   1.522   .     S
C1937  H2025   1.107   .     S
C1937  H2026   1.110   .     S
C1937  H2027   1.111   .     S
C1938  C1940   1.527   .     S
C1938  H2034   1.110   .     S
C1938  H2033   1.105   .     S
C1939  O2068   1.318   .     A
C1939  O2065   1.283   .     A
C1940  H2031   1.108   .     S
C1940  H2030   1.111   .     S
C1940  H2032   1.110   .     S
C1941  H2039   1.104   .     S
C1941  C1942   1.523   .     S
C1941  H2040   1.105   .     S
C1942  H2037   1.110   .     S
C1942  H2036   1.109   .     S
C1942  H2038   1.111   .     S
C1943  H2045   1.111   .     S
C1943  C1944   1.527   .     S
C1943  H2044   1.102   .     S
C1944  H2042   1.108   .     S
C1944  H2043   1.110   .     S
C1944  H2041   1.109   .     S
C1945  C1946   1.527   .     S
C1945  H2050   1.102   .     S
C1945  H2051   1.107   .     S
C1946  H2048   1.107   .     S
C1946  H2049   1.110   .     S
C1946  H2047   1.102   .     S
C1947  H2055   1.105   .     S
C1947  H2056   1.112   .     S
C1947  C1948   1.522   .     S
C1948  H2052   1.111   .     S
C1948  H2053   1.103   .     S
C1948  H2470   1.111   1_545 S
C1949  C1951   1.529   .     S
C1949  H1958   1.101   .     S
C1949  H1959   1.108   .     S
C1950  O2066   1.314   .     A
C1950  O2067   1.293   .     A
C1951  H1956   1.111   .     S
C1951  H1955   1.107   .     S
C1951  H1957   1.110   .     S
C1952  N1850   1.376   1_655 S
H2013  C1701   1.103   1_655 S
H2054  C2364   1.111   .     S
N2057  Zn2077  2.045   .     S
N2058  Zn2078  2.045   .     S
N2059  Zn2079  2.045   .     S
N2059  C2294   1.378   1_545 S
N2060  Zn2080  2.045   .     S
N2060  C2295   1.377   1_545 S
O2061  Zn2077  2.002   .     S
O2062  Zn2080  2.002   .     S
O2063  Zn2079  1.998   .     S
O2064  Zn2496  1.998   .     S
O2065  Zn2496  2.026   .     S
O2066  Zn2079  2.026   .     S
O2067  Zn2080  2.031   .     S
O2068  Zn2495  2.031   .     S
O2069  Zn1870  2.002   1_655 S
O2070  Zn1869  1.998   1_655 S
O2071  Zn2078  1.998   .     S
O2072  Zn1870  2.026   1_655 S
O2073  Zn2077  2.026   .     S
O2074  Zn2078  2.031   .     S
O2075  Zn1869  2.031   1_655 S
O2076  Zn2495  2.002   .     S
Zn2079 O2484   2.031   1_545 S
Zn2079 O2492   2.002   1_545 S
Zn2080 O2481   2.026   1_545 S
Zn2080 O2480   1.998   1_545 S
C2081  O2279   1.315   .     A
C2081  C2110   1.455   .     S
C2081  O2269   1.294   .     A
C2082  C2117   1.506   .     S
C2082  C419    1.434   1_556 S
C2082  N2265   1.381   .     S
C2083  N2266   1.378   .     A
C2083  C2326   1.515   1_455 S
C2084  N2473   1.379   .     A
C2084  C2119   1.513   .     S
C2084  C496    1.431   1_556 S
C2085  C2120   1.493   .     S
C2085  N2268   1.374   .     A
C2086  C2121   1.501   .     S
C2086  C423    1.433   1_556 S
C2086  N1851   1.378   1_565 S
C2087  C2122   1.508   .     S
C2087  N1852   1.377   1_565 S
C2088  C2123   1.500   .     S
C2088  N2267   1.376   .     A
C2088  C421    1.427   1_556 S
C2089  C2100   1.394   .     A
C2089  C2124   1.529   .     S
C2089  C2108   1.421   .     A
C2090  C2107   1.423   .     A
C2090  C2101   1.385   .     A
C2090  C2127   1.517   .     S
C2091  C2098   1.403   .     A
C2091  C2107   1.429   .     A
C2091  C2129   1.535   .     S
C2092  C2109   1.438   .     S
C2092  O2277   1.314   .     A
C2092  O2278   1.286   .     A
C2093  C2131   1.523   .     S
C2093  C2108   1.421   .     A
C2093  C2099   1.387   .     A
C2094  C2110   1.409   .     A
C2094  C2133   1.531   .     S
C2094  C2105   1.386   .     A
C2095  C2109   1.399   .     A
C2095  C2106   1.391   .     A
C2095  C2135   1.519   .     S
C2096  C2109   1.420   .     A
C2096  C2138   1.523   .     S
C2096  C2102   1.389   .     A
C2097  C2110   1.417   .     A
C2097  C2104   1.405   .     A
C2097  C2140   1.518   .     S
C2098  C2142   1.534   .     S
C2098  C2112   1.426   .     A
C2099  C2111   1.403   .     A
C2099  C2144   1.510   .     S
C2100  C2146   1.526   .     S
C2100  C2111   1.420   .     A
C2101  C2112   1.395   .     A
C2101  C2149   1.519   .     S
C2102  C2115   1.415   .     A
C2102  C2151   1.526   .     S
C2103  C2108   1.457   .     S
C2103  O2280   1.303   .     A
C2103  O2283   1.306   .     A
C2104  C2153   1.524   .     S
C2104  C2113   1.417   .     A
C2105  C2155   1.527   .     S
C2105  C2113   1.419   .     A
C2106  C2157   1.519   .     S
C2106  C2115   1.427   .     A
C2107  C2114   1.466   .     S
C2111  C2158   1.452   .     S
C2112  C2147   1.442   .     S
C2113  C2136   1.438   .     S
C2114  O2281   1.313   .     A
C2114  O2282   1.302   .     A
C2115  C2125   1.456   .     S
C2116  H2188   1.104   .     S
C2116  C2160   1.497   .     S
C2116  H2369   1.074   .     S
C2116  H2385   1.104   .     S
C2117  H2210   1.106   .     S
C2117  H2199   1.086   .     S
C2117  H2429   1.103   1_455 S
C2118  H2243   1.109   .     S
C2118  C2291   1.515   .     S
C2118  H2440   1.084   .     S
C2118  H2462   1.107   .     S
C2119  H2168   1.108   .     S
C2119  H2162   1.086   .     S
C2119  H2377   1.104   .     S
C2120  H2170   1.072   .     S
C2120  H2172   1.110   .     S
C2120  H2171   1.110   .     S
C2121  H2174   1.108   .     S
C2121  H2173   1.076   .     S
C2121  H2175   1.106   .     S
C2122  H2176   1.086   .     S
C2122  H2178   1.099   .     S
C2122  H2179   1.105   .     S
C2123  H2181   1.106   .     S
C2123  H2180   1.078   .     S
C2123  H2182   1.105   .     S
C2124  C2126   1.530   .     S
C2124  H2187   1.111   .     S
C2124  H2186   1.105   .     S
C2125  O2272   1.304   .     A
C2125  O2284   1.304   .     A
C2126  H2185   1.111   .     S
C2126  H2184   1.107   .     S
C2126  H2183   1.110   .     S
C2127  H2192   1.099   .     S
C2127  C2128   1.533   .     S
C2127  H2193   1.111   .     S
C2128  H2190   1.111   .     S
C2128  H2189   1.103   .     S
C2128  H2191   1.110   .     S
C2129  H2197   1.091   .     S
C2129  H2198   1.103   .     S
C2129  C2130   1.525   .     S
C2130  H2195   1.110   .     S
C2130  H2194   1.100   .     S
C2130  H2196   1.112   .     S
C2131  H2203   1.107   .     S
C2131  H2204   1.111   .     S
C2131  C2132   1.535   .     S
C2132  H2202   1.110   .     S
C2132  H2201   1.108   .     S
C2132  H2200   1.108   .     S
C2133  C2134   1.526   .     S
C2133  H2208   1.102   .     S
C2133  H2209   1.109   .     S
C2134  H2206   1.109   .     S
C2134  H2205   1.108   .     S
C2134  H2207   1.110   .     S
C2135  C2137   1.527   .     S
C2135  H2214   1.104   .     S
C2135  H2215   1.106   .     S
C2136  O2271   1.289   .     A
C2136  O2270   1.310   .     A
C2137  H2212   1.111   .     S
C2137  H2213   1.111   .     S
C2137  H2211   1.109   .     S
C2138  H2219   1.102   .     S
C2138  H2220   1.111   .     S
C2138  C2139   1.519   .     S
C2139  H2217   1.109   .     S
C2139  H2216   1.111   .     S
C2139  H2218   1.106   .     S
C2140  H2226   1.105   .     S
C2140  C2141   1.524   .     S
C2140  H2225   1.096   .     S
C2141  H2223   1.110   .     S
C2141  H2224   1.106   .     S
C2141  H2222   1.111   .     S
C2142  C2143   1.524   .     S
C2142  H2231   1.106   .     S
C2142  H2230   1.105   .     S
C2143  H2228   1.104   .     S
C2143  H2229   1.111   .     S
C2143  H2227   1.111   .     S
C2144  H2237   1.105   .     S
C2144  H2236   1.107   .     S
C2144  C2145   1.522   .     S
C2145  H2233   1.107   .     S
C2145  H2234   1.110   .     S
C2145  H2235   1.111   .     S
C2146  C2148   1.527   .     S
C2146  H2242   1.110   .     S
C2146  H2241   1.105   .     S
C2147  O2276   1.318   .     A
C2147  O2273   1.283   .     A
C2148  H2239   1.108   .     S
C2148  H2238   1.111   .     S
C2148  H2240   1.110   .     S
C2149  H2247   1.104   .     S
C2149  C2150   1.523   .     S
C2149  H2248   1.105   .     S
C2150  H2245   1.110   .     S
C2150  H2244   1.109   .     S
C2150  H2246   1.111   .     S
C2151  H2253   1.111   .     S
C2151  C2152   1.527   .     S
C2151  H2252   1.102   .     S
C2152  H2250   1.108   .     S
C2152  H2251   1.110   .     S
C2152  H2249   1.109   .     S
C2153  C2154   1.527   .     S
C2153  H2258   1.102   .     S
C2153  H2259   1.107   .     S
C2154  H2256   1.107   .     S
C2154  H2257   1.110   .     S
C2154  H2255   1.102   .     S
C2155  H2263   1.105   .     S
C2155  H2264   1.112   .     S
C2155  C2156   1.522   .     S
C2156  H2260   1.111   .     S
C2156  H2261   1.103   .     S
C2157  C2159   1.529   .     S
C2157  H2166   1.101   .     S
C2157  H2167   1.108   .     S
C2158  O2274   1.314   .     A
C2158  O2275   1.293   .     A
C2159  H2164   1.111   .     S
C2159  H2163   1.107   .     S
C2159  H2165   1.110   .     S
C2160  N2474   1.376   .     S
H2161  C2324   1.074   1_455 S
H2169  C2327   1.104   1_455 S
H2177  C2324   1.104   1_455 S
H2221  C2325   1.103   .     S
H2232  C2326   1.084   1_455 S
H2254  C2326   1.107   1_455 S
H2262  C1740   1.111   1_565 S
N2265  C2292   1.379   1_455 A
N2265  Zn2285  2.045   .     S
N2266  Zn2286  2.045   .     S
N2266  C2368   1.376   1_455 S
N2267  Zn2287  2.045   .     S
N2268  Zn2288  2.045   .     S
O2269  Zn2285  2.002   .     S
O2270  Zn2288  2.002   .     S
O2271  Zn2287  1.998   .     S
O2272  Zn1872  1.998   1_565 S
O2273  Zn1872  2.026   1_565 S
O2274  Zn2287  2.026   .     S
O2275  Zn2288  2.031   .     S
O2276  Zn1871  2.031   1_565 S
O2277  Zn2494  2.002   .     S
O2278  Zn2493  1.998   .     S
O2279  Zn2286  1.998   .     S
O2280  Zn2494  2.026   .     S
O2281  Zn2285  2.026   .     S
O2282  Zn2286  2.031   .     S
O2283  Zn2493  2.031   .     S
O2284  Zn1871  2.002   1_565 S
Zn2285 O2491   2.031   1_455 S
Zn2285 O2486   1.998   1_455 S
Zn2286 O2488   2.026   1_455 S
Zn2286 O2485   2.002   1_455 S
C2289  O2487   1.315   .     A
C2289  C2318   1.455   .     S
C2289  O2477   1.294   .     A
C2290  C2325   1.506   .     S
C2290  C627    1.434   1_556 S
C2290  N2473   1.381   .     S
C2291  N2474   1.378   .     A
C2292  N2265   1.379   1_655 A
C2292  C2327   1.513   .     S
C2292  C704    1.431   1_556 S
C2293  C2328   1.493   .     S
C2293  N2476   1.374   .     A
C2294  C2329   1.501   .     S
C2294  C631    1.433   1_556 S
C2294  N2059   1.378   1_565 S
C2295  C2330   1.508   .     S
C2295  N2060   1.377   1_565 S
C2296  C2331   1.500   .     S
C2296  N2475   1.376   .     A
C2296  C629    1.427   1_556 S
C2297  C2308   1.394   .     A
C2297  C2332   1.529   .     S
C2297  C2316   1.421   .     A
C2298  C2315   1.423   .     A
C2298  C2309   1.385   .     A
C2298  C2335   1.517   .     S
C2299  C2306   1.403   .     A
C2299  C2315   1.429   .     A
C2299  C2337   1.535   .     S
C2300  C2317   1.438   .     S
C2300  O2485   1.314   .     A
C2300  O2486   1.286   .     A
C2301  C2339   1.523   .     S
C2301  C2316   1.421   .     A
C2301  C2307   1.387   .     A
C2302  C2318   1.409   .     A
C2302  C2341   1.531   .     S
C2302  C2313   1.386   .     A
C2303  C2317   1.399   .     A
C2303  C2314   1.391   .     A
C2303  C2343   1.519   .     S
C2304  C2317   1.420   .     A
C2304  C2346   1.523   .     S
C2304  C2310   1.389   .     A
C2305  C2318   1.417   .     A
C2305  C2312   1.405   .     A
C2305  C2348   1.518   .     S
C2306  C2350   1.534   .     S
C2306  C2320   1.426   .     A
C2307  C2319   1.403   .     A
C2307  C2352   1.510   .     S
C2308  C2354   1.526   .     S
C2308  C2319   1.420   .     A
C2309  C2320   1.395   .     A
C2309  C2357   1.519   .     S
C2310  C2323   1.415   .     A
C2310  C2359   1.526   .     S
C2311  C2316   1.457   .     S
C2311  O2488   1.303   .     A
C2311  O2491   1.306   .     A
C2312  C2361   1.524   .     S
C2312  C2321   1.417   .     A
C2313  C2363   1.527   .     S
C2313  C2321   1.419   .     A
C2314  C2365   1.519   .     S
C2314  C2323   1.427   .     A
C2315  C2322   1.466   .     S
C2319  C2366   1.452   .     S
C2320  C2355   1.442   .     S
C2321  C2344   1.438   .     S
C2322  O2489   1.313   .     A
C2322  O2490   1.302   .     A
C2323  C2333   1.456   .     S
C2324  H2396   1.104   .     S
C2324  C2368   1.497   .     S
C2324  H2161   1.074   1_655 S
C2324  H2177   1.104   1_655 S
C2325  H2418   1.106   .     S
C2325  H2407   1.086   .     S
C2326  H2451   1.109   .     S
C2326  C2083   1.515   1_655 S
C2326  H2232   1.084   1_655 S
C2326  H2254   1.107   1_655 S
C2327  H2376   1.108   .     S
C2327  H2370   1.086   .     S
C2327  H2169   1.104   1_655 S
C2328  H2378   1.072   .     S
C2328  H2380   1.110   .     S
C2328  H2379   1.110   .     S
C2329  H2382   1.108   .     S
C2329  H2381   1.076   .     S
C2329  H2383   1.106   .     S
C2330  H2384   1.086   .     S
C2330  H2386   1.099   .     S
C2330  H2387   1.105   .     S
C2331  H2389   1.106   .     S
C2331  H2388   1.078   .     S
C2331  H2390   1.105   .     S
C2332  C2334   1.530   .     S
C2332  H2395   1.111   .     S
C2332  H2394   1.105   .     S
C2333  O2480   1.304   .     A
C2333  O2492   1.304   .     A
C2334  H2393   1.111   .     S
C2334  H2392   1.107   .     S
C2334  H2391   1.110   .     S
C2335  H2400   1.099   .     S
C2335  C2336   1.533   .     S
C2335  H2401   1.111   .     S
C2336  H2398   1.111   .     S
C2336  H2397   1.103   .     S
C2336  H2399   1.110   .     S
C2337  H2405   1.091   .     S
C2337  H2406   1.103   .     S
C2337  C2338   1.525   .     S
C2338  H2403   1.110   .     S
C2338  H2402   1.100   .     S
C2338  H2404   1.112   .     S
C2339  H2411   1.107   .     S
C2339  H2412   1.111   .     S
C2339  C2340   1.535   .     S
C2340  H2410   1.110   .     S
C2340  H2409   1.108   .     S
C2340  H2408   1.108   .     S
C2341  C2342   1.526   .     S
C2341  H2416   1.102   .     S
C2341  H2417   1.109   .     S
C2342  H2414   1.109   .     S
C2342  H2413   1.108   .     S
C2342  H2415   1.110   .     S
C2343  C2345   1.527   .     S
C2343  H2422   1.104   .     S
C2343  H2423   1.106   .     S
C2344  O2479   1.289   .     A
C2344  O2478   1.310   .     A
C2345  H2420   1.111   .     S
C2345  H2421   1.111   .     S
C2345  H2419   1.109   .     S
C2346  H2427   1.102   .     S
C2346  H2428   1.111   .     S
C2346  C2347   1.519   .     S
C2347  H2425   1.109   .     S
C2347  H2424   1.111   .     S
C2347  H2426   1.106   .     S
C2348  H2434   1.105   .     S
C2348  C2349   1.524   .     S
C2348  H2433   1.096   .     S
C2349  H2431   1.110   .     S
C2349  H2432   1.106   .     S
C2349  H2430   1.111   .     S
C2350  C2351   1.524   .     S
C2350  H2439   1.106   .     S
C2350  H2438   1.105   .     S
C2351  H2436   1.104   .     S
C2351  H2437   1.111   .     S
C2351  H2435   1.111   .     S
C2352  H2445   1.105   .     S
C2352  H2444   1.107   .     S
C2352  C2353   1.522   .     S
C2353  H2441   1.107   .     S
C2353  H2442   1.110   .     S
C2353  H2443   1.111   .     S
C2354  C2356   1.527   .     S
C2354  H2450   1.110   .     S
C2354  H2449   1.105   .     S
C2355  O2484   1.318   .     A
C2355  O2481   1.283   .     A
C2356  H2447   1.108   .     S
C2356  H2446   1.111   .     S
C2356  H2448   1.110   .     S
C2357  H2455   1.104   .     S
C2357  C2358   1.523   .     S
C2357  H2456   1.105   .     S
C2358  H2453   1.110   .     S
C2358  H2452   1.109   .     S
C2358  H2454   1.111   .     S
C2359  H2461   1.111   .     S
C2359  C2360   1.527   .     S
C2359  H2460   1.102   .     S
C2360  H2458   1.108   .     S
C2360  H2459   1.110   .     S
C2360  H2457   1.109   .     S
C2361  C2362   1.527   .     S
C2361  H2466   1.102   .     S
C2361  H2467   1.107   .     S
C2362  H2464   1.107   .     S
C2362  H2465   1.110   .     S
C2362  H2463   1.102   .     S
C2363  H2471   1.105   .     S
C2363  H2472   1.112   .     S
C2363  C2364   1.522   .     S
C2364  H2468   1.111   .     S
C2364  H2469   1.103   .     S
C2365  C2367   1.529   .     S
C2365  H2374   1.101   .     S
C2365  H2375   1.108   .     S
C2366  O2482   1.314   .     A
C2366  O2483   1.293   .     A
C2367  H2372   1.111   .     S
C2367  H2371   1.107   .     S
C2367  H2373   1.110   .     S
C2368  N2266   1.376   1_655 S
H2429  C2117   1.103   1_655 S
H2470  C1948   1.111   1_565 S
N2473  Zn2493  2.045   .     S
N2474  Zn2494  2.045   .     S
N2475  Zn2495  2.045   .     S
N2476  Zn2496  2.045   .     S
O2477  Zn2493  2.002   .     S
O2478  Zn2496  2.002   .     S
O2479  Zn2495  1.998   .     S
O2480  Zn2080  1.998   1_565 S
O2481  Zn2080  2.026   1_565 S
O2482  Zn2495  2.026   .     S
O2483  Zn2496  2.031   .     S
O2484  Zn2079  2.031   1_565 S
O2485  Zn2286  2.002   1_655 S
O2486  Zn2285  1.998   1_655 S
O2487  Zn2494  1.998   .     S
O2488  Zn2286  2.026   1_655 S
O2489  Zn2493  2.026   .     S
O2490  Zn2494  2.031   .     S
O2491  Zn2285  2.031   1_655 S
O2492  Zn2079  2.002   1_565 S
