data_str_m3_o10_o16_pcu_sym.110
_audit_creation_date              2020-01-03
_audit_creation_method            'Materials Studio'
_symmetry_space_group_name_H-M    'P1'
_symmetry_Int_Tables_number       1
_symmetry_cell_setting            triclinic
loop_
_symmetry_equiv_pos_as_xyz
  x,y,z
_cell_length_a                    23.5338
_cell_length_b                    25.8314
_cell_length_c                    25.1847
_cell_angle_alpha                 92.1614
_cell_angle_beta                  106.1386
_cell_angle_gamma                 93.0996
loop_
_atom_site_label
_atom_site_type_symbol
_atom_site_fract_x
_atom_site_fract_y
_atom_site_fract_z
_atom_site_U_iso_or_equiv
_atom_site_adp_type
_atom_site_occupancy
C1     C     0.01328   0.26435   0.24556   0.00000  Uiso   1.00
C2     C     0.06609   0.21912   0.40029   0.00000  Uiso   1.00
C3     C     0.01695   0.31741   0.23495   0.00000  Uiso   1.00
C4     C     0.03865   0.18795   0.34779   0.00000  Uiso   1.00
C5     C     0.31166   0.01409   0.24977   0.00000  Uiso   1.00
C6     C     0.31826   0.06861   0.24941   0.00000  Uiso   1.00
C7     C     0.29638   0.16716   0.14520   0.00000  Uiso   1.00
C8     C     0.29766   0.17749   0.49561   0.00000  Uiso   1.00
C9     C     0.27888   0.17798   0.08590   0.00000  Uiso   1.00
C10    C     0.03463   0.25118   0.42649   0.00000  Uiso   1.00
C11    C     0.06236   0.27300   0.47992   0.00000  Uiso   1.00
C12    C     0.14961   0.22642   0.48173   0.00000  Uiso   1.00
C13    C     0.11902   0.25848   0.00874   0.00000  Uiso   1.00
C14    C     0.05305   0.17599   0.07662   0.00000  Uiso   1.00
C15    C     0.07702   0.22761   0.11032   0.00000  Uiso   1.00
C16    C     0.16249   0.26398   0.35672   0.00000  Uiso   1.00
C17    C     0.05920   0.00094   0.20529   0.00000  Uiso   1.00
C18    C     0.12708   0.21881   0.42462   0.00000  Uiso   1.00
C19    C     0.20499   0.20694   0.00654   0.00000  Uiso   1.00
C20    C     0.24134   0.19394   0.47231   0.00000  Uiso   1.00
C21    C     0.22317   0.20382   0.41604   0.00000  Uiso   1.00
C22    C     0.16771   0.22213   0.39382   0.00000  Uiso   1.00
C23    C     0.22295   0.19628   0.06255   0.00000  Uiso   1.00
C24    C     0.31935   0.17488   0.05288   0.00000  Uiso   1.00
H25    H     0.27747   0.33201   0.26751   0.00000  Uiso   1.00
H26    H     0.06210   0.26104   0.08527   0.00000  Uiso   1.00
H27    H     0.06081   0.23424   0.14663   0.00000  Uiso   1.00
H28    H     0.12592   0.22947   0.12579   0.00000  Uiso   1.00
H29    H     0.06706   0.14173   0.10101   0.00000  Uiso   1.00
H30    H     0.07486   0.17259   0.04298   0.00000  Uiso   1.00
H31    H     0.15689   0.12143   0.21470   0.00000  Uiso   1.00
H32    H     0.17594   0.21419   0.27974   0.00000  Uiso   1.00
H33    H     0.25261   0.20042   0.39050   0.00000  Uiso   1.00
H34    H     0.32623   0.17016   0.46949   0.00000  Uiso   1.00
H35    H     0.19336   0.20159   0.08782   0.00000  Uiso   1.00
H36    H     0.32375   0.26101   0.40532   0.00000  Uiso   1.00
H37    H     0.14045   0.27480   0.05005   0.00000  Uiso   1.00
H38    H     0.03922   0.29951   0.49942   0.00000  Uiso   1.00
N39    N     0.14493   0.15223   0.23543   0.00000  Uiso   1.00
N40    N     0.18840   0.18110   0.26458   0.00000  Uiso   1.00
N41    N     0.15856   0.29831   0.32794   0.00000  Uiso   1.00
N42    N     0.09278   0.01419   0.18174   0.00000  Uiso   1.00
O43    O     0.29769   0.24629   0.25358   0.00000  Uiso   1.00
O44    O     0.05742   0.23704   0.24424   0.00000  Uiso   1.00
O45    O     0.31490   0.17358   0.33380   0.00000  Uiso   1.00
O46    O     0.07463   0.16433   0.32446   0.00000  Uiso   1.00
O47    O     0.27592   0.09629   0.25577   0.00000  Uiso   1.00
O48    O     0.03565   0.08704   0.24643   0.00000  Uiso   1.00
O49    O     0.25870   0.16901   0.17554   0.00000  Uiso   1.00
O50    O     0.01843   0.15976   0.16620   0.00000  Uiso   1.00
Zn51   Zn    0.27119   0.17284   0.25624   0.00000  Uiso   1.00
Zn52   Zn    0.06214   0.16049   0.24377   0.00000  Uiso   1.00
C53    C     0.34662   0.26435   0.24556   0.00000  Uiso   1.00
C54    C     0.39942   0.21912   0.40029   0.00000  Uiso   1.00
C55    C     0.35028   0.31741   0.23495   0.00000  Uiso   1.00
C56    C     0.37198   0.18795   0.34779   0.00000  Uiso   1.00
C57    C     0.64499   0.01409   0.24977   0.00000  Uiso   1.00
C58    C     0.65159   0.06861   0.24941   0.00000  Uiso   1.00
C59    C     0.62972   0.16716   0.14520   0.00000  Uiso   1.00
C60    C     0.63099   0.17749   0.49561   0.00000  Uiso   1.00
C61    C     0.61222   0.17798   0.08590   0.00000  Uiso   1.00
C62    C     0.36797   0.25118   0.42649   0.00000  Uiso   1.00
C63    C     0.39570   0.27300   0.47992   0.00000  Uiso   1.00
C64    C     0.48295   0.22642   0.48173   0.00000  Uiso   1.00
C65    C     0.45236   0.25848   0.00874   0.00000  Uiso   1.00
C66    C     0.38638   0.17599   0.07662   0.00000  Uiso   1.00
C67    C     0.41035   0.22761   0.11032   0.00000  Uiso   1.00
C68    C     0.49582   0.26398   0.35672   0.00000  Uiso   1.00
C69    C     0.39254   0.00094   0.20529   0.00000  Uiso   1.00
C70    C     0.46041   0.21881   0.42462   0.00000  Uiso   1.00
C71    C     0.53832   0.20694   0.00654   0.00000  Uiso   1.00
C72    C     0.57467   0.19394   0.47231   0.00000  Uiso   1.00
C73    C     0.55651   0.20382   0.41604   0.00000  Uiso   1.00
C74    C     0.50105   0.22213   0.39382   0.00000  Uiso   1.00
C75    C     0.55628   0.19628   0.06255   0.00000  Uiso   1.00
C76    C     0.65268   0.17488   0.05288   0.00000  Uiso   1.00
H77    H     0.61081   0.33201   0.26751   0.00000  Uiso   1.00
H78    H     0.39544   0.26104   0.08527   0.00000  Uiso   1.00
H79    H     0.39415   0.23424   0.14663   0.00000  Uiso   1.00
H80    H     0.45925   0.22947   0.12579   0.00000  Uiso   1.00
H81    H     0.40040   0.14173   0.10101   0.00000  Uiso   1.00
H82    H     0.40819   0.17259   0.04298   0.00000  Uiso   1.00
H83    H     0.49023   0.12143   0.21470   0.00000  Uiso   1.00
H84    H     0.50928   0.21419   0.27974   0.00000  Uiso   1.00
H85    H     0.58594   0.20042   0.39050   0.00000  Uiso   1.00
H86    H     0.65956   0.17016   0.46949   0.00000  Uiso   1.00
H87    H     0.52669   0.20159   0.08782   0.00000  Uiso   1.00
H88    H     0.65709   0.26101   0.40532   0.00000  Uiso   1.00
H89    H     0.47378   0.27480   0.05005   0.00000  Uiso   1.00
H90    H     0.37255   0.29951   0.49942   0.00000  Uiso   1.00
N91    N     0.47827   0.15223   0.23543   0.00000  Uiso   1.00
N92    N     0.52173   0.18110   0.26458   0.00000  Uiso   1.00
N93    N     0.49190   0.29831   0.32794   0.00000  Uiso   1.00
N94    N     0.42612   0.01419   0.18174   0.00000  Uiso   1.00
O95    O     0.63102   0.24629   0.25358   0.00000  Uiso   1.00
O96    O     0.39075   0.23704   0.24424   0.00000  Uiso   1.00
O97    O     0.64823   0.17358   0.33380   0.00000  Uiso   1.00
O98    O     0.40796   0.16433   0.32446   0.00000  Uiso   1.00
O99    O     0.60925   0.09629   0.25577   0.00000  Uiso   1.00
O100   O     0.36898   0.08704   0.24643   0.00000  Uiso   1.00
O101   O     0.59204   0.16901   0.17554   0.00000  Uiso   1.00
O102   O     0.35177   0.15976   0.16620   0.00000  Uiso   1.00
Zn103  Zn    0.60453   0.17284   0.25624   0.00000  Uiso   1.00
Zn104  Zn    0.39547   0.16049   0.24377   0.00000  Uiso   1.00
C105   C     0.67995   0.26435   0.24556   0.00000  Uiso   1.00
C106   C     0.73275   0.21912   0.40029   0.00000  Uiso   1.00
C107   C     0.68361   0.31741   0.23495   0.00000  Uiso   1.00
C108   C     0.70531   0.18795   0.34779   0.00000  Uiso   1.00
C109   C     0.97832   0.01409   0.24977   0.00000  Uiso   1.00
C110   C     0.98493   0.06861   0.24941   0.00000  Uiso   1.00
C111   C     0.96305   0.16716   0.14520   0.00000  Uiso   1.00
C112   C     0.96432   0.17749   0.49561   0.00000  Uiso   1.00
C113   C     0.94555   0.17798   0.08590   0.00000  Uiso   1.00
C114   C     0.70130   0.25118   0.42649   0.00000  Uiso   1.00
C115   C     0.72903   0.27300   0.47992   0.00000  Uiso   1.00
C116   C     0.81628   0.22642   0.48173   0.00000  Uiso   1.00
C117   C     0.78569   0.25848   0.00874   0.00000  Uiso   1.00
C118   C     0.71972   0.17599   0.07662   0.00000  Uiso   1.00
C119   C     0.74368   0.22761   0.11032   0.00000  Uiso   1.00
C120   C     0.82915   0.26398   0.35672   0.00000  Uiso   1.00
C121   C     0.72587   0.00094   0.20529   0.00000  Uiso   1.00
C122   C     0.79375   0.21881   0.42462   0.00000  Uiso   1.00
C123   C     0.87165   0.20694   0.00654   0.00000  Uiso   1.00
C124   C     0.90801   0.19394   0.47231   0.00000  Uiso   1.00
C125   C     0.88984   0.20382   0.41604   0.00000  Uiso   1.00
C126   C     0.83438   0.22213   0.39382   0.00000  Uiso   1.00
C127   C     0.88961   0.19628   0.06255   0.00000  Uiso   1.00
C128   C     0.98602   0.17488   0.05288   0.00000  Uiso   1.00
H129   H     0.94414   0.33201   0.26751   0.00000  Uiso   1.00
H130   H     0.72877   0.26104   0.08527   0.00000  Uiso   1.00
H131   H     0.72748   0.23424   0.14663   0.00000  Uiso   1.00
H132   H     0.79258   0.22947   0.12579   0.00000  Uiso   1.00
H133   H     0.73373   0.14173   0.10101   0.00000  Uiso   1.00
H134   H     0.74152   0.17259   0.04298   0.00000  Uiso   1.00
H135   H     0.82356   0.12143   0.21470   0.00000  Uiso   1.00
H136   H     0.84261   0.21419   0.27974   0.00000  Uiso   1.00
H137   H     0.91927   0.20042   0.39050   0.00000  Uiso   1.00
H138   H     0.99290   0.17016   0.46949   0.00000  Uiso   1.00
H139   H     0.86003   0.20159   0.08782   0.00000  Uiso   1.00
H140   H     0.99042   0.26101   0.40532   0.00000  Uiso   1.00
H141   H     0.80711   0.27480   0.05005   0.00000  Uiso   1.00
H142   H     0.70589   0.29951   0.49942   0.00000  Uiso   1.00
N143   N     0.81160   0.15223   0.23543   0.00000  Uiso   1.00
N144   N     0.85507   0.18110   0.26458   0.00000  Uiso   1.00
N145   N     0.82523   0.29831   0.32794   0.00000  Uiso   1.00
N146   N     0.75945   0.01419   0.18174   0.00000  Uiso   1.00
O147   O     0.96435   0.24629   0.25358   0.00000  Uiso   1.00
O148   O     0.72408   0.23704   0.24424   0.00000  Uiso   1.00
O149   O     0.98157   0.17358   0.33380   0.00000  Uiso   1.00
O150   O     0.74130   0.16433   0.32446   0.00000  Uiso   1.00
O151   O     0.94258   0.09629   0.25577   0.00000  Uiso   1.00
O152   O     0.70231   0.08704   0.24643   0.00000  Uiso   1.00
O153   O     0.92537   0.16901   0.17554   0.00000  Uiso   1.00
O154   O     0.68510   0.15976   0.16620   0.00000  Uiso   1.00
Zn155  Zn    0.93786   0.17284   0.25624   0.00000  Uiso   1.00
Zn156  Zn    0.72881   0.16049   0.24377   0.00000  Uiso   1.00
C157   C     0.01328   0.59768   0.24556   0.00000  Uiso   1.00
C158   C     0.06609   0.55245   0.40029   0.00000  Uiso   1.00
C159   C     0.01695   0.65074   0.23495   0.00000  Uiso   1.00
C160   C     0.03865   0.52128   0.34779   0.00000  Uiso   1.00
C161   C     0.31166   0.34742   0.24977   0.00000  Uiso   1.00
C162   C     0.31826   0.40194   0.24941   0.00000  Uiso   1.00
C163   C     0.29638   0.50049   0.14520   0.00000  Uiso   1.00
C164   C     0.29766   0.51082   0.49561   0.00000  Uiso   1.00
C165   C     0.27888   0.51132   0.08590   0.00000  Uiso   1.00
C166   C     0.03463   0.58451   0.42649   0.00000  Uiso   1.00
C167   C     0.06236   0.60633   0.47992   0.00000  Uiso   1.00
C168   C     0.14961   0.55976   0.48173   0.00000  Uiso   1.00
C169   C     0.11902   0.59181   0.00874   0.00000  Uiso   1.00
C170   C     0.05305   0.50932   0.07662   0.00000  Uiso   1.00
C171   C     0.07702   0.56094   0.11032   0.00000  Uiso   1.00
C172   C     0.16249   0.59732   0.35672   0.00000  Uiso   1.00
C173   C     0.05920   0.33427   0.20529   0.00000  Uiso   1.00
C174   C     0.12708   0.55214   0.42462   0.00000  Uiso   1.00
C175   C     0.20499   0.54027   0.00654   0.00000  Uiso   1.00
C176   C     0.24134   0.52727   0.47231   0.00000  Uiso   1.00
C177   C     0.22317   0.53716   0.41604   0.00000  Uiso   1.00
C178   C     0.16771   0.55547   0.39382   0.00000  Uiso   1.00
C179   C     0.22295   0.52962   0.06255   0.00000  Uiso   1.00
C180   C     0.31935   0.50822   0.05288   0.00000  Uiso   1.00
H181   H     0.27747   0.66535   0.26751   0.00000  Uiso   1.00
H182   H     0.06210   0.59437   0.08527   0.00000  Uiso   1.00
H183   H     0.06081   0.56757   0.14663   0.00000  Uiso   1.00
H184   H     0.12592   0.56280   0.12579   0.00000  Uiso   1.00
H185   H     0.06706   0.47507   0.10101   0.00000  Uiso   1.00
H186   H     0.07486   0.50592   0.04298   0.00000  Uiso   1.00
H187   H     0.15689   0.45476   0.21470   0.00000  Uiso   1.00
H188   H     0.17594   0.54752   0.27974   0.00000  Uiso   1.00
H189   H     0.25261   0.53376   0.39050   0.00000  Uiso   1.00
H190   H     0.32623   0.50349   0.46949   0.00000  Uiso   1.00
H191   H     0.19336   0.53492   0.08782   0.00000  Uiso   1.00
H192   H     0.32375   0.59434   0.40532   0.00000  Uiso   1.00
H193   H     0.14045   0.60813   0.05005   0.00000  Uiso   1.00
H194   H     0.03922   0.63284   0.49942   0.00000  Uiso   1.00
N195   N     0.14493   0.48556   0.23543   0.00000  Uiso   1.00
N196   N     0.18840   0.51444   0.26458   0.00000  Uiso   1.00
N197   N     0.15856   0.63165   0.32794   0.00000  Uiso   1.00
N198   N     0.09278   0.34753   0.18174   0.00000  Uiso   1.00
O199   O     0.29769   0.57963   0.25358   0.00000  Uiso   1.00
O200   O     0.05742   0.57038   0.24424   0.00000  Uiso   1.00
O201   O     0.31490   0.50691   0.33380   0.00000  Uiso   1.00
O202   O     0.07463   0.49766   0.32446   0.00000  Uiso   1.00
O203   O     0.27592   0.42962   0.25577   0.00000  Uiso   1.00
O204   O     0.03565   0.42037   0.24643   0.00000  Uiso   1.00
O205   O     0.25870   0.50234   0.17554   0.00000  Uiso   1.00
O206   O     0.01843   0.49309   0.16620   0.00000  Uiso   1.00
Zn207  Zn    0.27119   0.50618   0.25624   0.00000  Uiso   1.00
Zn208  Zn    0.06214   0.49382   0.24377   0.00000  Uiso   1.00
C209   C     0.34662   0.59768   0.24556   0.00000  Uiso   1.00
C210   C     0.39942   0.55245   0.40029   0.00000  Uiso   1.00
C211   C     0.35028   0.65074   0.23495   0.00000  Uiso   1.00
C212   C     0.37198   0.52128   0.34779   0.00000  Uiso   1.00
C213   C     0.64499   0.34742   0.24977   0.00000  Uiso   1.00
C214   C     0.65159   0.40194   0.24941   0.00000  Uiso   1.00
C215   C     0.62972   0.50049   0.14520   0.00000  Uiso   1.00
C216   C     0.63099   0.51082   0.49561   0.00000  Uiso   1.00
C217   C     0.61222   0.51132   0.08590   0.00000  Uiso   1.00
C218   C     0.36797   0.58451   0.42649   0.00000  Uiso   1.00
C219   C     0.39570   0.60633   0.47992   0.00000  Uiso   1.00
C220   C     0.48295   0.55976   0.48173   0.00000  Uiso   1.00
C221   C     0.45236   0.59181   0.00874   0.00000  Uiso   1.00
C222   C     0.38638   0.50932   0.07662   0.00000  Uiso   1.00
C223   C     0.41035   0.56094   0.11032   0.00000  Uiso   1.00
C224   C     0.49582   0.59732   0.35672   0.00000  Uiso   1.00
C225   C     0.39254   0.33427   0.20529   0.00000  Uiso   1.00
C226   C     0.46041   0.55214   0.42462   0.00000  Uiso   1.00
C227   C     0.53832   0.54027   0.00654   0.00000  Uiso   1.00
C228   C     0.57467   0.52727   0.47231   0.00000  Uiso   1.00
C229   C     0.55651   0.53716   0.41604   0.00000  Uiso   1.00
C230   C     0.50105   0.55547   0.39382   0.00000  Uiso   1.00
C231   C     0.55628   0.52962   0.06255   0.00000  Uiso   1.00
C232   C     0.65268   0.50822   0.05288   0.00000  Uiso   1.00
H233   H     0.61081   0.66535   0.26751   0.00000  Uiso   1.00
H234   H     0.39544   0.59437   0.08527   0.00000  Uiso   1.00
H235   H     0.39415   0.56757   0.14663   0.00000  Uiso   1.00
H236   H     0.45925   0.56280   0.12579   0.00000  Uiso   1.00
H237   H     0.40040   0.47507   0.10101   0.00000  Uiso   1.00
H238   H     0.40819   0.50592   0.04298   0.00000  Uiso   1.00
H239   H     0.49023   0.45476   0.21470   0.00000  Uiso   1.00
H240   H     0.50928   0.54752   0.27974   0.00000  Uiso   1.00
H241   H     0.58594   0.53376   0.39050   0.00000  Uiso   1.00
H242   H     0.65956   0.50349   0.46949   0.00000  Uiso   1.00
H243   H     0.52669   0.53492   0.08782   0.00000  Uiso   1.00
H244   H     0.65709   0.59434   0.40532   0.00000  Uiso   1.00
H245   H     0.47378   0.60813   0.05005   0.00000  Uiso   1.00
H246   H     0.37255   0.63284   0.49942   0.00000  Uiso   1.00
N247   N     0.47827   0.48556   0.23543   0.00000  Uiso   1.00
N248   N     0.52173   0.51444   0.26458   0.00000  Uiso   1.00
N249   N     0.49190   0.63165   0.32794   0.00000  Uiso   1.00
N250   N     0.42612   0.34753   0.18174   0.00000  Uiso   1.00
O251   O     0.63102   0.57963   0.25358   0.00000  Uiso   1.00
O252   O     0.39075   0.57038   0.24424   0.00000  Uiso   1.00
O253   O     0.64823   0.50691   0.33380   0.00000  Uiso   1.00
O254   O     0.40796   0.49766   0.32446   0.00000  Uiso   1.00
O255   O     0.60925   0.42962   0.25577   0.00000  Uiso   1.00
O256   O     0.36898   0.42037   0.24643   0.00000  Uiso   1.00
O257   O     0.59204   0.50234   0.17554   0.00000  Uiso   1.00
O258   O     0.35177   0.49309   0.16620   0.00000  Uiso   1.00
Zn259  Zn    0.60453   0.50618   0.25624   0.00000  Uiso   1.00
Zn260  Zn    0.39547   0.49382   0.24377   0.00000  Uiso   1.00
C261   C     0.67995   0.59768   0.24556   0.00000  Uiso   1.00
C262   C     0.73275   0.55245   0.40029   0.00000  Uiso   1.00
C263   C     0.68361   0.65074   0.23495   0.00000  Uiso   1.00
C264   C     0.70531   0.52128   0.34779   0.00000  Uiso   1.00
C265   C     0.97832   0.34742   0.24977   0.00000  Uiso   1.00
C266   C     0.98493   0.40194   0.24941   0.00000  Uiso   1.00
C267   C     0.96305   0.50049   0.14520   0.00000  Uiso   1.00
C268   C     0.96432   0.51082   0.49561   0.00000  Uiso   1.00
C269   C     0.94555   0.51132   0.08590   0.00000  Uiso   1.00
C270   C     0.70130   0.58451   0.42649   0.00000  Uiso   1.00
C271   C     0.72903   0.60633   0.47992   0.00000  Uiso   1.00
C272   C     0.81628   0.55976   0.48173   0.00000  Uiso   1.00
C273   C     0.78569   0.59181   0.00874   0.00000  Uiso   1.00
C274   C     0.71972   0.50932   0.07662   0.00000  Uiso   1.00
C275   C     0.74368   0.56094   0.11032   0.00000  Uiso   1.00
C276   C     0.82915   0.59732   0.35672   0.00000  Uiso   1.00
C277   C     0.72587   0.33427   0.20529   0.00000  Uiso   1.00
C278   C     0.79375   0.55214   0.42462   0.00000  Uiso   1.00
C279   C     0.87165   0.54027   0.00654   0.00000  Uiso   1.00
C280   C     0.90801   0.52727   0.47231   0.00000  Uiso   1.00
C281   C     0.88984   0.53716   0.41604   0.00000  Uiso   1.00
C282   C     0.83438   0.55547   0.39382   0.00000  Uiso   1.00
C283   C     0.88961   0.52962   0.06255   0.00000  Uiso   1.00
C284   C     0.98602   0.50822   0.05288   0.00000  Uiso   1.00
H285   H     0.94414   0.66535   0.26751   0.00000  Uiso   1.00
H286   H     0.72877   0.59437   0.08527   0.00000  Uiso   1.00
H287   H     0.72748   0.56757   0.14663   0.00000  Uiso   1.00
H288   H     0.79258   0.56280   0.12579   0.00000  Uiso   1.00
H289   H     0.73373   0.47507   0.10101   0.00000  Uiso   1.00
H290   H     0.74152   0.50592   0.04298   0.00000  Uiso   1.00
H291   H     0.82356   0.45476   0.21470   0.00000  Uiso   1.00
H292   H     0.84261   0.54752   0.27974   0.00000  Uiso   1.00
H293   H     0.91927   0.53376   0.39050   0.00000  Uiso   1.00
H294   H     0.99290   0.50349   0.46949   0.00000  Uiso   1.00
H295   H     0.86003   0.53492   0.08782   0.00000  Uiso   1.00
H296   H     0.99042   0.59434   0.40532   0.00000  Uiso   1.00
H297   H     0.80711   0.60813   0.05005   0.00000  Uiso   1.00
H298   H     0.70589   0.63284   0.49942   0.00000  Uiso   1.00
N299   N     0.81160   0.48556   0.23543   0.00000  Uiso   1.00
N300   N     0.85507   0.51444   0.26458   0.00000  Uiso   1.00
N301   N     0.82523   0.63165   0.32794   0.00000  Uiso   1.00
N302   N     0.75945   0.34753   0.18174   0.00000  Uiso   1.00
O303   O     0.96435   0.57963   0.25358   0.00000  Uiso   1.00
O304   O     0.72408   0.57038   0.24424   0.00000  Uiso   1.00
O305   O     0.98157   0.50691   0.33380   0.00000  Uiso   1.00
O306   O     0.74130   0.49766   0.32446   0.00000  Uiso   1.00
O307   O     0.94258   0.42962   0.25577   0.00000  Uiso   1.00
O308   O     0.70231   0.42037   0.24643   0.00000  Uiso   1.00
O309   O     0.92537   0.50234   0.17554   0.00000  Uiso   1.00
O310   O     0.68510   0.49309   0.16620   0.00000  Uiso   1.00
Zn311  Zn    0.93786   0.50618   0.25624   0.00000  Uiso   1.00
Zn312  Zn    0.72881   0.49382   0.24377   0.00000  Uiso   1.00
C313   C     0.01328   0.93102   0.24556   0.00000  Uiso   1.00
C314   C     0.06609   0.88579   0.40029   0.00000  Uiso   1.00
C315   C     0.01695   0.98407   0.23495   0.00000  Uiso   1.00
C316   C     0.03865   0.85462   0.34779   0.00000  Uiso   1.00
C317   C     0.31166   0.68075   0.24977   0.00000  Uiso   1.00
C318   C     0.31826   0.73528   0.24941   0.00000  Uiso   1.00
C319   C     0.29638   0.83383   0.14520   0.00000  Uiso   1.00
C320   C     0.29766   0.84415   0.49561   0.00000  Uiso   1.00
C321   C     0.27888   0.84465   0.08590   0.00000  Uiso   1.00
C322   C     0.03463   0.91784   0.42649   0.00000  Uiso   1.00
C323   C     0.06236   0.93966   0.47992   0.00000  Uiso   1.00
C324   C     0.14961   0.89309   0.48173   0.00000  Uiso   1.00
C325   C     0.11902   0.92515   0.00874   0.00000  Uiso   1.00
C326   C     0.05305   0.84266   0.07662   0.00000  Uiso   1.00
C327   C     0.07702   0.89427   0.11032   0.00000  Uiso   1.00
C328   C     0.16249   0.93065   0.35672   0.00000  Uiso   1.00
C329   C     0.05920   0.66760   0.20529   0.00000  Uiso   1.00
C330   C     0.12708   0.88547   0.42462   0.00000  Uiso   1.00
C331   C     0.20499   0.87360   0.00654   0.00000  Uiso   1.00
C332   C     0.24134   0.86061   0.47231   0.00000  Uiso   1.00
C333   C     0.22317   0.87049   0.41604   0.00000  Uiso   1.00
C334   C     0.16771   0.88880   0.39382   0.00000  Uiso   1.00
C335   C     0.22295   0.86295   0.06255   0.00000  Uiso   1.00
C336   C     0.31935   0.84155   0.05288   0.00000  Uiso   1.00
H337   H     0.27747   0.99868   0.26751   0.00000  Uiso   1.00
H338   H     0.06210   0.92771   0.08527   0.00000  Uiso   1.00
H339   H     0.06081   0.90091   0.14663   0.00000  Uiso   1.00
H340   H     0.12592   0.89614   0.12579   0.00000  Uiso   1.00
H341   H     0.06706   0.80840   0.10101   0.00000  Uiso   1.00
H342   H     0.07486   0.83925   0.04298   0.00000  Uiso   1.00
H343   H     0.15689   0.78810   0.21470   0.00000  Uiso   1.00
H344   H     0.17594   0.88086   0.27974   0.00000  Uiso   1.00
H345   H     0.25261   0.86709   0.39050   0.00000  Uiso   1.00
H346   H     0.32623   0.83682   0.46949   0.00000  Uiso   1.00
H347   H     0.19336   0.86826   0.08782   0.00000  Uiso   1.00
H348   H     0.32375   0.92767   0.40532   0.00000  Uiso   1.00
H349   H     0.14045   0.94147   0.05005   0.00000  Uiso   1.00
H350   H     0.03922   0.96617   0.49942   0.00000  Uiso   1.00
N351   N     0.14493   0.81890   0.23543   0.00000  Uiso   1.00
N352   N     0.18840   0.84777   0.26458   0.00000  Uiso   1.00
N353   N     0.15856   0.96498   0.32794   0.00000  Uiso   1.00
N354   N     0.09278   0.68086   0.18174   0.00000  Uiso   1.00
O355   O     0.29769   0.91296   0.25358   0.00000  Uiso   1.00
O356   O     0.05742   0.90371   0.24424   0.00000  Uiso   1.00
O357   O     0.31490   0.84024   0.33380   0.00000  Uiso   1.00
O358   O     0.07463   0.83099   0.32446   0.00000  Uiso   1.00
O359   O     0.27592   0.76296   0.25577   0.00000  Uiso   1.00
O360   O     0.03565   0.75371   0.24643   0.00000  Uiso   1.00
O361   O     0.25870   0.83567   0.17554   0.00000  Uiso   1.00
O362   O     0.01843   0.82642   0.16620   0.00000  Uiso   1.00
Zn363  Zn    0.27119   0.83951   0.25624   0.00000  Uiso   1.00
Zn364  Zn    0.06214   0.82716   0.24377   0.00000  Uiso   1.00
C365   C     0.34662   0.93102   0.24556   0.00000  Uiso   1.00
C366   C     0.39942   0.88579   0.40029   0.00000  Uiso   1.00
C367   C     0.35028   0.98407   0.23495   0.00000  Uiso   1.00
C368   C     0.37198   0.85462   0.34779   0.00000  Uiso   1.00
C369   C     0.64499   0.68075   0.24977   0.00000  Uiso   1.00
C370   C     0.65159   0.73528   0.24941   0.00000  Uiso   1.00
C371   C     0.62972   0.83383   0.14520   0.00000  Uiso   1.00
C372   C     0.63099   0.84415   0.49561   0.00000  Uiso   1.00
C373   C     0.61222   0.84465   0.08590   0.00000  Uiso   1.00
C374   C     0.36797   0.91784   0.42649   0.00000  Uiso   1.00
C375   C     0.39570   0.93966   0.47992   0.00000  Uiso   1.00
C376   C     0.48295   0.89309   0.48173   0.00000  Uiso   1.00
C377   C     0.45236   0.92515   0.00874   0.00000  Uiso   1.00
C378   C     0.38638   0.84266   0.07662   0.00000  Uiso   1.00
C379   C     0.41035   0.89427   0.11032   0.00000  Uiso   1.00
C380   C     0.49582   0.93065   0.35672   0.00000  Uiso   1.00
C381   C     0.39254   0.66760   0.20529   0.00000  Uiso   1.00
C382   C     0.46041   0.88547   0.42462   0.00000  Uiso   1.00
C383   C     0.53832   0.87360   0.00654   0.00000  Uiso   1.00
C384   C     0.57467   0.86061   0.47231   0.00000  Uiso   1.00
C385   C     0.55651   0.87049   0.41604   0.00000  Uiso   1.00
C386   C     0.50105   0.88880   0.39382   0.00000  Uiso   1.00
C387   C     0.55628   0.86295   0.06255   0.00000  Uiso   1.00
C388   C     0.65268   0.84155   0.05288   0.00000  Uiso   1.00
H389   H     0.61081   0.99868   0.26751   0.00000  Uiso   1.00
H390   H     0.39544   0.92771   0.08527   0.00000  Uiso   1.00
H391   H     0.39415   0.90091   0.14663   0.00000  Uiso   1.00
H392   H     0.45925   0.89614   0.12579   0.00000  Uiso   1.00
H393   H     0.40040   0.80840   0.10101   0.00000  Uiso   1.00
H394   H     0.40819   0.83925   0.04298   0.00000  Uiso   1.00
H395   H     0.49023   0.78810   0.21470   0.00000  Uiso   1.00
H396   H     0.50928   0.88086   0.27974   0.00000  Uiso   1.00
H397   H     0.58594   0.86709   0.39050   0.00000  Uiso   1.00
H398   H     0.65956   0.83682   0.46949   0.00000  Uiso   1.00
H399   H     0.52669   0.86826   0.08782   0.00000  Uiso   1.00
H400   H     0.65709   0.92767   0.40532   0.00000  Uiso   1.00
H401   H     0.47378   0.94147   0.05005   0.00000  Uiso   1.00
H402   H     0.37255   0.96617   0.49942   0.00000  Uiso   1.00
N403   N     0.47827   0.81890   0.23543   0.00000  Uiso   1.00
N404   N     0.52173   0.84777   0.26458   0.00000  Uiso   1.00
N405   N     0.49190   0.96498   0.32794   0.00000  Uiso   1.00
N406   N     0.42612   0.68086   0.18174   0.00000  Uiso   1.00
O407   O     0.63102   0.91296   0.25358   0.00000  Uiso   1.00
O408   O     0.39075   0.90371   0.24424   0.00000  Uiso   1.00
O409   O     0.64823   0.84024   0.33380   0.00000  Uiso   1.00
O410   O     0.40796   0.83099   0.32446   0.00000  Uiso   1.00
O411   O     0.60925   0.76296   0.25577   0.00000  Uiso   1.00
O412   O     0.36898   0.75371   0.24643   0.00000  Uiso   1.00
O413   O     0.59204   0.83567   0.17554   0.00000  Uiso   1.00
O414   O     0.35177   0.82642   0.16620   0.00000  Uiso   1.00
Zn415  Zn    0.60453   0.83951   0.25624   0.00000  Uiso   1.00
Zn416  Zn    0.39547   0.82716   0.24377   0.00000  Uiso   1.00
C417   C     0.67995   0.93102   0.24556   0.00000  Uiso   1.00
C418   C     0.73275   0.88579   0.40029   0.00000  Uiso   1.00
C419   C     0.68361   0.98407   0.23495   0.00000  Uiso   1.00
C420   C     0.70531   0.85462   0.34779   0.00000  Uiso   1.00
C421   C     0.97832   0.68075   0.24977   0.00000  Uiso   1.00
C422   C     0.98493   0.73528   0.24941   0.00000  Uiso   1.00
C423   C     0.96305   0.83383   0.14520   0.00000  Uiso   1.00
C424   C     0.96432   0.84415   0.49561   0.00000  Uiso   1.00
C425   C     0.94555   0.84465   0.08590   0.00000  Uiso   1.00
C426   C     0.70130   0.91784   0.42649   0.00000  Uiso   1.00
C427   C     0.72903   0.93966   0.47992   0.00000  Uiso   1.00
C428   C     0.81628   0.89309   0.48173   0.00000  Uiso   1.00
C429   C     0.78569   0.92515   0.00874   0.00000  Uiso   1.00
C430   C     0.71972   0.84266   0.07662   0.00000  Uiso   1.00
C431   C     0.74368   0.89427   0.11032   0.00000  Uiso   1.00
C432   C     0.82915   0.93065   0.35672   0.00000  Uiso   1.00
C433   C     0.72587   0.66760   0.20529   0.00000  Uiso   1.00
C434   C     0.79375   0.88547   0.42462   0.00000  Uiso   1.00
C435   C     0.87165   0.87360   0.00654   0.00000  Uiso   1.00
C436   C     0.90801   0.86061   0.47231   0.00000  Uiso   1.00
C437   C     0.88984   0.87049   0.41604   0.00000  Uiso   1.00
C438   C     0.83438   0.88880   0.39382   0.00000  Uiso   1.00
C439   C     0.88961   0.86295   0.06255   0.00000  Uiso   1.00
C440   C     0.98602   0.84155   0.05288   0.00000  Uiso   1.00
H441   H     0.94414   0.99868   0.26751   0.00000  Uiso   1.00
H442   H     0.72877   0.92771   0.08527   0.00000  Uiso   1.00
H443   H     0.72748   0.90091   0.14663   0.00000  Uiso   1.00
H444   H     0.79258   0.89614   0.12579   0.00000  Uiso   1.00
H445   H     0.73373   0.80840   0.10101   0.00000  Uiso   1.00
H446   H     0.74152   0.83925   0.04298   0.00000  Uiso   1.00
H447   H     0.82356   0.78810   0.21470   0.00000  Uiso   1.00
H448   H     0.84261   0.88086   0.27974   0.00000  Uiso   1.00
H449   H     0.91927   0.86709   0.39050   0.00000  Uiso   1.00
H450   H     0.99290   0.83682   0.46949   0.00000  Uiso   1.00
H451   H     0.86003   0.86826   0.08782   0.00000  Uiso   1.00
H452   H     0.99042   0.92767   0.40532   0.00000  Uiso   1.00
H453   H     0.80711   0.94147   0.05005   0.00000  Uiso   1.00
H454   H     0.70589   0.96617   0.49942   0.00000  Uiso   1.00
N455   N     0.81160   0.81890   0.23543   0.00000  Uiso   1.00
N456   N     0.85507   0.84777   0.26458   0.00000  Uiso   1.00
N457   N     0.82523   0.96498   0.32794   0.00000  Uiso   1.00
N458   N     0.75945   0.68086   0.18174   0.00000  Uiso   1.00
O459   O     0.96435   0.91296   0.25358   0.00000  Uiso   1.00
O460   O     0.72408   0.90371   0.24424   0.00000  Uiso   1.00
O461   O     0.98157   0.84024   0.33380   0.00000  Uiso   1.00
O462   O     0.74130   0.83099   0.32446   0.00000  Uiso   1.00
O463   O     0.94258   0.76296   0.25577   0.00000  Uiso   1.00
O464   O     0.70231   0.75371   0.24643   0.00000  Uiso   1.00
O465   O     0.92537   0.83567   0.17554   0.00000  Uiso   1.00
O466   O     0.68510   0.82642   0.16620   0.00000  Uiso   1.00
Zn467  Zn    0.93786   0.83951   0.25624   0.00000  Uiso   1.00
Zn468  Zn    0.72881   0.82716   0.24377   0.00000  Uiso   1.00
C469   C     0.01328   0.26435   0.74556   0.00000  Uiso   1.00
C470   C     0.06609   0.21912   0.90029   0.00000  Uiso   1.00
C471   C     0.01695   0.31741   0.73495   0.00000  Uiso   1.00
C472   C     0.03865   0.18795   0.84779   0.00000  Uiso   1.00
C473   C     0.31166   0.01409   0.74977   0.00000  Uiso   1.00
C474   C     0.31826   0.06861   0.74941   0.00000  Uiso   1.00
C475   C     0.29638   0.16716   0.64520   0.00000  Uiso   1.00
C476   C     0.29766   0.17749   0.99561   0.00000  Uiso   1.00
C477   C     0.27888   0.17798   0.58590   0.00000  Uiso   1.00
C478   C     0.03463   0.25118   0.92649   0.00000  Uiso   1.00
C479   C     0.06236   0.27300   0.97992   0.00000  Uiso   1.00
C480   C     0.14961   0.22642   0.98173   0.00000  Uiso   1.00
C481   C     0.11902   0.25848   0.50874   0.00000  Uiso   1.00
C482   C     0.05305   0.17599   0.57662   0.00000  Uiso   1.00
C483   C     0.07702   0.22761   0.61032   0.00000  Uiso   1.00
C484   C     0.16249   0.26398   0.85672   0.00000  Uiso   1.00
C485   C     0.05920   0.00094   0.70529   0.00000  Uiso   1.00
C486   C     0.12708   0.21881   0.92462   0.00000  Uiso   1.00
C487   C     0.20499   0.20694   0.50654   0.00000  Uiso   1.00
C488   C     0.24134   0.19394   0.97231   0.00000  Uiso   1.00
C489   C     0.22317   0.20382   0.91604   0.00000  Uiso   1.00
C490   C     0.16771   0.22213   0.89382   0.00000  Uiso   1.00
C491   C     0.22295   0.19628   0.56255   0.00000  Uiso   1.00
C492   C     0.31935   0.17488   0.55288   0.00000  Uiso   1.00
H493   H     0.27747   0.33201   0.76751   0.00000  Uiso   1.00
H494   H     0.06210   0.26104   0.58527   0.00000  Uiso   1.00
H495   H     0.06081   0.23424   0.64663   0.00000  Uiso   1.00
H496   H     0.12592   0.22947   0.62579   0.00000  Uiso   1.00
H497   H     0.06706   0.14173   0.60101   0.00000  Uiso   1.00
H498   H     0.07486   0.17259   0.54298   0.00000  Uiso   1.00
H499   H     0.15689   0.12143   0.71470   0.00000  Uiso   1.00
H500   H     0.17594   0.21419   0.77974   0.00000  Uiso   1.00
H501   H     0.25261   0.20042   0.89050   0.00000  Uiso   1.00
H502   H     0.32623   0.17016   0.96949   0.00000  Uiso   1.00
H503   H     0.19336   0.20159   0.58782   0.00000  Uiso   1.00
H504   H     0.32375   0.26101   0.90532   0.00000  Uiso   1.00
H505   H     0.14045   0.27480   0.55005   0.00000  Uiso   1.00
H506   H     0.03922   0.29951   0.99942   0.00000  Uiso   1.00
N507   N     0.14493   0.15223   0.73543   0.00000  Uiso   1.00
N508   N     0.18840   0.18110   0.76458   0.00000  Uiso   1.00
N509   N     0.15856   0.29831   0.82794   0.00000  Uiso   1.00
N510   N     0.09278   0.01419   0.68174   0.00000  Uiso   1.00
O511   O     0.29769   0.24629   0.75358   0.00000  Uiso   1.00
O512   O     0.05742   0.23704   0.74424   0.00000  Uiso   1.00
O513   O     0.31490   0.17358   0.83380   0.00000  Uiso   1.00
O514   O     0.07463   0.16433   0.82446   0.00000  Uiso   1.00
O515   O     0.27592   0.09629   0.75577   0.00000  Uiso   1.00
O516   O     0.03565   0.08704   0.74643   0.00000  Uiso   1.00
O517   O     0.25870   0.16901   0.67554   0.00000  Uiso   1.00
O518   O     0.01843   0.15976   0.66620   0.00000  Uiso   1.00
Zn519  Zn    0.27119   0.17284   0.75624   0.00000  Uiso   1.00
Zn520  Zn    0.06214   0.16049   0.74377   0.00000  Uiso   1.00
C521   C     0.34662   0.26435   0.74556   0.00000  Uiso   1.00
C522   C     0.39942   0.21912   0.90029   0.00000  Uiso   1.00
C523   C     0.35028   0.31741   0.73495   0.00000  Uiso   1.00
C524   C     0.37198   0.18795   0.84779   0.00000  Uiso   1.00
C525   C     0.64499   0.01409   0.74977   0.00000  Uiso   1.00
C526   C     0.65159   0.06861   0.74941   0.00000  Uiso   1.00
C527   C     0.62972   0.16716   0.64520   0.00000  Uiso   1.00
C528   C     0.63099   0.17749   0.99561   0.00000  Uiso   1.00
C529   C     0.61222   0.17798   0.58590   0.00000  Uiso   1.00
C530   C     0.36797   0.25118   0.92649   0.00000  Uiso   1.00
C531   C     0.39570   0.27300   0.97992   0.00000  Uiso   1.00
C532   C     0.48295   0.22642   0.98173   0.00000  Uiso   1.00
C533   C     0.45236   0.25848   0.50874   0.00000  Uiso   1.00
C534   C     0.38638   0.17599   0.57662   0.00000  Uiso   1.00
C535   C     0.41035   0.22761   0.61032   0.00000  Uiso   1.00
C536   C     0.49582   0.26398   0.85672   0.00000  Uiso   1.00
C537   C     0.39254   0.00094   0.70529   0.00000  Uiso   1.00
C538   C     0.46041   0.21881   0.92462   0.00000  Uiso   1.00
C539   C     0.53832   0.20694   0.50654   0.00000  Uiso   1.00
C540   C     0.57467   0.19394   0.97231   0.00000  Uiso   1.00
C541   C     0.55651   0.20382   0.91604   0.00000  Uiso   1.00
C542   C     0.50105   0.22213   0.89382   0.00000  Uiso   1.00
C543   C     0.55628   0.19628   0.56255   0.00000  Uiso   1.00
C544   C     0.65268   0.17488   0.55288   0.00000  Uiso   1.00
H545   H     0.61081   0.33201   0.76751   0.00000  Uiso   1.00
H546   H     0.39544   0.26104   0.58527   0.00000  Uiso   1.00
H547   H     0.39415   0.23424   0.64663   0.00000  Uiso   1.00
H548   H     0.45925   0.22947   0.62579   0.00000  Uiso   1.00
H549   H     0.40040   0.14173   0.60101   0.00000  Uiso   1.00
H550   H     0.40819   0.17259   0.54298   0.00000  Uiso   1.00
H551   H     0.49023   0.12143   0.71470   0.00000  Uiso   1.00
H552   H     0.50928   0.21419   0.77974   0.00000  Uiso   1.00
H553   H     0.58594   0.20042   0.89050   0.00000  Uiso   1.00
H554   H     0.65956   0.17016   0.96949   0.00000  Uiso   1.00
H555   H     0.52669   0.20159   0.58782   0.00000  Uiso   1.00
H556   H     0.65709   0.26101   0.90532   0.00000  Uiso   1.00
H557   H     0.47378   0.27480   0.55005   0.00000  Uiso   1.00
H558   H     0.37255   0.29951   0.99942   0.00000  Uiso   1.00
N559   N     0.47827   0.15223   0.73543   0.00000  Uiso   1.00
N560   N     0.52173   0.18110   0.76458   0.00000  Uiso   1.00
N561   N     0.49190   0.29831   0.82794   0.00000  Uiso   1.00
N562   N     0.42612   0.01419   0.68174   0.00000  Uiso   1.00
O563   O     0.63102   0.24629   0.75358   0.00000  Uiso   1.00
O564   O     0.39075   0.23704   0.74424   0.00000  Uiso   1.00
O565   O     0.64823   0.17358   0.83380   0.00000  Uiso   1.00
O566   O     0.40796   0.16433   0.82446   0.00000  Uiso   1.00
O567   O     0.60925   0.09629   0.75577   0.00000  Uiso   1.00
O568   O     0.36898   0.08704   0.74643   0.00000  Uiso   1.00
O569   O     0.59204   0.16901   0.67554   0.00000  Uiso   1.00
O570   O     0.35177   0.15976   0.66620   0.00000  Uiso   1.00
Zn571  Zn    0.60453   0.17284   0.75624   0.00000  Uiso   1.00
Zn572  Zn    0.39547   0.16049   0.74377   0.00000  Uiso   1.00
C573   C     0.67995   0.26435   0.74556   0.00000  Uiso   1.00
C574   C     0.73275   0.21912   0.90029   0.00000  Uiso   1.00
C575   C     0.68361   0.31741   0.73495   0.00000  Uiso   1.00
C576   C     0.70531   0.18795   0.84779   0.00000  Uiso   1.00
C577   C     0.97832   0.01409   0.74977   0.00000  Uiso   1.00
C578   C     0.98493   0.06861   0.74941   0.00000  Uiso   1.00
C579   C     0.96305   0.16716   0.64520   0.00000  Uiso   1.00
C580   C     0.96432   0.17749   0.99561   0.00000  Uiso   1.00
C581   C     0.94555   0.17798   0.58590   0.00000  Uiso   1.00
C582   C     0.70130   0.25118   0.92649   0.00000  Uiso   1.00
C583   C     0.72903   0.27300   0.97992   0.00000  Uiso   1.00
C584   C     0.81628   0.22642   0.98173   0.00000  Uiso   1.00
C585   C     0.78569   0.25848   0.50874   0.00000  Uiso   1.00
C586   C     0.71972   0.17599   0.57662   0.00000  Uiso   1.00
C587   C     0.74368   0.22761   0.61032   0.00000  Uiso   1.00
C588   C     0.82915   0.26398   0.85672   0.00000  Uiso   1.00
C589   C     0.72587   0.00094   0.70529   0.00000  Uiso   1.00
C590   C     0.79375   0.21881   0.92462   0.00000  Uiso   1.00
C591   C     0.87165   0.20694   0.50654   0.00000  Uiso   1.00
C592   C     0.90801   0.19394   0.97231   0.00000  Uiso   1.00
C593   C     0.88984   0.20382   0.91604   0.00000  Uiso   1.00
C594   C     0.83438   0.22213   0.89382   0.00000  Uiso   1.00
C595   C     0.88961   0.19628   0.56255   0.00000  Uiso   1.00
C596   C     0.98602   0.17488   0.55288   0.00000  Uiso   1.00
H597   H     0.94414   0.33201   0.76751   0.00000  Uiso   1.00
H598   H     0.72877   0.26104   0.58527   0.00000  Uiso   1.00
H599   H     0.72748   0.23424   0.64663   0.00000  Uiso   1.00
H600   H     0.79258   0.22947   0.62579   0.00000  Uiso   1.00
H601   H     0.73373   0.14173   0.60101   0.00000  Uiso   1.00
H602   H     0.74152   0.17259   0.54298   0.00000  Uiso   1.00
H603   H     0.82356   0.12143   0.71470   0.00000  Uiso   1.00
H604   H     0.84261   0.21419   0.77974   0.00000  Uiso   1.00
H605   H     0.91927   0.20042   0.89050   0.00000  Uiso   1.00
H606   H     0.99290   0.17016   0.96949   0.00000  Uiso   1.00
H607   H     0.86003   0.20159   0.58782   0.00000  Uiso   1.00
H608   H     0.99042   0.26101   0.90532   0.00000  Uiso   1.00
H609   H     0.80711   0.27480   0.55005   0.00000  Uiso   1.00
H610   H     0.70589   0.29951   0.99942   0.00000  Uiso   1.00
N611   N     0.81160   0.15223   0.73543   0.00000  Uiso   1.00
N612   N     0.85507   0.18110   0.76458   0.00000  Uiso   1.00
N613   N     0.82523   0.29831   0.82794   0.00000  Uiso   1.00
N614   N     0.75945   0.01419   0.68174   0.00000  Uiso   1.00
O615   O     0.96435   0.24629   0.75358   0.00000  Uiso   1.00
O616   O     0.72408   0.23704   0.74424   0.00000  Uiso   1.00
O617   O     0.98157   0.17358   0.83380   0.00000  Uiso   1.00
O618   O     0.74130   0.16433   0.82446   0.00000  Uiso   1.00
O619   O     0.94258   0.09629   0.75577   0.00000  Uiso   1.00
O620   O     0.70231   0.08704   0.74643   0.00000  Uiso   1.00
O621   O     0.92537   0.16901   0.67554   0.00000  Uiso   1.00
O622   O     0.68510   0.15976   0.66620   0.00000  Uiso   1.00
Zn623  Zn    0.93786   0.17284   0.75624   0.00000  Uiso   1.00
Zn624  Zn    0.72881   0.16049   0.74377   0.00000  Uiso   1.00
C625   C     0.01328   0.59768   0.74556   0.00000  Uiso   1.00
C626   C     0.06609   0.55245   0.90029   0.00000  Uiso   1.00
C627   C     0.01695   0.65074   0.73495   0.00000  Uiso   1.00
C628   C     0.03865   0.52128   0.84779   0.00000  Uiso   1.00
C629   C     0.31166   0.34742   0.74977   0.00000  Uiso   1.00
C630   C     0.31826   0.40194   0.74941   0.00000  Uiso   1.00
C631   C     0.29638   0.50049   0.64520   0.00000  Uiso   1.00
C632   C     0.29766   0.51082   0.99561   0.00000  Uiso   1.00
C633   C     0.27888   0.51132   0.58590   0.00000  Uiso   1.00
C634   C     0.03463   0.58451   0.92649   0.00000  Uiso   1.00
C635   C     0.06236   0.60633   0.97992   0.00000  Uiso   1.00
C636   C     0.14961   0.55976   0.98173   0.00000  Uiso   1.00
C637   C     0.11902   0.59181   0.50874   0.00000  Uiso   1.00
C638   C     0.05305   0.50932   0.57662   0.00000  Uiso   1.00
C639   C     0.07702   0.56094   0.61032   0.00000  Uiso   1.00
C640   C     0.16249   0.59732   0.85672   0.00000  Uiso   1.00
C641   C     0.05920   0.33427   0.70529   0.00000  Uiso   1.00
C642   C     0.12708   0.55214   0.92462   0.00000  Uiso   1.00
C643   C     0.20499   0.54027   0.50654   0.00000  Uiso   1.00
C644   C     0.24134   0.52727   0.97231   0.00000  Uiso   1.00
C645   C     0.22317   0.53716   0.91604   0.00000  Uiso   1.00
C646   C     0.16771   0.55547   0.89382   0.00000  Uiso   1.00
C647   C     0.22295   0.52962   0.56255   0.00000  Uiso   1.00
C648   C     0.31935   0.50822   0.55288   0.00000  Uiso   1.00
H649   H     0.27747   0.66535   0.76751   0.00000  Uiso   1.00
H650   H     0.06210   0.59437   0.58527   0.00000  Uiso   1.00
H651   H     0.06081   0.56757   0.64663   0.00000  Uiso   1.00
H652   H     0.12592   0.56280   0.62579   0.00000  Uiso   1.00
H653   H     0.06706   0.47507   0.60101   0.00000  Uiso   1.00
H654   H     0.07486   0.50592   0.54298   0.00000  Uiso   1.00
H655   H     0.15689   0.45476   0.71470   0.00000  Uiso   1.00
H656   H     0.17594   0.54752   0.77974   0.00000  Uiso   1.00
H657   H     0.25261   0.53376   0.89050   0.00000  Uiso   1.00
H658   H     0.32623   0.50349   0.96949   0.00000  Uiso   1.00
H659   H     0.19336   0.53492   0.58782   0.00000  Uiso   1.00
H660   H     0.32375   0.59434   0.90532   0.00000  Uiso   1.00
H661   H     0.14045   0.60813   0.55005   0.00000  Uiso   1.00
H662   H     0.03922   0.63284   0.99942   0.00000  Uiso   1.00
N663   N     0.14493   0.48556   0.73543   0.00000  Uiso   1.00
N664   N     0.18840   0.51444   0.76458   0.00000  Uiso   1.00
N665   N     0.15856   0.63165   0.82794   0.00000  Uiso   1.00
N666   N     0.09278   0.34753   0.68174   0.00000  Uiso   1.00
O667   O     0.29769   0.57963   0.75358   0.00000  Uiso   1.00
O668   O     0.05742   0.57038   0.74424   0.00000  Uiso   1.00
O669   O     0.31490   0.50691   0.83380   0.00000  Uiso   1.00
O670   O     0.07463   0.49766   0.82446   0.00000  Uiso   1.00
O671   O     0.27592   0.42962   0.75577   0.00000  Uiso   1.00
O672   O     0.03565   0.42037   0.74643   0.00000  Uiso   1.00
O673   O     0.25870   0.50234   0.67554   0.00000  Uiso   1.00
O674   O     0.01843   0.49309   0.66620   0.00000  Uiso   1.00
Zn675  Zn    0.27119   0.50618   0.75624   0.00000  Uiso   1.00
Zn676  Zn    0.06214   0.49382   0.74377   0.00000  Uiso   1.00
C677   C     0.34662   0.59768   0.74556   0.00000  Uiso   1.00
C678   C     0.39942   0.55245   0.90029   0.00000  Uiso   1.00
C679   C     0.35028   0.65074   0.73495   0.00000  Uiso   1.00
C680   C     0.37198   0.52128   0.84779   0.00000  Uiso   1.00
C681   C     0.64499   0.34742   0.74977   0.00000  Uiso   1.00
C682   C     0.65159   0.40194   0.74941   0.00000  Uiso   1.00
C683   C     0.62972   0.50049   0.64520   0.00000  Uiso   1.00
C684   C     0.63099   0.51082   0.99561   0.00000  Uiso   1.00
C685   C     0.61222   0.51132   0.58590   0.00000  Uiso   1.00
C686   C     0.36797   0.58451   0.92649   0.00000  Uiso   1.00
C687   C     0.39570   0.60633   0.97992   0.00000  Uiso   1.00
C688   C     0.48295   0.55976   0.98173   0.00000  Uiso   1.00
C689   C     0.45236   0.59181   0.50874   0.00000  Uiso   1.00
C690   C     0.38638   0.50932   0.57662   0.00000  Uiso   1.00
C691   C     0.41035   0.56094   0.61032   0.00000  Uiso   1.00
C692   C     0.49582   0.59732   0.85672   0.00000  Uiso   1.00
C693   C     0.39254   0.33427   0.70529   0.00000  Uiso   1.00
C694   C     0.46041   0.55214   0.92462   0.00000  Uiso   1.00
C695   C     0.53832   0.54027   0.50654   0.00000  Uiso   1.00
C696   C     0.57467   0.52727   0.97231   0.00000  Uiso   1.00
C697   C     0.55651   0.53716   0.91604   0.00000  Uiso   1.00
C698   C     0.50105   0.55547   0.89382   0.00000  Uiso   1.00
C699   C     0.55628   0.52962   0.56255   0.00000  Uiso   1.00
C700   C     0.65268   0.50822   0.55288   0.00000  Uiso   1.00
H701   H     0.61081   0.66535   0.76751   0.00000  Uiso   1.00
H702   H     0.39544   0.59437   0.58527   0.00000  Uiso   1.00
H703   H     0.39415   0.56757   0.64663   0.00000  Uiso   1.00
H704   H     0.45925   0.56280   0.62579   0.00000  Uiso   1.00
H705   H     0.40040   0.47507   0.60101   0.00000  Uiso   1.00
H706   H     0.40819   0.50592   0.54298   0.00000  Uiso   1.00
H707   H     0.49023   0.45476   0.71470   0.00000  Uiso   1.00
H708   H     0.50928   0.54752   0.77974   0.00000  Uiso   1.00
H709   H     0.58594   0.53376   0.89050   0.00000  Uiso   1.00
H710   H     0.65956   0.50349   0.96949   0.00000  Uiso   1.00
H711   H     0.52669   0.53492   0.58782   0.00000  Uiso   1.00
H712   H     0.65709   0.59434   0.90532   0.00000  Uiso   1.00
H713   H     0.47378   0.60813   0.55005   0.00000  Uiso   1.00
H714   H     0.37255   0.63284   0.99942   0.00000  Uiso   1.00
N715   N     0.47827   0.48556   0.73543   0.00000  Uiso   1.00
N716   N     0.52173   0.51444   0.76458   0.00000  Uiso   1.00
N717   N     0.49190   0.63165   0.82794   0.00000  Uiso   1.00
N718   N     0.42612   0.34753   0.68174   0.00000  Uiso   1.00
O719   O     0.63102   0.57963   0.75358   0.00000  Uiso   1.00
O720   O     0.39075   0.57038   0.74424   0.00000  Uiso   1.00
O721   O     0.64823   0.50691   0.83380   0.00000  Uiso   1.00
O722   O     0.40796   0.49766   0.82446   0.00000  Uiso   1.00
O723   O     0.60925   0.42962   0.75577   0.00000  Uiso   1.00
O724   O     0.36898   0.42037   0.74643   0.00000  Uiso   1.00
O725   O     0.59204   0.50234   0.67554   0.00000  Uiso   1.00
O726   O     0.35177   0.49309   0.66620   0.00000  Uiso   1.00
Zn727  Zn    0.60453   0.50618   0.75624   0.00000  Uiso   1.00
Zn728  Zn    0.39547   0.49382   0.74377   0.00000  Uiso   1.00
C729   C     0.67995   0.59768   0.74556   0.00000  Uiso   1.00
C730   C     0.73275   0.55245   0.90029   0.00000  Uiso   1.00
C731   C     0.68361   0.65074   0.73495   0.00000  Uiso   1.00
C732   C     0.70531   0.52128   0.84779   0.00000  Uiso   1.00
C733   C     0.97832   0.34742   0.74977   0.00000  Uiso   1.00
C734   C     0.98493   0.40194   0.74941   0.00000  Uiso   1.00
C735   C     0.96305   0.50049   0.64520   0.00000  Uiso   1.00
C736   C     0.96432   0.51082   0.99561   0.00000  Uiso   1.00
C737   C     0.94555   0.51132   0.58590   0.00000  Uiso   1.00
C738   C     0.70130   0.58451   0.92649   0.00000  Uiso   1.00
C739   C     0.72903   0.60633   0.97992   0.00000  Uiso   1.00
C740   C     0.81628   0.55976   0.98173   0.00000  Uiso   1.00
C741   C     0.78569   0.59181   0.50874   0.00000  Uiso   1.00
C742   C     0.71972   0.50932   0.57662   0.00000  Uiso   1.00
C743   C     0.74368   0.56094   0.61032   0.00000  Uiso   1.00
C744   C     0.82915   0.59732   0.85672   0.00000  Uiso   1.00
C745   C     0.72587   0.33427   0.70529   0.00000  Uiso   1.00
C746   C     0.79375   0.55214   0.92462   0.00000  Uiso   1.00
C747   C     0.87165   0.54027   0.50654   0.00000  Uiso   1.00
C748   C     0.90801   0.52727   0.97231   0.00000  Uiso   1.00
C749   C     0.88984   0.53716   0.91604   0.00000  Uiso   1.00
C750   C     0.83438   0.55547   0.89382   0.00000  Uiso   1.00
C751   C     0.88961   0.52962   0.56255   0.00000  Uiso   1.00
C752   C     0.98602   0.50822   0.55288   0.00000  Uiso   1.00
H753   H     0.94414   0.66535   0.76751   0.00000  Uiso   1.00
H754   H     0.72877   0.59437   0.58527   0.00000  Uiso   1.00
H755   H     0.72748   0.56757   0.64663   0.00000  Uiso   1.00
H756   H     0.79258   0.56280   0.62579   0.00000  Uiso   1.00
H757   H     0.73373   0.47507   0.60101   0.00000  Uiso   1.00
H758   H     0.74152   0.50592   0.54298   0.00000  Uiso   1.00
H759   H     0.82356   0.45476   0.71470   0.00000  Uiso   1.00
H760   H     0.84261   0.54752   0.77974   0.00000  Uiso   1.00
H761   H     0.91927   0.53376   0.89050   0.00000  Uiso   1.00
H762   H     0.99290   0.50349   0.96949   0.00000  Uiso   1.00
H763   H     0.86003   0.53492   0.58782   0.00000  Uiso   1.00
H764   H     0.99042   0.59434   0.90532   0.00000  Uiso   1.00
H765   H     0.80711   0.60813   0.55005   0.00000  Uiso   1.00
H766   H     0.70589   0.63284   0.99942   0.00000  Uiso   1.00
N767   N     0.81160   0.48556   0.73543   0.00000  Uiso   1.00
N768   N     0.85507   0.51444   0.76458   0.00000  Uiso   1.00
N769   N     0.82523   0.63165   0.82794   0.00000  Uiso   1.00
N770   N     0.75945   0.34753   0.68174   0.00000  Uiso   1.00
O771   O     0.96435   0.57963   0.75358   0.00000  Uiso   1.00
O772   O     0.72408   0.57038   0.74424   0.00000  Uiso   1.00
O773   O     0.98157   0.50691   0.83380   0.00000  Uiso   1.00
O774   O     0.74130   0.49766   0.82446   0.00000  Uiso   1.00
O775   O     0.94258   0.42962   0.75577   0.00000  Uiso   1.00
O776   O     0.70231   0.42037   0.74643   0.00000  Uiso   1.00
O777   O     0.92537   0.50234   0.67554   0.00000  Uiso   1.00
O778   O     0.68510   0.49309   0.66620   0.00000  Uiso   1.00
Zn779  Zn    0.93786   0.50618   0.75624   0.00000  Uiso   1.00
Zn780  Zn    0.72881   0.49382   0.74377   0.00000  Uiso   1.00
C781   C     0.01328   0.93102   0.74556   0.00000  Uiso   1.00
C782   C     0.06609   0.88579   0.90029   0.00000  Uiso   1.00
C783   C     0.01695   0.98407   0.73495   0.00000  Uiso   1.00
C784   C     0.03865   0.85462   0.84779   0.00000  Uiso   1.00
C785   C     0.31166   0.68075   0.74977   0.00000  Uiso   1.00
C786   C     0.31826   0.73528   0.74941   0.00000  Uiso   1.00
C787   C     0.29638   0.83383   0.64520   0.00000  Uiso   1.00
C788   C     0.29766   0.84415   0.99561   0.00000  Uiso   1.00
C789   C     0.27888   0.84465   0.58590   0.00000  Uiso   1.00
C790   C     0.03463   0.91784   0.92649   0.00000  Uiso   1.00
C791   C     0.06236   0.93966   0.97992   0.00000  Uiso   1.00
C792   C     0.14961   0.89309   0.98173   0.00000  Uiso   1.00
C793   C     0.11902   0.92515   0.50874   0.00000  Uiso   1.00
C794   C     0.05305   0.84266   0.57662   0.00000  Uiso   1.00
C795   C     0.07702   0.89427   0.61032   0.00000  Uiso   1.00
C796   C     0.16249   0.93065   0.85672   0.00000  Uiso   1.00
C797   C     0.05920   0.66760   0.70529   0.00000  Uiso   1.00
C798   C     0.12708   0.88547   0.92462   0.00000  Uiso   1.00
C799   C     0.20499   0.87360   0.50654   0.00000  Uiso   1.00
C800   C     0.24134   0.86061   0.97231   0.00000  Uiso   1.00
C801   C     0.22317   0.87049   0.91604   0.00000  Uiso   1.00
C802   C     0.16771   0.88880   0.89382   0.00000  Uiso   1.00
C803   C     0.22295   0.86295   0.56255   0.00000  Uiso   1.00
C804   C     0.31935   0.84155   0.55288   0.00000  Uiso   1.00
H805   H     0.27747   0.99868   0.76751   0.00000  Uiso   1.00
H806   H     0.06210   0.92771   0.58527   0.00000  Uiso   1.00
H807   H     0.06081   0.90091   0.64663   0.00000  Uiso   1.00
H808   H     0.12592   0.89614   0.62579   0.00000  Uiso   1.00
H809   H     0.06706   0.80840   0.60101   0.00000  Uiso   1.00
H810   H     0.07486   0.83925   0.54298   0.00000  Uiso   1.00
H811   H     0.15689   0.78810   0.71470   0.00000  Uiso   1.00
H812   H     0.17594   0.88086   0.77974   0.00000  Uiso   1.00
H813   H     0.25261   0.86709   0.89050   0.00000  Uiso   1.00
H814   H     0.32623   0.83682   0.96949   0.00000  Uiso   1.00
H815   H     0.19336   0.86826   0.58782   0.00000  Uiso   1.00
H816   H     0.32375   0.92767   0.90532   0.00000  Uiso   1.00
H817   H     0.14045   0.94147   0.55005   0.00000  Uiso   1.00
H818   H     0.03922   0.96617   0.99942   0.00000  Uiso   1.00
N819   N     0.14493   0.81890   0.73543   0.00000  Uiso   1.00
N820   N     0.18840   0.84777   0.76458   0.00000  Uiso   1.00
N821   N     0.15856   0.96498   0.82794   0.00000  Uiso   1.00
N822   N     0.09278   0.68086   0.68174   0.00000  Uiso   1.00
O823   O     0.29769   0.91296   0.75358   0.00000  Uiso   1.00
O824   O     0.05742   0.90371   0.74424   0.00000  Uiso   1.00
O825   O     0.31490   0.84024   0.83380   0.00000  Uiso   1.00
O826   O     0.07463   0.83099   0.82446   0.00000  Uiso   1.00
O827   O     0.27592   0.76296   0.75577   0.00000  Uiso   1.00
O828   O     0.03565   0.75371   0.74643   0.00000  Uiso   1.00
O829   O     0.25870   0.83567   0.67554   0.00000  Uiso   1.00
O830   O     0.01843   0.82642   0.66620   0.00000  Uiso   1.00
Zn831  Zn    0.27119   0.83951   0.75624   0.00000  Uiso   1.00
Zn832  Zn    0.06214   0.82716   0.74377   0.00000  Uiso   1.00
C833   C     0.34662   0.93102   0.74556   0.00000  Uiso   1.00
C834   C     0.39942   0.88579   0.90029   0.00000  Uiso   1.00
C835   C     0.35028   0.98407   0.73495   0.00000  Uiso   1.00
C836   C     0.37198   0.85462   0.84779   0.00000  Uiso   1.00
C837   C     0.64499   0.68075   0.74977   0.00000  Uiso   1.00
C838   C     0.65159   0.73528   0.74941   0.00000  Uiso   1.00
C839   C     0.62972   0.83383   0.64520   0.00000  Uiso   1.00
C840   C     0.63099   0.84415   0.99561   0.00000  Uiso   1.00
C841   C     0.61222   0.84465   0.58590   0.00000  Uiso   1.00
C842   C     0.36797   0.91784   0.92649   0.00000  Uiso   1.00
C843   C     0.39570   0.93966   0.97992   0.00000  Uiso   1.00
C844   C     0.48295   0.89309   0.98173   0.00000  Uiso   1.00
C845   C     0.45236   0.92515   0.50874   0.00000  Uiso   1.00
C846   C     0.38638   0.84266   0.57662   0.00000  Uiso   1.00
C847   C     0.41035   0.89427   0.61032   0.00000  Uiso   1.00
C848   C     0.49582   0.93065   0.85672   0.00000  Uiso   1.00
C849   C     0.39254   0.66760   0.70529   0.00000  Uiso   1.00
C850   C     0.46041   0.88547   0.92462   0.00000  Uiso   1.00
C851   C     0.53832   0.87360   0.50654   0.00000  Uiso   1.00
C852   C     0.57467   0.86061   0.97231   0.00000  Uiso   1.00
C853   C     0.55651   0.87049   0.91604   0.00000  Uiso   1.00
C854   C     0.50105   0.88880   0.89382   0.00000  Uiso   1.00
C855   C     0.55628   0.86295   0.56255   0.00000  Uiso   1.00
C856   C     0.65268   0.84155   0.55288   0.00000  Uiso   1.00
H857   H     0.61081   0.99868   0.76751   0.00000  Uiso   1.00
H858   H     0.39544   0.92771   0.58527   0.00000  Uiso   1.00
H859   H     0.39415   0.90091   0.64663   0.00000  Uiso   1.00
H860   H     0.45925   0.89614   0.62579   0.00000  Uiso   1.00
H861   H     0.40040   0.80840   0.60101   0.00000  Uiso   1.00
H862   H     0.40819   0.83925   0.54298   0.00000  Uiso   1.00
H863   H     0.49023   0.78810   0.71470   0.00000  Uiso   1.00
H864   H     0.50928   0.88086   0.77974   0.00000  Uiso   1.00
H865   H     0.58594   0.86709   0.89050   0.00000  Uiso   1.00
H866   H     0.65956   0.83682   0.96949   0.00000  Uiso   1.00
H867   H     0.52669   0.86826   0.58782   0.00000  Uiso   1.00
H868   H     0.65709   0.92767   0.90532   0.00000  Uiso   1.00
H869   H     0.47378   0.94147   0.55005   0.00000  Uiso   1.00
H870   H     0.37255   0.96617   0.99942   0.00000  Uiso   1.00
N871   N     0.47827   0.81890   0.73543   0.00000  Uiso   1.00
N872   N     0.52173   0.84777   0.76458   0.00000  Uiso   1.00
N873   N     0.49190   0.96498   0.82794   0.00000  Uiso   1.00
N874   N     0.42612   0.68086   0.68174   0.00000  Uiso   1.00
O875   O     0.63102   0.91296   0.75358   0.00000  Uiso   1.00
O876   O     0.39075   0.90371   0.74424   0.00000  Uiso   1.00
O877   O     0.64823   0.84024   0.83380   0.00000  Uiso   1.00
O878   O     0.40796   0.83099   0.82446   0.00000  Uiso   1.00
O879   O     0.60925   0.76296   0.75577   0.00000  Uiso   1.00
O880   O     0.36898   0.75371   0.74643   0.00000  Uiso   1.00
O881   O     0.59204   0.83567   0.67554   0.00000  Uiso   1.00
O882   O     0.35177   0.82642   0.66620   0.00000  Uiso   1.00
Zn883  Zn    0.60453   0.83951   0.75624   0.00000  Uiso   1.00
Zn884  Zn    0.39547   0.82716   0.74377   0.00000  Uiso   1.00
C885   C     0.67995   0.93102   0.74556   0.00000  Uiso   1.00
C886   C     0.73275   0.88579   0.90029   0.00000  Uiso   1.00
C887   C     0.68361   0.98407   0.73495   0.00000  Uiso   1.00
C888   C     0.70531   0.85462   0.84779   0.00000  Uiso   1.00
C889   C     0.97832   0.68075   0.74977   0.00000  Uiso   1.00
C890   C     0.98493   0.73528   0.74941   0.00000  Uiso   1.00
C891   C     0.96305   0.83383   0.64520   0.00000  Uiso   1.00
C892   C     0.96432   0.84415   0.99561   0.00000  Uiso   1.00
C893   C     0.94555   0.84465   0.58590   0.00000  Uiso   1.00
C894   C     0.70130   0.91784   0.92649   0.00000  Uiso   1.00
C895   C     0.72903   0.93966   0.97992   0.00000  Uiso   1.00
C896   C     0.81628   0.89309   0.98173   0.00000  Uiso   1.00
C897   C     0.78569   0.92515   0.50874   0.00000  Uiso   1.00
C898   C     0.71972   0.84266   0.57662   0.00000  Uiso   1.00
C899   C     0.74368   0.89427   0.61032   0.00000  Uiso   1.00
C900   C     0.82915   0.93065   0.85672   0.00000  Uiso   1.00
C901   C     0.72587   0.66760   0.70529   0.00000  Uiso   1.00
C902   C     0.79375   0.88547   0.92462   0.00000  Uiso   1.00
C903   C     0.87165   0.87360   0.50654   0.00000  Uiso   1.00
C904   C     0.90801   0.86061   0.97231   0.00000  Uiso   1.00
C905   C     0.88984   0.87049   0.91604   0.00000  Uiso   1.00
C906   C     0.83438   0.88880   0.89382   0.00000  Uiso   1.00
C907   C     0.88961   0.86295   0.56255   0.00000  Uiso   1.00
C908   C     0.98602   0.84155   0.55288   0.00000  Uiso   1.00
H909   H     0.94414   0.99868   0.76751   0.00000  Uiso   1.00
H910   H     0.72877   0.92771   0.58527   0.00000  Uiso   1.00
H911   H     0.72748   0.90091   0.64663   0.00000  Uiso   1.00
H912   H     0.79258   0.89614   0.62579   0.00000  Uiso   1.00
H913   H     0.73373   0.80840   0.60101   0.00000  Uiso   1.00
H914   H     0.74152   0.83925   0.54298   0.00000  Uiso   1.00
H915   H     0.82356   0.78810   0.71470   0.00000  Uiso   1.00
H916   H     0.84261   0.88086   0.77974   0.00000  Uiso   1.00
H917   H     0.91927   0.86709   0.89050   0.00000  Uiso   1.00
H918   H     0.99290   0.83682   0.96949   0.00000  Uiso   1.00
H919   H     0.86003   0.86826   0.58782   0.00000  Uiso   1.00
H920   H     0.99042   0.92767   0.90532   0.00000  Uiso   1.00
H921   H     0.80711   0.94147   0.55005   0.00000  Uiso   1.00
H922   H     0.70589   0.96617   0.99942   0.00000  Uiso   1.00
N923   N     0.81160   0.81890   0.73543   0.00000  Uiso   1.00
N924   N     0.85507   0.84777   0.76458   0.00000  Uiso   1.00
N925   N     0.82523   0.96498   0.82794   0.00000  Uiso   1.00
N926   N     0.75945   0.68086   0.68174   0.00000  Uiso   1.00
O927   O     0.96435   0.91296   0.75358   0.00000  Uiso   1.00
O928   O     0.72408   0.90371   0.74424   0.00000  Uiso   1.00
O929   O     0.98157   0.84024   0.83380   0.00000  Uiso   1.00
O930   O     0.74130   0.83099   0.82446   0.00000  Uiso   1.00
O931   O     0.94258   0.76296   0.75577   0.00000  Uiso   1.00
O932   O     0.70231   0.75371   0.74643   0.00000  Uiso   1.00
O933   O     0.92537   0.83567   0.67554   0.00000  Uiso   1.00
O934   O     0.68510   0.82642   0.66620   0.00000  Uiso   1.00
Zn935  Zn    0.93786   0.83951   0.75624   0.00000  Uiso   1.00
Zn936  Zn    0.72881   0.82716   0.74377   0.00000  Uiso   1.00
loop_
_geom_bond_atom_site_label_1
_geom_bond_atom_site_label_2
_geom_bond_distance
_geom_bond_site_symmetry_2
_ccdc_geom_bond_type
C1     O44     1.294   .     A
C1     C3      1.409   .     S
C1     O147    1.289   1_455 S
C2     C18     1.396   .     A
C2     C4      1.484   .     S
C2     C10     1.402   .     A
C3     C265    1.345   1_455 S
C3     C173    1.458   .     S
C4     O46     1.319   .     A
C4     O149    1.319   1_455 S
C5     C6      1.409   .     S
C5     C367    1.345   1_545 S
C5     H337    1.088   1_545 S
C6     O47     1.299   .     A
C6     O100    1.284   .     S
C7     O49     1.323   .     A
C7     C9      1.477   .     S
C7     O102    1.291   .     S
C8     H34     1.082   .     S
C8     C20     1.389   .     A
C8     C492    1.395   .     S
C9     C24     1.431   .     A
C9     C23     1.400   .     A
C10    C11     1.403   .     A
C10    H140    1.078   1_455 S
C11    H38     1.082   .     S
C11    C481    1.408   .     S
C12    C18     1.390   .     A
C12    C481    1.400   .     S
C12    C487    1.409   .     S
C13    H37     1.080   .     S
C13    C479    1.408   1_554 S
C13    C480    1.400   1_554 S
C14    C15     1.544   .     S
C14    H30     1.109   .     S
C14    H29     1.109   .     S
C14    C128    1.522   1_455 S
C15    H28     1.105   .     S
C15    H26     1.103   .     S
C15    H27     1.095   .     S
C16    N41     1.158   .     T
C16    C22     1.443   .     S
C17    N42     1.158   .     T
C17    C315    1.458   1_545 S
C18    C22     1.390   .     A
C19    C23     1.398   .     A
C19    C480    1.409   1_554 S
C19    C488    1.417   1_554 S
C20    C21     1.399   .     A
C20    C487    1.417   .     S
C21    C22     1.386   .     A
C21    H33     1.073   .     S
C23    H35     1.077   .     S
C24    C476    1.395   1_554 S
C24    C66     1.522   .     S
H25    C161    1.088   .     S
H31    N39     1.029   .     S
H32    N40     1.013   .     S
H36    C62     1.078   .     S
N39    Zn52    2.038   .     S
N39    N40     1.265   .     D
N40    Zn51    2.038   .     S
O43    Zn51    1.974   .     S
O43    C53     1.289   .     S
O44    Zn52    1.986   .     S
O45    Zn51    1.937   .     S
O45    C56     1.319   .     S
O46    Zn52    1.969   .     S
O47    Zn51    1.986   .     S
O48    Zn52    1.974   .     S
O48    C110    1.284   1_455 S
O49    Zn51    1.969   .     S
O50    Zn52    1.937   .     S
O50    C111    1.291   1_455 S
C53    O96     1.294   .     A
C53    C55     1.409   .     S
C54    C70     1.396   .     A
C54    C56     1.484   .     S
C54    C62     1.402   .     A
C55    C161    1.345   .     S
C55    C225    1.458   .     S
C56    O98     1.319   .     A
C57    C58     1.409   .     S
C57    C419    1.345   1_545 S
C57    H389    1.088   1_545 S
C58    O99     1.299   .     A
C58    O152    1.284   .     S
C59    O101    1.323   .     A
C59    C61     1.477   .     S
C59    O154    1.291   .     S
C60    H86     1.082   .     S
C60    C72     1.389   .     A
C60    C544    1.395   .     S
C61    C76     1.431   .     A
C61    C75     1.400   .     A
C62    C63     1.403   .     A
C63    H90     1.082   .     S
C63    C533    1.408   .     S
C64    C70     1.390   .     A
C64    C533    1.400   .     S
C64    C539    1.409   .     S
C65    H89     1.080   .     S
C65    C531    1.408   1_554 S
C65    C532    1.400   1_554 S
C66    C67     1.544   .     S
C66    H82     1.109   .     S
C66    H81     1.109   .     S
C67    H80     1.105   .     S
C67    H78     1.103   .     S
C67    H79     1.095   .     S
C68    N93     1.158   .     T
C68    C74     1.443   .     S
C69    N94     1.158   .     T
C69    C367    1.458   1_545 S
C70    C74     1.390   .     A
C71    C75     1.398   .     A
C71    C532    1.409   1_554 S
C71    C540    1.417   1_554 S
C72    C73     1.399   .     A
C72    C539    1.417   .     S
C73    C74     1.386   .     A
C73    H85     1.073   .     S
C75    H87     1.077   .     S
C76    C528    1.395   1_554 S
C76    C118    1.522   .     S
H77    C213    1.088   .     S
H83    N91     1.029   .     S
H84    N92     1.013   .     S
H88    C114    1.078   .     S
N91    Zn104   2.038   .     S
N91    N92     1.265   .     D
N92    Zn103   2.038   .     S
O95    Zn103   1.974   .     S
O95    C105    1.289   .     S
O96    Zn104   1.986   .     S
O97    Zn103   1.937   .     S
O97    C108    1.319   .     S
O98    Zn104   1.969   .     S
O99    Zn103   1.986   .     S
O100   Zn104   1.974   .     S
O101   Zn103   1.969   .     S
O102   Zn104   1.937   .     S
C105   O148    1.294   .     A
C105   C107    1.409   .     S
C106   C122    1.396   .     A
C106   C108    1.484   .     S
C106   C114    1.402   .     A
C107   C213    1.345   .     S
C107   C277    1.458   .     S
C108   O150    1.319   .     A
C109   C110    1.409   .     S
C109   C315    1.345   1_645 S
C109   H441    1.088   1_545 S
C110   O151    1.299   .     A
C110   O48     1.284   1_655 S
C111   O153    1.323   .     A
C111   C113    1.477   .     S
C111   O50     1.291   1_655 S
C112   H138    1.082   .     S
C112   C124    1.389   .     A
C112   C596    1.395   .     S
C113   C128    1.431   .     A
C113   C127    1.400   .     A
C114   C115    1.403   .     A
C115   H142    1.082   .     S
C115   C585    1.408   .     S
C116   C122    1.390   .     A
C116   C585    1.400   .     S
C116   C591    1.409   .     S
C117   H141    1.080   .     S
C117   C583    1.408   1_554 S
C117   C584    1.400   1_554 S
C118   C119    1.544   .     S
C118   H134    1.109   .     S
C118   H133    1.109   .     S
C119   H132    1.105   .     S
C119   H130    1.103   .     S
C119   H131    1.095   .     S
C120   N145    1.158   .     T
C120   C126    1.443   .     S
C121   N146    1.158   .     T
C121   C419    1.458   1_545 S
C122   C126    1.390   .     A
C123   C127    1.398   .     A
C123   C584    1.409   1_554 S
C123   C592    1.417   1_554 S
C124   C125    1.399   .     A
C124   C591    1.417   .     S
C125   C126    1.386   .     A
C125   H137    1.073   .     S
C127   H139    1.077   .     S
C128   C580    1.395   1_554 S
C128   C14     1.522   1_655 S
H129   C265    1.088   .     S
H135   N143    1.029   .     S
H136   N144    1.013   .     S
H140   C10     1.078   1_655 S
N143   Zn156   2.038   .     S
N143   N144    1.265   .     D
N144   Zn155   2.038   .     S
O147   Zn155   1.974   .     S
O147   C1      1.289   1_655 S
O148   Zn156   1.986   .     S
O149   Zn155   1.937   .     S
O149   C4      1.319   1_655 S
O150   Zn156   1.969   .     S
O151   Zn155   1.986   .     S
O152   Zn156   1.974   .     S
O153   Zn155   1.969   .     S
O154   Zn156   1.937   .     S
C157   O200    1.294   .     A
C157   C159    1.409   .     S
C157   O303    1.289   1_455 S
C158   C174    1.396   .     A
C158   C160    1.484   .     S
C158   C166    1.402   .     A
C159   C421    1.345   1_455 S
C159   C329    1.458   .     S
C160   O202    1.319   .     A
C160   O305    1.319   1_455 S
C161   C162    1.409   .     S
C162   O203    1.299   .     A
C162   O256    1.284   .     S
C163   O205    1.323   .     A
C163   C165    1.477   .     S
C163   O258    1.291   .     S
C164   H190    1.082   .     S
C164   C176    1.389   .     A
C164   C648    1.395   .     S
C165   C180    1.431   .     A
C165   C179    1.400   .     A
C166   C167    1.403   .     A
C166   H296    1.078   1_455 S
C167   H194    1.082   .     S
C167   C637    1.408   .     S
C168   C174    1.390   .     A
C168   C637    1.400   .     S
C168   C643    1.409   .     S
C169   H193    1.080   .     S
C169   C635    1.408   1_554 S
C169   C636    1.400   1_554 S
C170   C171    1.544   .     S
C170   H186    1.109   .     S
C170   H185    1.109   .     S
C170   C284    1.522   1_455 S
C171   H184    1.105   .     S
C171   H182    1.103   .     S
C171   H183    1.095   .     S
C172   N197    1.158   .     T
C172   C178    1.443   .     S
C173   N198    1.158   .     T
C174   C178    1.390   .     A
C175   C179    1.398   .     A
C175   C636    1.409   1_554 S
C175   C644    1.417   1_554 S
C176   C177    1.399   .     A
C176   C643    1.417   .     S
C177   C178    1.386   .     A
C177   H189    1.073   .     S
C179   H191    1.077   .     S
C180   C632    1.395   1_554 S
C180   C222    1.522   .     S
H181   C317    1.088   .     S
H187   N195    1.029   .     S
H188   N196    1.013   .     S
H192   C218    1.078   .     S
N195   Zn208   2.038   .     S
N195   N196    1.265   .     D
N196   Zn207   2.038   .     S
O199   Zn207   1.974   .     S
O199   C209    1.289   .     S
O200   Zn208   1.986   .     S
O201   Zn207   1.937   .     S
O201   C212    1.319   .     S
O202   Zn208   1.969   .     S
O203   Zn207   1.986   .     S
O204   Zn208   1.974   .     S
O204   C266    1.284   1_455 S
O205   Zn207   1.969   .     S
O206   Zn208   1.937   .     S
O206   C267    1.291   1_455 S
C209   O252    1.294   .     A
C209   C211    1.409   .     S
C210   C226    1.396   .     A
C210   C212    1.484   .     S
C210   C218    1.402   .     A
C211   C317    1.345   .     S
C211   C381    1.458   .     S
C212   O254    1.319   .     A
C213   C214    1.409   .     S
C214   O255    1.299   .     A
C214   O308    1.284   .     S
C215   O257    1.323   .     A
C215   C217    1.477   .     S
C215   O310    1.291   .     S
C216   H242    1.082   .     S
C216   C228    1.389   .     A
C216   C700    1.395   .     S
C217   C232    1.431   .     A
C217   C231    1.400   .     A
C218   C219    1.403   .     A
C219   H246    1.082   .     S
C219   C689    1.408   .     S
C220   C226    1.390   .     A
C220   C689    1.400   .     S
C220   C695    1.409   .     S
C221   H245    1.080   .     S
C221   C687    1.408   1_554 S
C221   C688    1.400   1_554 S
C222   C223    1.544   .     S
C222   H238    1.109   .     S
C222   H237    1.109   .     S
C223   H236    1.105   .     S
C223   H234    1.103   .     S
C223   H235    1.095   .     S
C224   N249    1.158   .     T
C224   C230    1.443   .     S
C225   N250    1.158   .     T
C226   C230    1.390   .     A
C227   C231    1.398   .     A
C227   C688    1.409   1_554 S
C227   C696    1.417   1_554 S
C228   C229    1.399   .     A
C228   C695    1.417   .     S
C229   C230    1.386   .     A
C229   H241    1.073   .     S
C231   H243    1.077   .     S
C232   C684    1.395   1_554 S
C232   C274    1.522   .     S
H233   C369    1.088   .     S
H239   N247    1.029   .     S
H240   N248    1.013   .     S
H244   C270    1.078   .     S
N247   Zn260   2.038   .     S
N247   N248    1.265   .     D
N248   Zn259   2.038   .     S
O251   Zn259   1.974   .     S
O251   C261    1.289   .     S
O252   Zn260   1.986   .     S
O253   Zn259   1.937   .     S
O253   C264    1.319   .     S
O254   Zn260   1.969   .     S
O255   Zn259   1.986   .     S
O256   Zn260   1.974   .     S
O257   Zn259   1.969   .     S
O258   Zn260   1.937   .     S
C261   O304    1.294   .     A
C261   C263    1.409   .     S
C262   C278    1.396   .     A
C262   C264    1.484   .     S
C262   C270    1.402   .     A
C263   C369    1.345   .     S
C263   C433    1.458   .     S
C264   O306    1.319   .     A
C265   C266    1.409   .     S
C265   C3      1.345   1_655 S
C266   O307    1.299   .     A
C266   O204    1.284   1_655 S
C267   O309    1.323   .     A
C267   C269    1.477   .     S
C267   O206    1.291   1_655 S
C268   H294    1.082   .     S
C268   C280    1.389   .     A
C268   C752    1.395   .     S
C269   C284    1.431   .     A
C269   C283    1.400   .     A
C270   C271    1.403   .     A
C271   H298    1.082   .     S
C271   C741    1.408   .     S
C272   C278    1.390   .     A
C272   C741    1.400   .     S
C272   C747    1.409   .     S
C273   H297    1.080   .     S
C273   C739    1.408   1_554 S
C273   C740    1.400   1_554 S
C274   C275    1.544   .     S
C274   H290    1.109   .     S
C274   H289    1.109   .     S
C275   H288    1.105   .     S
C275   H286    1.103   .     S
C275   H287    1.095   .     S
C276   N301    1.158   .     T
C276   C282    1.443   .     S
C277   N302    1.158   .     T
C278   C282    1.390   .     A
C279   C283    1.398   .     A
C279   C740    1.409   1_554 S
C279   C748    1.417   1_554 S
C280   C281    1.399   .     A
C280   C747    1.417   .     S
C281   C282    1.386   .     A
C281   H293    1.073   .     S
C283   H295    1.077   .     S
C284   C736    1.395   1_554 S
C284   C170    1.522   1_655 S
H285   C421    1.088   .     S
H291   N299    1.029   .     S
H292   N300    1.013   .     S
H296   C166    1.078   1_655 S
N299   Zn312   2.038   .     S
N299   N300    1.265   .     D
N300   Zn311   2.038   .     S
O303   Zn311   1.974   .     S
O303   C157    1.289   1_655 S
O304   Zn312   1.986   .     S
O305   Zn311   1.937   .     S
O305   C160    1.319   1_655 S
O306   Zn312   1.969   .     S
O307   Zn311   1.986   .     S
O308   Zn312   1.974   .     S
O309   Zn311   1.969   .     S
O310   Zn312   1.937   .     S
C313   O356    1.294   .     A
C313   C315    1.409   .     S
C313   O459    1.289   1_455 S
C314   C330    1.396   .     A
C314   C316    1.484   .     S
C314   C322    1.402   .     A
C315   C109    1.345   1_465 S
C315   C17     1.458   1_565 S
C316   O358    1.319   .     A
C316   O461    1.319   1_455 S
C317   C318    1.409   .     S
C318   O359    1.299   .     A
C318   O412    1.284   .     S
C319   O361    1.323   .     A
C319   C321    1.477   .     S
C319   O414    1.291   .     S
C320   H346    1.082   .     S
C320   C332    1.389   .     A
C320   C804    1.395   .     S
C321   C336    1.431   .     A
C321   C335    1.400   .     A
C322   C323    1.403   .     A
C322   H452    1.078   1_455 S
C323   H350    1.082   .     S
C323   C793    1.408   .     S
C324   C330    1.390   .     A
C324   C793    1.400   .     S
C324   C799    1.409   .     S
C325   H349    1.080   .     S
C325   C791    1.408   1_554 S
C325   C792    1.400   1_554 S
C326   C327    1.544   .     S
C326   H342    1.109   .     S
C326   H341    1.109   .     S
C326   C440    1.522   1_455 S
C327   H340    1.105   .     S
C327   H338    1.103   .     S
C327   H339    1.095   .     S
C328   N353    1.158   .     T
C328   C334    1.443   .     S
C329   N354    1.158   .     T
C330   C334    1.390   .     A
C331   C335    1.398   .     A
C331   C792    1.409   1_554 S
C331   C800    1.417   1_554 S
C332   C333    1.399   .     A
C332   C799    1.417   .     S
C333   C334    1.386   .     A
C333   H345    1.073   .     S
C335   H347    1.077   .     S
C336   C788    1.395   1_554 S
C336   C378    1.522   .     S
H337   C5      1.088   1_565 S
H343   N351    1.029   .     S
H344   N352    1.013   .     S
H348   C374    1.078   .     S
N351   Zn364   2.038   .     S
N351   N352    1.265   .     D
N352   Zn363   2.038   .     S
O355   Zn363   1.974   .     S
O355   C365    1.289   .     S
O356   Zn364   1.986   .     S
O357   Zn363   1.937   .     S
O357   C368    1.319   .     S
O358   Zn364   1.969   .     S
O359   Zn363   1.986   .     S
O360   Zn364   1.974   .     S
O360   C422    1.284   1_455 S
O361   Zn363   1.969   .     S
O362   Zn364   1.937   .     S
O362   C423    1.291   1_455 S
C365   O408    1.294   .     A
C365   C367    1.409   .     S
C366   C382    1.396   .     A
C366   C368    1.484   .     S
C366   C374    1.402   .     A
C367   C5      1.345   1_565 S
C367   C69     1.458   1_565 S
C368   O410    1.319   .     A
C369   C370    1.409   .     S
C370   O411    1.299   .     A
C370   O464    1.284   .     S
C371   O413    1.323   .     A
C371   C373    1.477   .     S
C371   O466    1.291   .     S
C372   H398    1.082   .     S
C372   C384    1.389   .     A
C372   C856    1.395   .     S
C373   C388    1.431   .     A
C373   C387    1.400   .     A
C374   C375    1.403   .     A
C375   H402    1.082   .     S
C375   C845    1.408   .     S
C376   C382    1.390   .     A
C376   C845    1.400   .     S
C376   C851    1.409   .     S
C377   H401    1.080   .     S
C377   C843    1.408   1_554 S
C377   C844    1.400   1_554 S
C378   C379    1.544   .     S
C378   H394    1.109   .     S
C378   H393    1.109   .     S
C379   H392    1.105   .     S
C379   H390    1.103   .     S
C379   H391    1.095   .     S
C380   N405    1.158   .     T
C380   C386    1.443   .     S
C381   N406    1.158   .     T
C382   C386    1.390   .     A
C383   C387    1.398   .     A
C383   C844    1.409   1_554 S
C383   C852    1.417   1_554 S
C384   C385    1.399   .     A
C384   C851    1.417   .     S
C385   C386    1.386   .     A
C385   H397    1.073   .     S
C387   H399    1.077   .     S
C388   C840    1.395   1_554 S
C388   C430    1.522   .     S
H389   C57     1.088   1_565 S
H395   N403    1.029   .     S
H396   N404    1.013   .     S
H400   C426    1.078   .     S
N403   Zn416   2.038   .     S
N403   N404    1.265   .     D
N404   Zn415   2.038   .     S
O407   Zn415   1.974   .     S
O407   C417    1.289   .     S
O408   Zn416   1.986   .     S
O409   Zn415   1.937   .     S
O409   C420    1.319   .     S
O410   Zn416   1.969   .     S
O411   Zn415   1.986   .     S
O412   Zn416   1.974   .     S
O413   Zn415   1.969   .     S
O414   Zn416   1.937   .     S
C417   O460    1.294   .     A
C417   C419    1.409   .     S
C418   C434    1.396   .     A
C418   C420    1.484   .     S
C418   C426    1.402   .     A
C419   C57     1.345   1_565 S
C419   C121    1.458   1_565 S
C420   O462    1.319   .     A
C421   C422    1.409   .     S
C421   C159    1.345   1_655 S
C422   O463    1.299   .     A
C422   O360    1.284   1_655 S
C423   O465    1.323   .     A
C423   C425    1.477   .     S
C423   O362    1.291   1_655 S
C424   H450    1.082   .     S
C424   C436    1.389   .     A
C424   C908    1.395   .     S
C425   C440    1.431   .     A
C425   C439    1.400   .     A
C426   C427    1.403   .     A
C427   H454    1.082   .     S
C427   C897    1.408   .     S
C428   C434    1.390   .     A
C428   C897    1.400   .     S
C428   C903    1.409   .     S
C429   H453    1.080   .     S
C429   C895    1.408   1_554 S
C429   C896    1.400   1_554 S
C430   C431    1.544   .     S
C430   H446    1.109   .     S
C430   H445    1.109   .     S
C431   H444    1.105   .     S
C431   H442    1.103   .     S
C431   H443    1.095   .     S
C432   N457    1.158   .     T
C432   C438    1.443   .     S
C433   N458    1.158   .     T
C434   C438    1.390   .     A
C435   C439    1.398   .     A
C435   C896    1.409   1_554 S
C435   C904    1.417   1_554 S
C436   C437    1.399   .     A
C436   C903    1.417   .     S
C437   C438    1.386   .     A
C437   H449    1.073   .     S
C439   H451    1.077   .     S
C440   C892    1.395   1_554 S
C440   C326    1.522   1_655 S
H441   C109    1.088   1_565 S
H447   N455    1.029   .     S
H448   N456    1.013   .     S
H452   C322    1.078   1_655 S
N455   Zn468   2.038   .     S
N455   N456    1.265   .     D
N456   Zn467   2.038   .     S
O459   Zn467   1.974   .     S
O459   C313    1.289   1_655 S
O460   Zn468   1.986   .     S
O461   Zn467   1.937   .     S
O461   C316    1.319   1_655 S
O462   Zn468   1.969   .     S
O463   Zn467   1.986   .     S
O464   Zn468   1.974   .     S
O465   Zn467   1.969   .     S
O466   Zn468   1.937   .     S
C469   O512    1.294   .     A
C469   C471    1.409   .     S
C469   O615    1.289   1_455 S
C470   C486    1.396   .     A
C470   C472    1.484   .     S
C470   C478    1.402   .     A
C471   C733    1.345   1_455 S
C471   C641    1.458   .     S
C472   O514    1.319   .     A
C472   O617    1.319   1_455 S
C473   C474    1.409   .     S
C473   C835    1.345   1_545 S
C473   H805    1.088   1_545 S
C474   O515    1.299   .     A
C474   O568    1.284   .     S
C475   O517    1.323   .     A
C475   C477    1.477   .     S
C475   O570    1.291   .     S
C476   H502    1.082   .     S
C476   C488    1.389   .     A
C476   C24     1.395   1_556 S
C477   C492    1.431   .     A
C477   C491    1.400   .     A
C478   C479    1.403   .     A
C478   H608    1.078   1_455 S
C479   H506    1.082   .     S
C479   C13     1.408   1_556 S
C480   C486    1.390   .     A
C480   C13     1.400   1_556 S
C480   C19     1.409   1_556 S
C481   H505    1.080   .     S
C482   C483    1.544   .     S
C482   H498    1.109   .     S
C482   H497    1.109   .     S
C482   C596    1.522   1_455 S
C483   H496    1.105   .     S
C483   H494    1.103   .     S
C483   H495    1.095   .     S
C484   N509    1.158   .     T
C484   C490    1.443   .     S
C485   N510    1.158   .     T
C485   C783    1.458   1_545 S
C486   C490    1.390   .     A
C487   C491    1.398   .     A
C488   C489    1.399   .     A
C488   C19     1.417   1_556 S
C489   C490    1.386   .     A
C489   H501    1.073   .     S
C491   H503    1.077   .     S
C492   C534    1.522   .     S
H493   C629    1.088   .     S
H499   N507    1.029   .     S
H500   N508    1.013   .     S
H504   C530    1.078   .     S
N507   Zn520   2.038   .     S
N507   N508    1.265   .     D
N508   Zn519   2.038   .     S
O511   Zn519   1.974   .     S
O511   C521    1.289   .     S
O512   Zn520   1.986   .     S
O513   Zn519   1.937   .     S
O513   C524    1.319   .     S
O514   Zn520   1.969   .     S
O515   Zn519   1.986   .     S
O516   Zn520   1.974   .     S
O516   C578    1.284   1_455 S
O517   Zn519   1.969   .     S
O518   Zn520   1.937   .     S
O518   C579    1.291   1_455 S
C521   O564    1.294   .     A
C521   C523    1.409   .     S
C522   C538    1.396   .     A
C522   C524    1.484   .     S
C522   C530    1.402   .     A
C523   C629    1.345   .     S
C523   C693    1.458   .     S
C524   O566    1.319   .     A
C525   C526    1.409   .     S
C525   C887    1.345   1_545 S
C525   H857    1.088   1_545 S
C526   O567    1.299   .     A
C526   O620    1.284   .     S
C527   O569    1.323   .     A
C527   C529    1.477   .     S
C527   O622    1.291   .     S
C528   H554    1.082   .     S
C528   C540    1.389   .     A
C528   C76     1.395   1_556 S
C529   C544    1.431   .     A
C529   C543    1.400   .     A
C530   C531    1.403   .     A
C531   H558    1.082   .     S
C531   C65     1.408   1_556 S
C532   C538    1.390   .     A
C532   C65     1.400   1_556 S
C532   C71     1.409   1_556 S
C533   H557    1.080   .     S
C534   C535    1.544   .     S
C534   H550    1.109   .     S
C534   H549    1.109   .     S
C535   H548    1.105   .     S
C535   H546    1.103   .     S
C535   H547    1.095   .     S
C536   N561    1.158   .     T
C536   C542    1.443   .     S
C537   N562    1.158   .     T
C537   C835    1.458   1_545 S
C538   C542    1.390   .     A
C539   C543    1.398   .     A
C540   C541    1.399   .     A
C540   C71     1.417   1_556 S
C541   C542    1.386   .     A
C541   H553    1.073   .     S
C543   H555    1.077   .     S
C544   C586    1.522   .     S
H545   C681    1.088   .     S
H551   N559    1.029   .     S
H552   N560    1.013   .     S
H556   C582    1.078   .     S
N559   Zn572   2.038   .     S
N559   N560    1.265   .     D
N560   Zn571   2.038   .     S
O563   Zn571   1.974   .     S
O563   C573    1.289   .     S
O564   Zn572   1.986   .     S
O565   Zn571   1.937   .     S
O565   C576    1.319   .     S
O566   Zn572   1.969   .     S
O567   Zn571   1.986   .     S
O568   Zn572   1.974   .     S
O569   Zn571   1.969   .     S
O570   Zn572   1.937   .     S
C573   O616    1.294   .     A
C573   C575    1.409   .     S
C574   C590    1.396   .     A
C574   C576    1.484   .     S
C574   C582    1.402   .     A
C575   C681    1.345   .     S
C575   C745    1.458   .     S
C576   O618    1.319   .     A
C577   C578    1.409   .     S
C577   C783    1.345   1_645 S
C577   H909    1.088   1_545 S
C578   O619    1.299   .     A
C578   O516    1.284   1_655 S
C579   O621    1.323   .     A
C579   C581    1.477   .     S
C579   O518    1.291   1_655 S
C580   H606    1.082   .     S
C580   C592    1.389   .     A
C580   C128    1.395   1_556 S
C581   C596    1.431   .     A
C581   C595    1.400   .     A
C582   C583    1.403   .     A
C583   H610    1.082   .     S
C583   C117    1.408   1_556 S
C584   C590    1.390   .     A
C584   C117    1.400   1_556 S
C584   C123    1.409   1_556 S
C585   H609    1.080   .     S
C586   C587    1.544   .     S
C586   H602    1.109   .     S
C586   H601    1.109   .     S
C587   H600    1.105   .     S
C587   H598    1.103   .     S
C587   H599    1.095   .     S
C588   N613    1.158   .     T
C588   C594    1.443   .     S
C589   N614    1.158   .     T
C589   C887    1.458   1_545 S
C590   C594    1.390   .     A
C591   C595    1.398   .     A
C592   C593    1.399   .     A
C592   C123    1.417   1_556 S
C593   C594    1.386   .     A
C593   H605    1.073   .     S
C595   H607    1.077   .     S
C596   C482    1.522   1_655 S
H597   C733    1.088   .     S
H603   N611    1.029   .     S
H604   N612    1.013   .     S
H608   C478    1.078   1_655 S
N611   Zn624   2.038   .     S
N611   N612    1.265   .     D
N612   Zn623   2.038   .     S
O615   Zn623   1.974   .     S
O615   C469    1.289   1_655 S
O616   Zn624   1.986   .     S
O617   Zn623   1.937   .     S
O617   C472    1.319   1_655 S
O618   Zn624   1.969   .     S
O619   Zn623   1.986   .     S
O620   Zn624   1.974   .     S
O621   Zn623   1.969   .     S
O622   Zn624   1.937   .     S
C625   O668    1.294   .     A
C625   C627    1.409   .     S
C625   O771    1.289   1_455 S
C626   C642    1.396   .     A
C626   C628    1.484   .     S
C626   C634    1.402   .     A
C627   C889    1.345   1_455 S
C627   C797    1.458   .     S
C628   O670    1.319   .     A
C628   O773    1.319   1_455 S
C629   C630    1.409   .     S
C630   O671    1.299   .     A
C630   O724    1.284   .     S
C631   O673    1.323   .     A
C631   C633    1.477   .     S
C631   O726    1.291   .     S
C632   H658    1.082   .     S
C632   C644    1.389   .     A
C632   C180    1.395   1_556 S
C633   C648    1.431   .     A
C633   C647    1.400   .     A
C634   C635    1.403   .     A
C634   H764    1.078   1_455 S
C635   H662    1.082   .     S
C635   C169    1.408   1_556 S
C636   C642    1.390   .     A
C636   C169    1.400   1_556 S
C636   C175    1.409   1_556 S
C637   H661    1.080   .     S
C638   C639    1.544   .     S
C638   H654    1.109   .     S
C638   H653    1.109   .     S
C638   C752    1.522   1_455 S
C639   H652    1.105   .     S
C639   H650    1.103   .     S
C639   H651    1.095   .     S
C640   N665    1.158   .     T
C640   C646    1.443   .     S
C641   N666    1.158   .     T
C642   C646    1.390   .     A
C643   C647    1.398   .     A
C644   C645    1.399   .     A
C644   C175    1.417   1_556 S
C645   C646    1.386   .     A
C645   H657    1.073   .     S
C647   H659    1.077   .     S
C648   C690    1.522   .     S
H649   C785    1.088   .     S
H655   N663    1.029   .     S
H656   N664    1.013   .     S
H660   C686    1.078   .     S
N663   Zn676   2.038   .     S
N663   N664    1.265   .     D
N664   Zn675   2.038   .     S
O667   Zn675   1.974   .     S
O667   C677    1.289   .     S
O668   Zn676   1.986   .     S
O669   Zn675   1.937   .     S
O669   C680    1.319   .     S
O670   Zn676   1.969   .     S
O671   Zn675   1.986   .     S
O672   Zn676   1.974   .     S
O672   C734    1.284   1_455 S
O673   Zn675   1.969   .     S
O674   Zn676   1.937   .     S
O674   C735    1.291   1_455 S
C677   O720    1.294   .     A
C677   C679    1.409   .     S
C678   C694    1.396   .     A
C678   C680    1.484   .     S
C678   C686    1.402   .     A
C679   C785    1.345   .     S
C679   C849    1.458   .     S
C680   O722    1.319   .     A
C681   C682    1.409   .     S
C682   O723    1.299   .     A
C682   O776    1.284   .     S
C683   O725    1.323   .     A
C683   C685    1.477   .     S
C683   O778    1.291   .     S
C684   H710    1.082   .     S
C684   C696    1.389   .     A
C684   C232    1.395   1_556 S
C685   C700    1.431   .     A
C685   C699    1.400   .     A
C686   C687    1.403   .     A
C687   H714    1.082   .     S
C687   C221    1.408   1_556 S
C688   C694    1.390   .     A
C688   C221    1.400   1_556 S
C688   C227    1.409   1_556 S
C689   H713    1.080   .     S
C690   C691    1.544   .     S
C690   H706    1.109   .     S
C690   H705    1.109   .     S
C691   H704    1.105   .     S
C691   H702    1.103   .     S
C691   H703    1.095   .     S
C692   N717    1.158   .     T
C692   C698    1.443   .     S
C693   N718    1.158   .     T
C694   C698    1.390   .     A
C695   C699    1.398   .     A
C696   C697    1.399   .     A
C696   C227    1.417   1_556 S
C697   C698    1.386   .     A
C697   H709    1.073   .     S
C699   H711    1.077   .     S
C700   C742    1.522   .     S
H701   C837    1.088   .     S
H707   N715    1.029   .     S
H708   N716    1.013   .     S
H712   C738    1.078   .     S
N715   Zn728   2.038   .     S
N715   N716    1.265   .     D
N716   Zn727   2.038   .     S
O719   Zn727   1.974   .     S
O719   C729    1.289   .     S
O720   Zn728   1.986   .     S
O721   Zn727   1.937   .     S
O721   C732    1.319   .     S
O722   Zn728   1.969   .     S
O723   Zn727   1.986   .     S
O724   Zn728   1.974   .     S
O725   Zn727   1.969   .     S
O726   Zn728   1.937   .     S
C729   O772    1.294   .     A
C729   C731    1.409   .     S
C730   C746    1.396   .     A
C730   C732    1.484   .     S
C730   C738    1.402   .     A
C731   C837    1.345   .     S
C731   C901    1.458   .     S
C732   O774    1.319   .     A
C733   C734    1.409   .     S
C733   C471    1.345   1_655 S
C734   O775    1.299   .     A
C734   O672    1.284   1_655 S
C735   O777    1.323   .     A
C735   C737    1.477   .     S
C735   O674    1.291   1_655 S
C736   H762    1.082   .     S
C736   C748    1.389   .     A
C736   C284    1.395   1_556 S
C737   C752    1.431   .     A
C737   C751    1.400   .     A
C738   C739    1.403   .     A
C739   H766    1.082   .     S
C739   C273    1.408   1_556 S
C740   C746    1.390   .     A
C740   C273    1.400   1_556 S
C740   C279    1.409   1_556 S
C741   H765    1.080   .     S
C742   C743    1.544   .     S
C742   H758    1.109   .     S
C742   H757    1.109   .     S
C743   H756    1.105   .     S
C743   H754    1.103   .     S
C743   H755    1.095   .     S
C744   N769    1.158   .     T
C744   C750    1.443   .     S
C745   N770    1.158   .     T
C746   C750    1.390   .     A
C747   C751    1.398   .     A
C748   C749    1.399   .     A
C748   C279    1.417   1_556 S
C749   C750    1.386   .     A
C749   H761    1.073   .     S
C751   H763    1.077   .     S
C752   C638    1.522   1_655 S
H753   C889    1.088   .     S
H759   N767    1.029   .     S
H760   N768    1.013   .     S
H764   C634    1.078   1_655 S
N767   Zn780   2.038   .     S
N767   N768    1.265   .     D
N768   Zn779   2.038   .     S
O771   Zn779   1.974   .     S
O771   C625    1.289   1_655 S
O772   Zn780   1.986   .     S
O773   Zn779   1.937   .     S
O773   C628    1.319   1_655 S
O774   Zn780   1.969   .     S
O775   Zn779   1.986   .     S
O776   Zn780   1.974   .     S
O777   Zn779   1.969   .     S
O778   Zn780   1.937   .     S
C781   O824    1.294   .     A
C781   C783    1.409   .     S
C781   O927    1.289   1_455 S
C782   C798    1.396   .     A
C782   C784    1.484   .     S
C782   C790    1.402   .     A
C783   C577    1.345   1_465 S
C783   C485    1.458   1_565 S
C784   O826    1.319   .     A
C784   O929    1.319   1_455 S
C785   C786    1.409   .     S
C786   O827    1.299   .     A
C786   O880    1.284   .     S
C787   O829    1.323   .     A
C787   C789    1.477   .     S
C787   O882    1.291   .     S
C788   H814    1.082   .     S
C788   C800    1.389   .     A
C788   C336    1.395   1_556 S
C789   C804    1.431   .     A
C789   C803    1.400   .     A
C790   C791    1.403   .     A
C790   H920    1.078   1_455 S
C791   H818    1.082   .     S
C791   C325    1.408   1_556 S
C792   C798    1.390   .     A
C792   C325    1.400   1_556 S
C792   C331    1.409   1_556 S
C793   H817    1.080   .     S
C794   C795    1.544   .     S
C794   H810    1.109   .     S
C794   H809    1.109   .     S
C794   C908    1.522   1_455 S
C795   H808    1.105   .     S
C795   H806    1.103   .     S
C795   H807    1.095   .     S
C796   N821    1.158   .     T
C796   C802    1.443   .     S
C797   N822    1.158   .     T
C798   C802    1.390   .     A
C799   C803    1.398   .     A
C800   C801    1.399   .     A
C800   C331    1.417   1_556 S
C801   C802    1.386   .     A
C801   H813    1.073   .     S
C803   H815    1.077   .     S
C804   C846    1.522   .     S
H805   C473    1.088   1_565 S
H811   N819    1.029   .     S
H812   N820    1.013   .     S
H816   C842    1.078   .     S
N819   Zn832   2.038   .     S
N819   N820    1.265   .     D
N820   Zn831   2.038   .     S
O823   Zn831   1.974   .     S
O823   C833    1.289   .     S
O824   Zn832   1.986   .     S
O825   Zn831   1.937   .     S
O825   C836    1.319   .     S
O826   Zn832   1.969   .     S
O827   Zn831   1.986   .     S
O828   Zn832   1.974   .     S
O828   C890    1.284   1_455 S
O829   Zn831   1.969   .     S
O830   Zn832   1.937   .     S
O830   C891    1.291   1_455 S
C833   O876    1.294   .     A
C833   C835    1.409   .     S
C834   C850    1.396   .     A
C834   C836    1.484   .     S
C834   C842    1.402   .     A
C835   C473    1.345   1_565 S
C835   C537    1.458   1_565 S
C836   O878    1.319   .     A
C837   C838    1.409   .     S
C838   O879    1.299   .     A
C838   O932    1.284   .     S
C839   O881    1.323   .     A
C839   C841    1.477   .     S
C839   O934    1.291   .     S
C840   H866    1.082   .     S
C840   C852    1.389   .     A
C840   C388    1.395   1_556 S
C841   C856    1.431   .     A
C841   C855    1.400   .     A
C842   C843    1.403   .     A
C843   H870    1.082   .     S
C843   C377    1.408   1_556 S
C844   C850    1.390   .     A
C844   C377    1.400   1_556 S
C844   C383    1.409   1_556 S
C845   H869    1.080   .     S
C846   C847    1.544   .     S
C846   H862    1.109   .     S
C846   H861    1.109   .     S
C847   H860    1.105   .     S
C847   H858    1.103   .     S
C847   H859    1.095   .     S
C848   N873    1.158   .     T
C848   C854    1.443   .     S
C849   N874    1.158   .     T
C850   C854    1.390   .     A
C851   C855    1.398   .     A
C852   C853    1.399   .     A
C852   C383    1.417   1_556 S
C853   C854    1.386   .     A
C853   H865    1.073   .     S
C855   H867    1.077   .     S
C856   C898    1.522   .     S
H857   C525    1.088   1_565 S
H863   N871    1.029   .     S
H864   N872    1.013   .     S
H868   C894    1.078   .     S
N871   Zn884   2.038   .     S
N871   N872    1.265   .     D
N872   Zn883   2.038   .     S
O875   Zn883   1.974   .     S
O875   C885    1.289   .     S
O876   Zn884   1.986   .     S
O877   Zn883   1.937   .     S
O877   C888    1.319   .     S
O878   Zn884   1.969   .     S
O879   Zn883   1.986   .     S
O880   Zn884   1.974   .     S
O881   Zn883   1.969   .     S
O882   Zn884   1.937   .     S
C885   O928    1.294   .     A
C885   C887    1.409   .     S
C886   C902    1.396   .     A
C886   C888    1.484   .     S
C886   C894    1.402   .     A
C887   C525    1.345   1_565 S
C887   C589    1.458   1_565 S
C888   O930    1.319   .     A
C889   C890    1.409   .     S
C889   C627    1.345   1_655 S
C890   O931    1.299   .     A
C890   O828    1.284   1_655 S
C891   O933    1.323   .     A
C891   C893    1.477   .     S
C891   O830    1.291   1_655 S
C892   H918    1.082   .     S
C892   C904    1.389   .     A
C892   C440    1.395   1_556 S
C893   C908    1.431   .     A
C893   C907    1.400   .     A
C894   C895    1.403   .     A
C895   H922    1.082   .     S
C895   C429    1.408   1_556 S
C896   C902    1.390   .     A
C896   C429    1.400   1_556 S
C896   C435    1.409   1_556 S
C897   H921    1.080   .     S
C898   C899    1.544   .     S
C898   H914    1.109   .     S
C898   H913    1.109   .     S
C899   H912    1.105   .     S
C899   H910    1.103   .     S
C899   H911    1.095   .     S
C900   N925    1.158   .     T
C900   C906    1.443   .     S
C901   N926    1.158   .     T
C902   C906    1.390   .     A
C903   C907    1.398   .     A
C904   C905    1.399   .     A
C904   C435    1.417   1_556 S
C905   C906    1.386   .     A
C905   H917    1.073   .     S
C907   H919    1.077   .     S
C908   C794    1.522   1_655 S
H909   C577    1.088   1_565 S
H915   N923    1.029   .     S
H916   N924    1.013   .     S
H920   C790    1.078   1_655 S
N923   Zn936   2.038   .     S
N923   N924    1.265   .     D
N924   Zn935   2.038   .     S
O927   Zn935   1.974   .     S
O927   C781    1.289   1_655 S
O928   Zn936   1.986   .     S
O929   Zn935   1.937   .     S
O929   C784    1.319   1_655 S
O930   Zn936   1.969   .     S
O931   Zn935   1.986   .     S
O932   Zn936   1.974   .     S
O933   Zn935   1.969   .     S
O934   Zn936   1.937   .     S
