data_str_m3_o1_o18_pcu_sym.113
_audit_creation_date              2020-01-03
_audit_creation_method            'Materials Studio'
_symmetry_space_group_name_H-M    'P1'
_symmetry_Int_Tables_number       1
_symmetry_cell_setting            triclinic
loop_
_symmetry_equiv_pos_as_xyz
  x,y,z
_cell_length_a                    29.4874
_cell_length_b                    32.0730
_cell_length_c                    30.8384
_cell_angle_alpha                 90.0198
_cell_angle_beta                  66.8474
_cell_angle_gamma                 89.3684
loop_
_atom_site_label
_atom_site_type_symbol
_atom_site_fract_x
_atom_site_fract_y
_atom_site_fract_z
_atom_site_U_iso_or_equiv
_atom_site_adp_type
_atom_site_occupancy
C1     C     0.16657   0.24667   0.24960   0.00000  Uiso   1.00
C2     C     0.16670   0.08666   0.25053   0.00000  Uiso   1.00
C3     C     0.10654   0.16217   0.05604   0.00000  Uiso   1.00
C4     C     0.20373   0.21696   0.45836   0.00000  Uiso   1.00
C5     C     0.07289   0.15282   0.03641   0.00000  Uiso   1.00
C6     C     0.23754   0.22573   0.47814   0.00000  Uiso   1.00
C7     C     0.19182   0.31100   0.27288   0.00000  Uiso   1.00
C8     C     0.14098   0.02227   0.22790   0.00000  Uiso   1.00
C9     C     0.19347   0.02073   0.27293   0.00000  Uiso   1.00
C10    C     0.13937   0.31268   0.22793   0.00000  Uiso   1.00
C11    C     0.16702   0.04251   0.25081   0.00000  Uiso   1.00
C12    C     0.16597   0.29080   0.24977   0.00000  Uiso   1.00
C13    C     0.32155   0.14103   0.21954   0.00000  Uiso   1.00
C14    C     0.01152   0.19170   0.28089   0.00000  Uiso   1.00
C15    C     0.03691   0.14171   0.21953   0.00000  Uiso   1.00
C16    C     0.29670   0.19206   0.27997   0.00000  Uiso   1.00
C17    C     0.13547   0.16587   0.33848   0.00000  Uiso   1.00
C18    C     0.19774   0.16816   0.16160   0.00000  Uiso   1.00
C19    C     0.11435   0.16526   0.39024   0.00000  Uiso   1.00
C20    C     0.21711   0.17667   0.11084   0.00000  Uiso   1.00
C21    C     0.05367   0.14392   0.46665   0.00000  Uiso   1.00
C22    C     0.26710   0.21672   0.04173   0.00000  Uiso   1.00
C23    C     0.06872   0.14671   0.41741   0.00000  Uiso   1.00
C24    C     0.25863   0.20178   0.08725   0.00000  Uiso   1.00
C25    C     0.14317   0.18190   0.41229   0.00000  Uiso   1.00
C26    C     0.18639   0.16568   0.08836   0.00000  Uiso   1.00
C27    C     0.12974   0.17877   0.46088   0.00000  Uiso   1.00
C28    C     0.19013   0.18453   0.04645   0.00000  Uiso   1.00
C29    C     0.08483   0.15874   0.48825   0.00000  Uiso   1.00
C30    C     0.23212   0.20899   0.02176   0.00000  Uiso   1.00
C31    C     0.16222   0.19186   0.48207   0.00000  Uiso   1.00
C32    C     0.15306   0.17902   0.02850   0.00000  Uiso   1.00
H33    H     0.03829   0.13941   0.05932   0.00000  Uiso   1.00
H34    H     0.26797   0.24569   0.45856   0.00000  Uiso   1.00
H35    H     0.15795   0.14326   0.10562   0.00000  Uiso   1.00
H36    H     0.17811   0.19490   0.39002   0.00000  Uiso   1.00
H37    H     0.09460   0.15683   0.09342   0.00000  Uiso   1.00
H38    H     0.21010   0.23173   0.42511   0.00000  Uiso   1.00
H39    H     0.20981   0.29320   0.29159   0.00000  Uiso   1.00
H40    H     0.12274   0.03983   0.20922   0.00000  Uiso   1.00
H41    H     0.06659   0.12283   0.19526   0.00000  Uiso   1.00
H42    H     0.26806   0.21278   0.30269   0.00000  Uiso   1.00
N43    N     0.04759   0.16668   0.25001   0.00000  Uiso   1.00
N44    N     0.28574   0.16666   0.24999   0.00000  Uiso   1.00
O45    O     0.12846   0.22775   0.25001   0.00000  Uiso   1.00
O46    O     0.20488   0.10558   0.25000   0.00000  Uiso   1.00
O47    O     0.20490   0.22774   0.25000   0.00000  Uiso   1.00
O48    O     0.12843   0.10559   0.25000   0.00000  Uiso   1.00
O49    O     0.10661   0.16667   0.31613   0.00000  Uiso   1.00
O50    O     0.22672   0.16666   0.18388   0.00000  Uiso   1.00
O51    O     0.18305   0.16666   0.31612   0.00000  Uiso   1.00
O52    O     0.15028   0.16667   0.18388   0.00000  Uiso   1.00
Zn53   Zn    0.11562   0.16667   0.25000   0.00000  Uiso   1.00
Zn54   Zn    0.21771   0.16666   0.25000   0.00000  Uiso   1.00
Br55   Br    0.30248   0.21806   0.11700   0.00000  Uiso   1.00
Br56   Br    0.02865   0.12137   0.38804   0.00000  Uiso   1.00
Br57   Br    0.32546   0.11684   0.00332   0.00000  Uiso   1.00
Br58   Br    0.32558   0.24882   0.00818   0.00000  Uiso   1.00
O59    O     0.21616   0.04217   0.29801   0.00000  Uiso   1.00
C60    C     0.26523   0.02793   0.28562   0.00000  Uiso   1.00
H61    H     0.28644   0.05312   0.29342   0.00000  Uiso   1.00
H62    H     0.28419   0.02030   0.24736   0.00000  Uiso   1.00
H63    H     0.26617   0.00055   0.30730   0.00000  Uiso   1.00
O64    O     0.11642   0.29185   0.20282   0.00000  Uiso   1.00
C65    C     0.06507   0.29963   0.22373   0.00000  Uiso   1.00
H66    H     0.04984   0.29530   0.26270   0.00000  Uiso   1.00
H67    H     0.04651   0.27694   0.20920   0.00000  Uiso   1.00
H68    H     0.05592   0.33136   0.21495   0.00000  Uiso   1.00
O69    O     0.30837   0.11711   0.18861   0.00000  Uiso   1.00
C70    C     0.00803   0.08387   0.16728   0.00000  Uiso   1.00
H71    H     0.01645   0.06515   0.19362   0.00000  Uiso   1.00
H72    H     0.04222   0.09559   0.13904   0.00000  Uiso   1.00
H73    H     0.32364   0.06271   0.15030   0.00000  Uiso   1.00
O74    O     0.02490   0.21801   0.30959   0.00000  Uiso   1.00
C75    C     0.31979   0.22433   0.35422   0.00000  Uiso   1.00
H76    H     0.29943   0.19516   0.36898   0.00000  Uiso   1.00
H77    H     0.29427   0.24938   0.35245   0.00000  Uiso   1.00
H78    H     0.00293   0.23499   0.37897   0.00000  Uiso   1.00
C79    C     0.49990   0.24667   0.24960   0.00000  Uiso   1.00
C80    C     0.50003   0.08666   0.25053   0.00000  Uiso   1.00
C81    C     0.43988   0.16217   0.05604   0.00000  Uiso   1.00
C82    C     0.53706   0.21696   0.45836   0.00000  Uiso   1.00
C83    C     0.40622   0.15282   0.03641   0.00000  Uiso   1.00
C84    C     0.57087   0.22573   0.47814   0.00000  Uiso   1.00
C85    C     0.52516   0.31100   0.27288   0.00000  Uiso   1.00
C86    C     0.47431   0.02227   0.22790   0.00000  Uiso   1.00
C87    C     0.52680   0.02073   0.27293   0.00000  Uiso   1.00
C88    C     0.47270   0.31268   0.22793   0.00000  Uiso   1.00
C89    C     0.50035   0.04251   0.25081   0.00000  Uiso   1.00
C90    C     0.49931   0.29080   0.24977   0.00000  Uiso   1.00
C91    C     0.65488   0.14103   0.21954   0.00000  Uiso   1.00
C92    C     0.34485   0.19170   0.28089   0.00000  Uiso   1.00
C93    C     0.37024   0.14171   0.21953   0.00000  Uiso   1.00
C94    C     0.63003   0.19206   0.27997   0.00000  Uiso   1.00
C95    C     0.46880   0.16587   0.33848   0.00000  Uiso   1.00
C96    C     0.53108   0.16816   0.16160   0.00000  Uiso   1.00
C97    C     0.44768   0.16526   0.39024   0.00000  Uiso   1.00
C98    C     0.55045   0.17667   0.11084   0.00000  Uiso   1.00
C99    C     0.38700   0.14392   0.46665   0.00000  Uiso   1.00
C100   C     0.60043   0.21672   0.04173   0.00000  Uiso   1.00
C101   C     0.40206   0.14671   0.41741   0.00000  Uiso   1.00
C102   C     0.59197   0.20178   0.08725   0.00000  Uiso   1.00
C103   C     0.47650   0.18190   0.41229   0.00000  Uiso   1.00
C104   C     0.51972   0.16568   0.08836   0.00000  Uiso   1.00
C105   C     0.46307   0.17877   0.46088   0.00000  Uiso   1.00
C106   C     0.52346   0.18453   0.04645   0.00000  Uiso   1.00
C107   C     0.41816   0.15874   0.48825   0.00000  Uiso   1.00
C108   C     0.56545   0.20899   0.02176   0.00000  Uiso   1.00
C109   C     0.49555   0.19186   0.48207   0.00000  Uiso   1.00
C110   C     0.48640   0.17902   0.02850   0.00000  Uiso   1.00
H111   H     0.37162   0.13941   0.05932   0.00000  Uiso   1.00
H112   H     0.60130   0.24569   0.45856   0.00000  Uiso   1.00
H113   H     0.49128   0.14326   0.10562   0.00000  Uiso   1.00
H114   H     0.51144   0.19490   0.39002   0.00000  Uiso   1.00
H115   H     0.42794   0.15683   0.09342   0.00000  Uiso   1.00
H116   H     0.54344   0.23173   0.42511   0.00000  Uiso   1.00
H117   H     0.54315   0.29320   0.29159   0.00000  Uiso   1.00
H118   H     0.45608   0.03983   0.20922   0.00000  Uiso   1.00
H119   H     0.39992   0.12283   0.19526   0.00000  Uiso   1.00
H120   H     0.60139   0.21278   0.30269   0.00000  Uiso   1.00
N121   N     0.38093   0.16668   0.25001   0.00000  Uiso   1.00
N122   N     0.61907   0.16666   0.24999   0.00000  Uiso   1.00
O123   O     0.46179   0.22775   0.25001   0.00000  Uiso   1.00
O124   O     0.53821   0.10558   0.25000   0.00000  Uiso   1.00
O125   O     0.53823   0.22774   0.25000   0.00000  Uiso   1.00
O126   O     0.46177   0.10559   0.25000   0.00000  Uiso   1.00
O127   O     0.43994   0.16667   0.31613   0.00000  Uiso   1.00
O128   O     0.56006   0.16666   0.18388   0.00000  Uiso   1.00
O129   O     0.51639   0.16666   0.31612   0.00000  Uiso   1.00
O130   O     0.48361   0.16667   0.18388   0.00000  Uiso   1.00
Zn131  Zn    0.44896   0.16667   0.25000   0.00000  Uiso   1.00
Zn132  Zn    0.55104   0.16666   0.25000   0.00000  Uiso   1.00
Br133  Br    0.63581   0.21806   0.11700   0.00000  Uiso   1.00
Br134  Br    0.36198   0.12137   0.38804   0.00000  Uiso   1.00
Br135  Br    0.65880   0.11684   0.00332   0.00000  Uiso   1.00
Br136  Br    0.65892   0.24882   0.00818   0.00000  Uiso   1.00
O137   O     0.54950   0.04217   0.29801   0.00000  Uiso   1.00
C138   C     0.59856   0.02793   0.28562   0.00000  Uiso   1.00
H139   H     0.61977   0.05312   0.29342   0.00000  Uiso   1.00
H140   H     0.61752   0.02030   0.24736   0.00000  Uiso   1.00
H141   H     0.59950   0.00055   0.30730   0.00000  Uiso   1.00
O142   O     0.44976   0.29185   0.20282   0.00000  Uiso   1.00
C143   C     0.39840   0.29963   0.22373   0.00000  Uiso   1.00
H144   H     0.38317   0.29530   0.26270   0.00000  Uiso   1.00
H145   H     0.37985   0.27694   0.20920   0.00000  Uiso   1.00
H146   H     0.38925   0.33136   0.21495   0.00000  Uiso   1.00
O147   O     0.64170   0.11711   0.18861   0.00000  Uiso   1.00
C148   C     0.34136   0.08387   0.16728   0.00000  Uiso   1.00
H149   H     0.34979   0.06515   0.19362   0.00000  Uiso   1.00
H150   H     0.37555   0.09559   0.13904   0.00000  Uiso   1.00
H151   H     0.65697   0.06271   0.15030   0.00000  Uiso   1.00
O152   O     0.35824   0.21801   0.30959   0.00000  Uiso   1.00
C153   C     0.65313   0.22433   0.35422   0.00000  Uiso   1.00
H154   H     0.63277   0.19516   0.36898   0.00000  Uiso   1.00
H155   H     0.62761   0.24938   0.35245   0.00000  Uiso   1.00
H156   H     0.33627   0.23499   0.37897   0.00000  Uiso   1.00
C157   C     0.83324   0.24667   0.24960   0.00000  Uiso   1.00
C158   C     0.83336   0.08666   0.25053   0.00000  Uiso   1.00
C159   C     0.77321   0.16217   0.05604   0.00000  Uiso   1.00
C160   C     0.87040   0.21696   0.45836   0.00000  Uiso   1.00
C161   C     0.73956   0.15282   0.03641   0.00000  Uiso   1.00
C162   C     0.90420   0.22573   0.47814   0.00000  Uiso   1.00
C163   C     0.85849   0.31100   0.27288   0.00000  Uiso   1.00
C164   C     0.80765   0.02227   0.22790   0.00000  Uiso   1.00
C165   C     0.86013   0.02073   0.27293   0.00000  Uiso   1.00
C166   C     0.80603   0.31268   0.22793   0.00000  Uiso   1.00
C167   C     0.83368   0.04251   0.25081   0.00000  Uiso   1.00
C168   C     0.83264   0.29080   0.24977   0.00000  Uiso   1.00
C169   C     0.98821   0.14103   0.21954   0.00000  Uiso   1.00
C170   C     0.67818   0.19170   0.28089   0.00000  Uiso   1.00
C171   C     0.70357   0.14171   0.21953   0.00000  Uiso   1.00
C172   C     0.96336   0.19206   0.27997   0.00000  Uiso   1.00
C173   C     0.80213   0.16587   0.33848   0.00000  Uiso   1.00
C174   C     0.86441   0.16816   0.16160   0.00000  Uiso   1.00
C175   C     0.78101   0.16526   0.39024   0.00000  Uiso   1.00
C176   C     0.88378   0.17667   0.11084   0.00000  Uiso   1.00
C177   C     0.72033   0.14392   0.46665   0.00000  Uiso   1.00
C178   C     0.93376   0.21672   0.04173   0.00000  Uiso   1.00
C179   C     0.73539   0.14671   0.41741   0.00000  Uiso   1.00
C180   C     0.92530   0.20178   0.08725   0.00000  Uiso   1.00
C181   C     0.80983   0.18190   0.41229   0.00000  Uiso   1.00
C182   C     0.85305   0.16568   0.08836   0.00000  Uiso   1.00
C183   C     0.79641   0.17877   0.46088   0.00000  Uiso   1.00
C184   C     0.85680   0.18453   0.04645   0.00000  Uiso   1.00
C185   C     0.75150   0.15874   0.48825   0.00000  Uiso   1.00
C186   C     0.89879   0.20899   0.02176   0.00000  Uiso   1.00
C187   C     0.82888   0.19186   0.48207   0.00000  Uiso   1.00
C188   C     0.81973   0.17902   0.02850   0.00000  Uiso   1.00
H189   H     0.70496   0.13941   0.05932   0.00000  Uiso   1.00
H190   H     0.93464   0.24569   0.45856   0.00000  Uiso   1.00
H191   H     0.82462   0.14326   0.10562   0.00000  Uiso   1.00
H192   H     0.84477   0.19490   0.39002   0.00000  Uiso   1.00
H193   H     0.76127   0.15683   0.09342   0.00000  Uiso   1.00
H194   H     0.87677   0.23173   0.42511   0.00000  Uiso   1.00
H195   H     0.87648   0.29320   0.29159   0.00000  Uiso   1.00
H196   H     0.78941   0.03983   0.20922   0.00000  Uiso   1.00
H197   H     0.73325   0.12283   0.19526   0.00000  Uiso   1.00
H198   H     0.93473   0.21278   0.30269   0.00000  Uiso   1.00
N199   N     0.71426   0.16668   0.25001   0.00000  Uiso   1.00
N200   N     0.95241   0.16666   0.24999   0.00000  Uiso   1.00
O201   O     0.79512   0.22775   0.25001   0.00000  Uiso   1.00
O202   O     0.87154   0.10558   0.25000   0.00000  Uiso   1.00
O203   O     0.87157   0.22774   0.25000   0.00000  Uiso   1.00
O204   O     0.79510   0.10559   0.25000   0.00000  Uiso   1.00
O205   O     0.77328   0.16667   0.31613   0.00000  Uiso   1.00
O206   O     0.89339   0.16666   0.18388   0.00000  Uiso   1.00
O207   O     0.84972   0.16666   0.31612   0.00000  Uiso   1.00
O208   O     0.81695   0.16667   0.18388   0.00000  Uiso   1.00
Zn209  Zn    0.78229   0.16667   0.25000   0.00000  Uiso   1.00
Zn210  Zn    0.88438   0.16666   0.25000   0.00000  Uiso   1.00
Br211  Br    0.96915   0.21806   0.11700   0.00000  Uiso   1.00
Br212  Br    0.69531   0.12137   0.38804   0.00000  Uiso   1.00
Br213  Br    0.99213   0.11684   0.00332   0.00000  Uiso   1.00
Br214  Br    0.99225   0.24882   0.00818   0.00000  Uiso   1.00
O215   O     0.88283   0.04217   0.29801   0.00000  Uiso   1.00
C216   C     0.93189   0.02793   0.28562   0.00000  Uiso   1.00
H217   H     0.95310   0.05312   0.29342   0.00000  Uiso   1.00
H218   H     0.95085   0.02030   0.24736   0.00000  Uiso   1.00
H219   H     0.93284   0.00055   0.30730   0.00000  Uiso   1.00
O220   O     0.78309   0.29185   0.20282   0.00000  Uiso   1.00
C221   C     0.73174   0.29963   0.22373   0.00000  Uiso   1.00
H222   H     0.71650   0.29530   0.26270   0.00000  Uiso   1.00
H223   H     0.71318   0.27694   0.20920   0.00000  Uiso   1.00
H224   H     0.72259   0.33136   0.21495   0.00000  Uiso   1.00
O225   O     0.97504   0.11711   0.18861   0.00000  Uiso   1.00
C226   C     0.67469   0.08387   0.16728   0.00000  Uiso   1.00
H227   H     0.68312   0.06515   0.19362   0.00000  Uiso   1.00
H228   H     0.70889   0.09559   0.13904   0.00000  Uiso   1.00
H229   H     0.99030   0.06271   0.15030   0.00000  Uiso   1.00
O230   O     0.69157   0.21801   0.30959   0.00000  Uiso   1.00
C231   C     0.98646   0.22433   0.35422   0.00000  Uiso   1.00
H232   H     0.96610   0.19516   0.36898   0.00000  Uiso   1.00
H233   H     0.96094   0.24938   0.35245   0.00000  Uiso   1.00
H234   H     0.66960   0.23499   0.37897   0.00000  Uiso   1.00
C235   C     0.16657   0.58000   0.24960   0.00000  Uiso   1.00
C236   C     0.16670   0.41999   0.25053   0.00000  Uiso   1.00
C237   C     0.10654   0.49550   0.05604   0.00000  Uiso   1.00
C238   C     0.20373   0.55029   0.45836   0.00000  Uiso   1.00
C239   C     0.07289   0.48616   0.03641   0.00000  Uiso   1.00
C240   C     0.23754   0.55906   0.47814   0.00000  Uiso   1.00
C241   C     0.19182   0.64433   0.27288   0.00000  Uiso   1.00
C242   C     0.14098   0.35561   0.22790   0.00000  Uiso   1.00
C243   C     0.19347   0.35406   0.27293   0.00000  Uiso   1.00
C244   C     0.13937   0.64601   0.22793   0.00000  Uiso   1.00
C245   C     0.16702   0.37584   0.25081   0.00000  Uiso   1.00
C246   C     0.16597   0.62413   0.24977   0.00000  Uiso   1.00
C247   C     0.32155   0.47437   0.21954   0.00000  Uiso   1.00
C248   C     0.01152   0.52503   0.28089   0.00000  Uiso   1.00
C249   C     0.03691   0.47505   0.21953   0.00000  Uiso   1.00
C250   C     0.29670   0.52539   0.27997   0.00000  Uiso   1.00
C251   C     0.13547   0.49921   0.33848   0.00000  Uiso   1.00
C252   C     0.19774   0.50149   0.16160   0.00000  Uiso   1.00
C253   C     0.11435   0.49859   0.39024   0.00000  Uiso   1.00
C254   C     0.21711   0.51000   0.11084   0.00000  Uiso   1.00
C255   C     0.05367   0.47725   0.46665   0.00000  Uiso   1.00
C256   C     0.26710   0.55005   0.04173   0.00000  Uiso   1.00
C257   C     0.06872   0.48004   0.41741   0.00000  Uiso   1.00
C258   C     0.25863   0.53511   0.08725   0.00000  Uiso   1.00
C259   C     0.14317   0.51524   0.41229   0.00000  Uiso   1.00
C260   C     0.18639   0.49902   0.08836   0.00000  Uiso   1.00
C261   C     0.12974   0.51210   0.46088   0.00000  Uiso   1.00
C262   C     0.19013   0.51787   0.04645   0.00000  Uiso   1.00
C263   C     0.08483   0.49208   0.48825   0.00000  Uiso   1.00
C264   C     0.23212   0.54233   0.02176   0.00000  Uiso   1.00
C265   C     0.16222   0.52519   0.48207   0.00000  Uiso   1.00
C266   C     0.15306   0.51236   0.02850   0.00000  Uiso   1.00
H267   H     0.03829   0.47275   0.05932   0.00000  Uiso   1.00
H268   H     0.26797   0.57902   0.45856   0.00000  Uiso   1.00
H269   H     0.15795   0.47659   0.10562   0.00000  Uiso   1.00
H270   H     0.17811   0.52824   0.39002   0.00000  Uiso   1.00
H271   H     0.09460   0.49016   0.09342   0.00000  Uiso   1.00
H272   H     0.21010   0.56506   0.42511   0.00000  Uiso   1.00
H273   H     0.20981   0.62653   0.29159   0.00000  Uiso   1.00
H274   H     0.12274   0.37316   0.20922   0.00000  Uiso   1.00
H275   H     0.06659   0.45616   0.19526   0.00000  Uiso   1.00
H276   H     0.26806   0.54611   0.30269   0.00000  Uiso   1.00
N277   N     0.04759   0.50001   0.25001   0.00000  Uiso   1.00
N278   N     0.28574   0.49999   0.24999   0.00000  Uiso   1.00
O279   O     0.12846   0.56108   0.25001   0.00000  Uiso   1.00
O280   O     0.20488   0.43892   0.25000   0.00000  Uiso   1.00
O281   O     0.20490   0.56107   0.25000   0.00000  Uiso   1.00
O282   O     0.12843   0.43893   0.25000   0.00000  Uiso   1.00
O283   O     0.10661   0.50001   0.31613   0.00000  Uiso   1.00
O284   O     0.22672   0.49999   0.18388   0.00000  Uiso   1.00
O285   O     0.18305   0.50000   0.31612   0.00000  Uiso   1.00
O286   O     0.15028   0.50000   0.18388   0.00000  Uiso   1.00
Zn287  Zn    0.11562   0.50001   0.25000   0.00000  Uiso   1.00
Zn288  Zn    0.21771   0.49999   0.25000   0.00000  Uiso   1.00
Br289  Br    0.30248   0.55139   0.11700   0.00000  Uiso   1.00
Br290  Br    0.02865   0.45470   0.38804   0.00000  Uiso   1.00
Br291  Br    0.32546   0.45017   0.00332   0.00000  Uiso   1.00
Br292  Br    0.32558   0.58215   0.00818   0.00000  Uiso   1.00
O293   O     0.21616   0.37550   0.29801   0.00000  Uiso   1.00
C294   C     0.26523   0.36126   0.28562   0.00000  Uiso   1.00
H295   H     0.28644   0.38646   0.29342   0.00000  Uiso   1.00
H296   H     0.28419   0.35364   0.24736   0.00000  Uiso   1.00
H297   H     0.26617   0.33388   0.30730   0.00000  Uiso   1.00
O298   O     0.11642   0.62519   0.20282   0.00000  Uiso   1.00
C299   C     0.06507   0.63296   0.22373   0.00000  Uiso   1.00
H300   H     0.04984   0.62863   0.26270   0.00000  Uiso   1.00
H301   H     0.04651   0.61027   0.20920   0.00000  Uiso   1.00
H302   H     0.05592   0.66469   0.21495   0.00000  Uiso   1.00
O303   O     0.30837   0.45044   0.18861   0.00000  Uiso   1.00
C304   C     0.00803   0.41720   0.16728   0.00000  Uiso   1.00
H305   H     0.01645   0.39848   0.19362   0.00000  Uiso   1.00
H306   H     0.04222   0.42892   0.13904   0.00000  Uiso   1.00
H307   H     0.32364   0.39604   0.15030   0.00000  Uiso   1.00
O308   O     0.02490   0.55134   0.30959   0.00000  Uiso   1.00
C309   C     0.31979   0.55767   0.35422   0.00000  Uiso   1.00
H310   H     0.29943   0.52849   0.36898   0.00000  Uiso   1.00
H311   H     0.29427   0.58272   0.35245   0.00000  Uiso   1.00
H312   H     0.00293   0.56833   0.37897   0.00000  Uiso   1.00
C313   C     0.49990   0.58000   0.24960   0.00000  Uiso   1.00
C314   C     0.50003   0.41999   0.25053   0.00000  Uiso   1.00
C315   C     0.43988   0.49550   0.05604   0.00000  Uiso   1.00
C316   C     0.53706   0.55029   0.45836   0.00000  Uiso   1.00
C317   C     0.40622   0.48616   0.03641   0.00000  Uiso   1.00
C318   C     0.57087   0.55906   0.47814   0.00000  Uiso   1.00
C319   C     0.52516   0.64433   0.27288   0.00000  Uiso   1.00
C320   C     0.47431   0.35561   0.22790   0.00000  Uiso   1.00
C321   C     0.52680   0.35406   0.27293   0.00000  Uiso   1.00
C322   C     0.47270   0.64601   0.22793   0.00000  Uiso   1.00
C323   C     0.50035   0.37584   0.25081   0.00000  Uiso   1.00
C324   C     0.49931   0.62413   0.24977   0.00000  Uiso   1.00
C325   C     0.65488   0.47437   0.21954   0.00000  Uiso   1.00
C326   C     0.34485   0.52503   0.28089   0.00000  Uiso   1.00
C327   C     0.37024   0.47505   0.21953   0.00000  Uiso   1.00
C328   C     0.63003   0.52539   0.27997   0.00000  Uiso   1.00
C329   C     0.46880   0.49921   0.33848   0.00000  Uiso   1.00
C330   C     0.53108   0.50149   0.16160   0.00000  Uiso   1.00
C331   C     0.44768   0.49859   0.39024   0.00000  Uiso   1.00
C332   C     0.55045   0.51000   0.11084   0.00000  Uiso   1.00
C333   C     0.38700   0.47725   0.46665   0.00000  Uiso   1.00
C334   C     0.60043   0.55005   0.04173   0.00000  Uiso   1.00
C335   C     0.40206   0.48004   0.41741   0.00000  Uiso   1.00
C336   C     0.59197   0.53511   0.08725   0.00000  Uiso   1.00
C337   C     0.47650   0.51524   0.41229   0.00000  Uiso   1.00
C338   C     0.51972   0.49902   0.08836   0.00000  Uiso   1.00
C339   C     0.46307   0.51210   0.46088   0.00000  Uiso   1.00
C340   C     0.52346   0.51787   0.04645   0.00000  Uiso   1.00
C341   C     0.41816   0.49208   0.48825   0.00000  Uiso   1.00
C342   C     0.56545   0.54233   0.02176   0.00000  Uiso   1.00
C343   C     0.49555   0.52519   0.48207   0.00000  Uiso   1.00
C344   C     0.48640   0.51236   0.02850   0.00000  Uiso   1.00
H345   H     0.37162   0.47275   0.05932   0.00000  Uiso   1.00
H346   H     0.60130   0.57902   0.45856   0.00000  Uiso   1.00
H347   H     0.49128   0.47659   0.10562   0.00000  Uiso   1.00
H348   H     0.51144   0.52824   0.39002   0.00000  Uiso   1.00
H349   H     0.42794   0.49016   0.09342   0.00000  Uiso   1.00
H350   H     0.54344   0.56506   0.42511   0.00000  Uiso   1.00
H351   H     0.54315   0.62653   0.29159   0.00000  Uiso   1.00
H352   H     0.45608   0.37316   0.20922   0.00000  Uiso   1.00
H353   H     0.39992   0.45616   0.19526   0.00000  Uiso   1.00
H354   H     0.60139   0.54611   0.30269   0.00000  Uiso   1.00
N355   N     0.38093   0.50001   0.25001   0.00000  Uiso   1.00
N356   N     0.61907   0.49999   0.24999   0.00000  Uiso   1.00
O357   O     0.46179   0.56108   0.25001   0.00000  Uiso   1.00
O358   O     0.53821   0.43892   0.25000   0.00000  Uiso   1.00
O359   O     0.53823   0.56107   0.25000   0.00000  Uiso   1.00
O360   O     0.46177   0.43893   0.25000   0.00000  Uiso   1.00
O361   O     0.43994   0.50001   0.31613   0.00000  Uiso   1.00
O362   O     0.56006   0.49999   0.18388   0.00000  Uiso   1.00
O363   O     0.51639   0.50000   0.31612   0.00000  Uiso   1.00
O364   O     0.48361   0.50000   0.18388   0.00000  Uiso   1.00
Zn365  Zn    0.44896   0.50001   0.25000   0.00000  Uiso   1.00
Zn366  Zn    0.55104   0.49999   0.25000   0.00000  Uiso   1.00
Br367  Br    0.63581   0.55139   0.11700   0.00000  Uiso   1.00
Br368  Br    0.36198   0.45470   0.38804   0.00000  Uiso   1.00
Br369  Br    0.65880   0.45017   0.00332   0.00000  Uiso   1.00
Br370  Br    0.65892   0.58215   0.00818   0.00000  Uiso   1.00
O371   O     0.54950   0.37550   0.29801   0.00000  Uiso   1.00
C372   C     0.59856   0.36126   0.28562   0.00000  Uiso   1.00
H373   H     0.61977   0.38646   0.29342   0.00000  Uiso   1.00
H374   H     0.61752   0.35364   0.24736   0.00000  Uiso   1.00
H375   H     0.59950   0.33388   0.30730   0.00000  Uiso   1.00
O376   O     0.44976   0.62519   0.20282   0.00000  Uiso   1.00
C377   C     0.39840   0.63296   0.22373   0.00000  Uiso   1.00
H378   H     0.38317   0.62863   0.26270   0.00000  Uiso   1.00
H379   H     0.37985   0.61027   0.20920   0.00000  Uiso   1.00
H380   H     0.38925   0.66469   0.21495   0.00000  Uiso   1.00
O381   O     0.64170   0.45044   0.18861   0.00000  Uiso   1.00
C382   C     0.34136   0.41720   0.16728   0.00000  Uiso   1.00
H383   H     0.34979   0.39848   0.19362   0.00000  Uiso   1.00
H384   H     0.37555   0.42892   0.13904   0.00000  Uiso   1.00
H385   H     0.65697   0.39604   0.15030   0.00000  Uiso   1.00
O386   O     0.35824   0.55134   0.30959   0.00000  Uiso   1.00
C387   C     0.65313   0.55767   0.35422   0.00000  Uiso   1.00
H388   H     0.63277   0.52849   0.36898   0.00000  Uiso   1.00
H389   H     0.62761   0.58272   0.35245   0.00000  Uiso   1.00
H390   H     0.33627   0.56833   0.37897   0.00000  Uiso   1.00
C391   C     0.83324   0.58000   0.24960   0.00000  Uiso   1.00
C392   C     0.83336   0.41999   0.25053   0.00000  Uiso   1.00
C393   C     0.77321   0.49550   0.05604   0.00000  Uiso   1.00
C394   C     0.87040   0.55029   0.45836   0.00000  Uiso   1.00
C395   C     0.73956   0.48616   0.03641   0.00000  Uiso   1.00
C396   C     0.90420   0.55906   0.47814   0.00000  Uiso   1.00
C397   C     0.85849   0.64433   0.27288   0.00000  Uiso   1.00
C398   C     0.80765   0.35561   0.22790   0.00000  Uiso   1.00
C399   C     0.86013   0.35406   0.27293   0.00000  Uiso   1.00
C400   C     0.80603   0.64601   0.22793   0.00000  Uiso   1.00
C401   C     0.83368   0.37584   0.25081   0.00000  Uiso   1.00
C402   C     0.83264   0.62413   0.24977   0.00000  Uiso   1.00
C403   C     0.98821   0.47437   0.21954   0.00000  Uiso   1.00
C404   C     0.67818   0.52503   0.28089   0.00000  Uiso   1.00
C405   C     0.70357   0.47505   0.21953   0.00000  Uiso   1.00
C406   C     0.96336   0.52539   0.27997   0.00000  Uiso   1.00
C407   C     0.80213   0.49921   0.33848   0.00000  Uiso   1.00
C408   C     0.86441   0.50149   0.16160   0.00000  Uiso   1.00
C409   C     0.78101   0.49859   0.39024   0.00000  Uiso   1.00
C410   C     0.88378   0.51000   0.11084   0.00000  Uiso   1.00
C411   C     0.72033   0.47725   0.46665   0.00000  Uiso   1.00
C412   C     0.93376   0.55005   0.04173   0.00000  Uiso   1.00
C413   C     0.73539   0.48004   0.41741   0.00000  Uiso   1.00
C414   C     0.92530   0.53511   0.08725   0.00000  Uiso   1.00
C415   C     0.80983   0.51524   0.41229   0.00000  Uiso   1.00
C416   C     0.85305   0.49902   0.08836   0.00000  Uiso   1.00
C417   C     0.79641   0.51210   0.46088   0.00000  Uiso   1.00
C418   C     0.85680   0.51787   0.04645   0.00000  Uiso   1.00
C419   C     0.75150   0.49208   0.48825   0.00000  Uiso   1.00
C420   C     0.89879   0.54233   0.02176   0.00000  Uiso   1.00
C421   C     0.82888   0.52519   0.48207   0.00000  Uiso   1.00
C422   C     0.81973   0.51236   0.02850   0.00000  Uiso   1.00
H423   H     0.70496   0.47275   0.05932   0.00000  Uiso   1.00
H424   H     0.93464   0.57902   0.45856   0.00000  Uiso   1.00
H425   H     0.82462   0.47659   0.10562   0.00000  Uiso   1.00
H426   H     0.84477   0.52824   0.39002   0.00000  Uiso   1.00
H427   H     0.76127   0.49016   0.09342   0.00000  Uiso   1.00
H428   H     0.87677   0.56506   0.42511   0.00000  Uiso   1.00
H429   H     0.87648   0.62653   0.29159   0.00000  Uiso   1.00
H430   H     0.78941   0.37316   0.20922   0.00000  Uiso   1.00
H431   H     0.73325   0.45616   0.19526   0.00000  Uiso   1.00
H432   H     0.93473   0.54611   0.30269   0.00000  Uiso   1.00
N433   N     0.71426   0.50001   0.25001   0.00000  Uiso   1.00
N434   N     0.95241   0.49999   0.24999   0.00000  Uiso   1.00
O435   O     0.79512   0.56108   0.25001   0.00000  Uiso   1.00
O436   O     0.87154   0.43892   0.25000   0.00000  Uiso   1.00
O437   O     0.87157   0.56107   0.25000   0.00000  Uiso   1.00
O438   O     0.79510   0.43893   0.25000   0.00000  Uiso   1.00
O439   O     0.77328   0.50001   0.31613   0.00000  Uiso   1.00
O440   O     0.89339   0.49999   0.18388   0.00000  Uiso   1.00
O441   O     0.84972   0.50000   0.31612   0.00000  Uiso   1.00
O442   O     0.81695   0.50000   0.18388   0.00000  Uiso   1.00
Zn443  Zn    0.78229   0.50001   0.25000   0.00000  Uiso   1.00
Zn444  Zn    0.88438   0.49999   0.25000   0.00000  Uiso   1.00
Br445  Br    0.96915   0.55139   0.11700   0.00000  Uiso   1.00
Br446  Br    0.69531   0.45470   0.38804   0.00000  Uiso   1.00
Br447  Br    0.99213   0.45017   0.00332   0.00000  Uiso   1.00
Br448  Br    0.99225   0.58215   0.00818   0.00000  Uiso   1.00
O449   O     0.88283   0.37550   0.29801   0.00000  Uiso   1.00
C450   C     0.93189   0.36126   0.28562   0.00000  Uiso   1.00
H451   H     0.95310   0.38646   0.29342   0.00000  Uiso   1.00
H452   H     0.95085   0.35364   0.24736   0.00000  Uiso   1.00
H453   H     0.93284   0.33388   0.30730   0.00000  Uiso   1.00
O454   O     0.78309   0.62519   0.20282   0.00000  Uiso   1.00
C455   C     0.73174   0.63296   0.22373   0.00000  Uiso   1.00
H456   H     0.71650   0.62863   0.26270   0.00000  Uiso   1.00
H457   H     0.71318   0.61027   0.20920   0.00000  Uiso   1.00
H458   H     0.72259   0.66469   0.21495   0.00000  Uiso   1.00
O459   O     0.97504   0.45044   0.18861   0.00000  Uiso   1.00
C460   C     0.67469   0.41720   0.16728   0.00000  Uiso   1.00
H461   H     0.68312   0.39848   0.19362   0.00000  Uiso   1.00
H462   H     0.70889   0.42892   0.13904   0.00000  Uiso   1.00
H463   H     0.99030   0.39604   0.15030   0.00000  Uiso   1.00
O464   O     0.69157   0.55134   0.30959   0.00000  Uiso   1.00
C465   C     0.98646   0.55767   0.35422   0.00000  Uiso   1.00
H466   H     0.96610   0.52849   0.36898   0.00000  Uiso   1.00
H467   H     0.96094   0.58272   0.35245   0.00000  Uiso   1.00
H468   H     0.66960   0.56833   0.37897   0.00000  Uiso   1.00
C469   C     0.16657   0.91334   0.24960   0.00000  Uiso   1.00
C470   C     0.16670   0.75332   0.25053   0.00000  Uiso   1.00
C471   C     0.10654   0.82883   0.05604   0.00000  Uiso   1.00
C472   C     0.20373   0.88363   0.45836   0.00000  Uiso   1.00
C473   C     0.07289   0.81949   0.03641   0.00000  Uiso   1.00
C474   C     0.23754   0.89239   0.47814   0.00000  Uiso   1.00
C475   C     0.19182   0.97766   0.27288   0.00000  Uiso   1.00
C476   C     0.14098   0.68894   0.22790   0.00000  Uiso   1.00
C477   C     0.19347   0.68740   0.27293   0.00000  Uiso   1.00
C478   C     0.13937   0.97935   0.22793   0.00000  Uiso   1.00
C479   C     0.16702   0.70918   0.25081   0.00000  Uiso   1.00
C480   C     0.16597   0.95747   0.24977   0.00000  Uiso   1.00
C481   C     0.32155   0.80770   0.21954   0.00000  Uiso   1.00
C482   C     0.01152   0.85836   0.28089   0.00000  Uiso   1.00
C483   C     0.03691   0.80838   0.21953   0.00000  Uiso   1.00
C484   C     0.29670   0.85873   0.27997   0.00000  Uiso   1.00
C485   C     0.13547   0.83254   0.33848   0.00000  Uiso   1.00
C486   C     0.19774   0.83483   0.16160   0.00000  Uiso   1.00
C487   C     0.11435   0.83192   0.39024   0.00000  Uiso   1.00
C488   C     0.21711   0.84334   0.11084   0.00000  Uiso   1.00
C489   C     0.05367   0.81058   0.46665   0.00000  Uiso   1.00
C490   C     0.26710   0.88338   0.04173   0.00000  Uiso   1.00
C491   C     0.06872   0.81337   0.41741   0.00000  Uiso   1.00
C492   C     0.25863   0.86845   0.08725   0.00000  Uiso   1.00
C493   C     0.14317   0.84857   0.41229   0.00000  Uiso   1.00
C494   C     0.18639   0.83235   0.08836   0.00000  Uiso   1.00
C495   C     0.12974   0.84543   0.46088   0.00000  Uiso   1.00
C496   C     0.19013   0.85120   0.04645   0.00000  Uiso   1.00
C497   C     0.08483   0.82541   0.48825   0.00000  Uiso   1.00
C498   C     0.23212   0.87566   0.02176   0.00000  Uiso   1.00
C499   C     0.16222   0.85853   0.48207   0.00000  Uiso   1.00
C500   C     0.15306   0.84569   0.02850   0.00000  Uiso   1.00
H501   H     0.03829   0.80608   0.05932   0.00000  Uiso   1.00
H502   H     0.26797   0.91235   0.45856   0.00000  Uiso   1.00
H503   H     0.15795   0.80993   0.10562   0.00000  Uiso   1.00
H504   H     0.17811   0.86157   0.39002   0.00000  Uiso   1.00
H505   H     0.09460   0.82349   0.09342   0.00000  Uiso   1.00
H506   H     0.21010   0.89840   0.42511   0.00000  Uiso   1.00
H507   H     0.20981   0.95987   0.29159   0.00000  Uiso   1.00
H508   H     0.12274   0.70649   0.20922   0.00000  Uiso   1.00
H509   H     0.06659   0.78950   0.19526   0.00000  Uiso   1.00
H510   H     0.26806   0.87944   0.30269   0.00000  Uiso   1.00
N511   N     0.04759   0.83334   0.25001   0.00000  Uiso   1.00
N512   N     0.28574   0.83332   0.24999   0.00000  Uiso   1.00
O513   O     0.12846   0.89442   0.25001   0.00000  Uiso   1.00
O514   O     0.20488   0.77225   0.25000   0.00000  Uiso   1.00
O515   O     0.20490   0.89441   0.25000   0.00000  Uiso   1.00
O516   O     0.12843   0.77226   0.25000   0.00000  Uiso   1.00
O517   O     0.10661   0.83334   0.31613   0.00000  Uiso   1.00
O518   O     0.22672   0.83333   0.18388   0.00000  Uiso   1.00
O519   O     0.18305   0.83333   0.31612   0.00000  Uiso   1.00
O520   O     0.15028   0.83334   0.18388   0.00000  Uiso   1.00
Zn521  Zn    0.11562   0.83334   0.25000   0.00000  Uiso   1.00
Zn522  Zn    0.21771   0.83333   0.25000   0.00000  Uiso   1.00
Br523  Br    0.30248   0.88472   0.11700   0.00000  Uiso   1.00
Br524  Br    0.02865   0.78803   0.38804   0.00000  Uiso   1.00
Br525  Br    0.32546   0.78351   0.00332   0.00000  Uiso   1.00
Br526  Br    0.32558   0.91549   0.00818   0.00000  Uiso   1.00
O527   O     0.21616   0.70884   0.29801   0.00000  Uiso   1.00
C528   C     0.26523   0.69460   0.28562   0.00000  Uiso   1.00
H529   H     0.28644   0.71979   0.29342   0.00000  Uiso   1.00
H530   H     0.28419   0.68697   0.24736   0.00000  Uiso   1.00
H531   H     0.26617   0.66721   0.30730   0.00000  Uiso   1.00
O532   O     0.11642   0.95852   0.20282   0.00000  Uiso   1.00
C533   C     0.06507   0.96629   0.22373   0.00000  Uiso   1.00
H534   H     0.04984   0.96197   0.26270   0.00000  Uiso   1.00
H535   H     0.04651   0.94361   0.20920   0.00000  Uiso   1.00
H536   H     0.05592   0.99803   0.21495   0.00000  Uiso   1.00
O537   O     0.30837   0.78377   0.18861   0.00000  Uiso   1.00
C538   C     0.00803   0.75054   0.16728   0.00000  Uiso   1.00
H539   H     0.01645   0.73181   0.19362   0.00000  Uiso   1.00
H540   H     0.04222   0.76226   0.13904   0.00000  Uiso   1.00
H541   H     0.32364   0.72937   0.15030   0.00000  Uiso   1.00
O542   O     0.02490   0.88468   0.30959   0.00000  Uiso   1.00
C543   C     0.31979   0.89100   0.35422   0.00000  Uiso   1.00
H544   H     0.29943   0.86183   0.36898   0.00000  Uiso   1.00
H545   H     0.29427   0.91605   0.35245   0.00000  Uiso   1.00
H546   H     0.00293   0.90166   0.37897   0.00000  Uiso   1.00
C547   C     0.49990   0.91334   0.24960   0.00000  Uiso   1.00
C548   C     0.50003   0.75332   0.25053   0.00000  Uiso   1.00
C549   C     0.43988   0.82883   0.05604   0.00000  Uiso   1.00
C550   C     0.53706   0.88363   0.45836   0.00000  Uiso   1.00
C551   C     0.40622   0.81949   0.03641   0.00000  Uiso   1.00
C552   C     0.57087   0.89239   0.47814   0.00000  Uiso   1.00
C553   C     0.52516   0.97766   0.27288   0.00000  Uiso   1.00
C554   C     0.47431   0.68894   0.22790   0.00000  Uiso   1.00
C555   C     0.52680   0.68740   0.27293   0.00000  Uiso   1.00
C556   C     0.47270   0.97935   0.22793   0.00000  Uiso   1.00
C557   C     0.50035   0.70918   0.25081   0.00000  Uiso   1.00
C558   C     0.49931   0.95747   0.24977   0.00000  Uiso   1.00
C559   C     0.65488   0.80770   0.21954   0.00000  Uiso   1.00
C560   C     0.34485   0.85836   0.28089   0.00000  Uiso   1.00
C561   C     0.37024   0.80838   0.21953   0.00000  Uiso   1.00
C562   C     0.63003   0.85873   0.27997   0.00000  Uiso   1.00
C563   C     0.46880   0.83254   0.33848   0.00000  Uiso   1.00
C564   C     0.53108   0.83483   0.16160   0.00000  Uiso   1.00
C565   C     0.44768   0.83192   0.39024   0.00000  Uiso   1.00
C566   C     0.55045   0.84334   0.11084   0.00000  Uiso   1.00
C567   C     0.38700   0.81058   0.46665   0.00000  Uiso   1.00
C568   C     0.60043   0.88338   0.04173   0.00000  Uiso   1.00
C569   C     0.40206   0.81337   0.41741   0.00000  Uiso   1.00
C570   C     0.59197   0.86845   0.08725   0.00000  Uiso   1.00
C571   C     0.47650   0.84857   0.41229   0.00000  Uiso   1.00
C572   C     0.51972   0.83235   0.08836   0.00000  Uiso   1.00
C573   C     0.46307   0.84543   0.46088   0.00000  Uiso   1.00
C574   C     0.52346   0.85120   0.04645   0.00000  Uiso   1.00
C575   C     0.41816   0.82541   0.48825   0.00000  Uiso   1.00
C576   C     0.56545   0.87566   0.02176   0.00000  Uiso   1.00
C577   C     0.49555   0.85853   0.48207   0.00000  Uiso   1.00
C578   C     0.48640   0.84569   0.02850   0.00000  Uiso   1.00
H579   H     0.37162   0.80608   0.05932   0.00000  Uiso   1.00
H580   H     0.60130   0.91235   0.45856   0.00000  Uiso   1.00
H581   H     0.49128   0.80993   0.10562   0.00000  Uiso   1.00
H582   H     0.51144   0.86157   0.39002   0.00000  Uiso   1.00
H583   H     0.42794   0.82349   0.09342   0.00000  Uiso   1.00
H584   H     0.54344   0.89840   0.42511   0.00000  Uiso   1.00
H585   H     0.54315   0.95987   0.29159   0.00000  Uiso   1.00
H586   H     0.45608   0.70649   0.20922   0.00000  Uiso   1.00
H587   H     0.39992   0.78950   0.19526   0.00000  Uiso   1.00
H588   H     0.60139   0.87944   0.30269   0.00000  Uiso   1.00
N589   N     0.38093   0.83334   0.25001   0.00000  Uiso   1.00
N590   N     0.61907   0.83332   0.24999   0.00000  Uiso   1.00
O591   O     0.46179   0.89442   0.25001   0.00000  Uiso   1.00
O592   O     0.53821   0.77225   0.25000   0.00000  Uiso   1.00
O593   O     0.53823   0.89441   0.25000   0.00000  Uiso   1.00
O594   O     0.46177   0.77226   0.25000   0.00000  Uiso   1.00
O595   O     0.43994   0.83334   0.31613   0.00000  Uiso   1.00
O596   O     0.56006   0.83333   0.18388   0.00000  Uiso   1.00
O597   O     0.51639   0.83333   0.31612   0.00000  Uiso   1.00
O598   O     0.48361   0.83334   0.18388   0.00000  Uiso   1.00
Zn599  Zn    0.44896   0.83334   0.25000   0.00000  Uiso   1.00
Zn600  Zn    0.55104   0.83333   0.25000   0.00000  Uiso   1.00
Br601  Br    0.63581   0.88472   0.11700   0.00000  Uiso   1.00
Br602  Br    0.36198   0.78803   0.38804   0.00000  Uiso   1.00
Br603  Br    0.65880   0.78351   0.00332   0.00000  Uiso   1.00
Br604  Br    0.65892   0.91549   0.00818   0.00000  Uiso   1.00
O605   O     0.54950   0.70884   0.29801   0.00000  Uiso   1.00
C606   C     0.59856   0.69460   0.28562   0.00000  Uiso   1.00
H607   H     0.61977   0.71979   0.29342   0.00000  Uiso   1.00
H608   H     0.61752   0.68697   0.24736   0.00000  Uiso   1.00
H609   H     0.59950   0.66721   0.30730   0.00000  Uiso   1.00
O610   O     0.44976   0.95852   0.20282   0.00000  Uiso   1.00
C611   C     0.39840   0.96629   0.22373   0.00000  Uiso   1.00
H612   H     0.38317   0.96197   0.26270   0.00000  Uiso   1.00
H613   H     0.37985   0.94361   0.20920   0.00000  Uiso   1.00
H614   H     0.38925   0.99803   0.21495   0.00000  Uiso   1.00
O615   O     0.64170   0.78377   0.18861   0.00000  Uiso   1.00
C616   C     0.34136   0.75054   0.16728   0.00000  Uiso   1.00
H617   H     0.34979   0.73181   0.19362   0.00000  Uiso   1.00
H618   H     0.37555   0.76226   0.13904   0.00000  Uiso   1.00
H619   H     0.65697   0.72937   0.15030   0.00000  Uiso   1.00
O620   O     0.35824   0.88468   0.30959   0.00000  Uiso   1.00
C621   C     0.65313   0.89100   0.35422   0.00000  Uiso   1.00
H622   H     0.63277   0.86183   0.36898   0.00000  Uiso   1.00
H623   H     0.62761   0.91605   0.35245   0.00000  Uiso   1.00
H624   H     0.33627   0.90166   0.37897   0.00000  Uiso   1.00
C625   C     0.83324   0.91334   0.24960   0.00000  Uiso   1.00
C626   C     0.83336   0.75332   0.25053   0.00000  Uiso   1.00
C627   C     0.77321   0.82883   0.05604   0.00000  Uiso   1.00
C628   C     0.87040   0.88363   0.45836   0.00000  Uiso   1.00
C629   C     0.73956   0.81949   0.03641   0.00000  Uiso   1.00
C630   C     0.90420   0.89239   0.47814   0.00000  Uiso   1.00
C631   C     0.85849   0.97766   0.27288   0.00000  Uiso   1.00
C632   C     0.80765   0.68894   0.22790   0.00000  Uiso   1.00
C633   C     0.86013   0.68740   0.27293   0.00000  Uiso   1.00
C634   C     0.80603   0.97935   0.22793   0.00000  Uiso   1.00
C635   C     0.83368   0.70918   0.25081   0.00000  Uiso   1.00
C636   C     0.83264   0.95747   0.24977   0.00000  Uiso   1.00
C637   C     0.98821   0.80770   0.21954   0.00000  Uiso   1.00
C638   C     0.67818   0.85836   0.28089   0.00000  Uiso   1.00
C639   C     0.70357   0.80838   0.21953   0.00000  Uiso   1.00
C640   C     0.96336   0.85873   0.27997   0.00000  Uiso   1.00
C641   C     0.80213   0.83254   0.33848   0.00000  Uiso   1.00
C642   C     0.86441   0.83483   0.16160   0.00000  Uiso   1.00
C643   C     0.78101   0.83192   0.39024   0.00000  Uiso   1.00
C644   C     0.88378   0.84334   0.11084   0.00000  Uiso   1.00
C645   C     0.72033   0.81058   0.46665   0.00000  Uiso   1.00
C646   C     0.93376   0.88338   0.04173   0.00000  Uiso   1.00
C647   C     0.73539   0.81337   0.41741   0.00000  Uiso   1.00
C648   C     0.92530   0.86845   0.08725   0.00000  Uiso   1.00
C649   C     0.80983   0.84857   0.41229   0.00000  Uiso   1.00
C650   C     0.85305   0.83235   0.08836   0.00000  Uiso   1.00
C651   C     0.79641   0.84543   0.46088   0.00000  Uiso   1.00
C652   C     0.85680   0.85120   0.04645   0.00000  Uiso   1.00
C653   C     0.75150   0.82541   0.48825   0.00000  Uiso   1.00
C654   C     0.89879   0.87566   0.02176   0.00000  Uiso   1.00
C655   C     0.82888   0.85853   0.48207   0.00000  Uiso   1.00
C656   C     0.81973   0.84569   0.02850   0.00000  Uiso   1.00
H657   H     0.70496   0.80608   0.05932   0.00000  Uiso   1.00
H658   H     0.93464   0.91235   0.45856   0.00000  Uiso   1.00
H659   H     0.82462   0.80993   0.10562   0.00000  Uiso   1.00
H660   H     0.84477   0.86157   0.39002   0.00000  Uiso   1.00
H661   H     0.76127   0.82349   0.09342   0.00000  Uiso   1.00
H662   H     0.87677   0.89840   0.42511   0.00000  Uiso   1.00
H663   H     0.87648   0.95987   0.29159   0.00000  Uiso   1.00
H664   H     0.78941   0.70649   0.20922   0.00000  Uiso   1.00
H665   H     0.73325   0.78950   0.19526   0.00000  Uiso   1.00
H666   H     0.93473   0.87944   0.30269   0.00000  Uiso   1.00
N667   N     0.71426   0.83334   0.25001   0.00000  Uiso   1.00
N668   N     0.95241   0.83332   0.24999   0.00000  Uiso   1.00
O669   O     0.79512   0.89442   0.25001   0.00000  Uiso   1.00
O670   O     0.87154   0.77225   0.25000   0.00000  Uiso   1.00
O671   O     0.87157   0.89441   0.25000   0.00000  Uiso   1.00
O672   O     0.79510   0.77226   0.25000   0.00000  Uiso   1.00
O673   O     0.77328   0.83334   0.31613   0.00000  Uiso   1.00
O674   O     0.89339   0.83333   0.18388   0.00000  Uiso   1.00
O675   O     0.84972   0.83333   0.31612   0.00000  Uiso   1.00
O676   O     0.81695   0.83334   0.18388   0.00000  Uiso   1.00
Zn677  Zn    0.78229   0.83334   0.25000   0.00000  Uiso   1.00
Zn678  Zn    0.88438   0.83333   0.25000   0.00000  Uiso   1.00
Br679  Br    0.96915   0.88472   0.11700   0.00000  Uiso   1.00
Br680  Br    0.69531   0.78803   0.38804   0.00000  Uiso   1.00
Br681  Br    0.99213   0.78351   0.00332   0.00000  Uiso   1.00
Br682  Br    0.99225   0.91549   0.00818   0.00000  Uiso   1.00
O683   O     0.88283   0.70884   0.29801   0.00000  Uiso   1.00
C684   C     0.93189   0.69460   0.28562   0.00000  Uiso   1.00
H685   H     0.95310   0.71979   0.29342   0.00000  Uiso   1.00
H686   H     0.95085   0.68697   0.24736   0.00000  Uiso   1.00
H687   H     0.93284   0.66721   0.30730   0.00000  Uiso   1.00
O688   O     0.78309   0.95852   0.20282   0.00000  Uiso   1.00
C689   C     0.73174   0.96629   0.22373   0.00000  Uiso   1.00
H690   H     0.71650   0.96197   0.26270   0.00000  Uiso   1.00
H691   H     0.71318   0.94361   0.20920   0.00000  Uiso   1.00
H692   H     0.72259   0.99803   0.21495   0.00000  Uiso   1.00
O693   O     0.97504   0.78377   0.18861   0.00000  Uiso   1.00
C694   C     0.67469   0.75054   0.16728   0.00000  Uiso   1.00
H695   H     0.68312   0.73181   0.19362   0.00000  Uiso   1.00
H696   H     0.70889   0.76226   0.13904   0.00000  Uiso   1.00
H697   H     0.99030   0.72937   0.15030   0.00000  Uiso   1.00
O698   O     0.69157   0.88468   0.30959   0.00000  Uiso   1.00
C699   C     0.98646   0.89100   0.35422   0.00000  Uiso   1.00
H700   H     0.96610   0.86183   0.36898   0.00000  Uiso   1.00
H701   H     0.96094   0.91605   0.35245   0.00000  Uiso   1.00
H702   H     0.66960   0.90166   0.37897   0.00000  Uiso   1.00
C703   C     0.16657   0.24667   0.74960   0.00000  Uiso   1.00
C704   C     0.16670   0.08666   0.75053   0.00000  Uiso   1.00
C705   C     0.10654   0.16217   0.55604   0.00000  Uiso   1.00
C706   C     0.20373   0.21696   0.95836   0.00000  Uiso   1.00
C707   C     0.07289   0.15282   0.53641   0.00000  Uiso   1.00
C708   C     0.23754   0.22573   0.97814   0.00000  Uiso   1.00
C709   C     0.19182   0.31100   0.77288   0.00000  Uiso   1.00
C710   C     0.14098   0.02227   0.72790   0.00000  Uiso   1.00
C711   C     0.19347   0.02073   0.77293   0.00000  Uiso   1.00
C712   C     0.13937   0.31268   0.72793   0.00000  Uiso   1.00
C713   C     0.16702   0.04251   0.75081   0.00000  Uiso   1.00
C714   C     0.16597   0.29080   0.74977   0.00000  Uiso   1.00
C715   C     0.32155   0.14103   0.71954   0.00000  Uiso   1.00
C716   C     0.01152   0.19170   0.78089   0.00000  Uiso   1.00
C717   C     0.03691   0.14171   0.71953   0.00000  Uiso   1.00
C718   C     0.29670   0.19206   0.77997   0.00000  Uiso   1.00
C719   C     0.13547   0.16587   0.83848   0.00000  Uiso   1.00
C720   C     0.19774   0.16816   0.66160   0.00000  Uiso   1.00
C721   C     0.11435   0.16526   0.89024   0.00000  Uiso   1.00
C722   C     0.21711   0.17667   0.61084   0.00000  Uiso   1.00
C723   C     0.05367   0.14392   0.96665   0.00000  Uiso   1.00
C724   C     0.26710   0.21672   0.54173   0.00000  Uiso   1.00
C725   C     0.06872   0.14671   0.91741   0.00000  Uiso   1.00
C726   C     0.25863   0.20178   0.58725   0.00000  Uiso   1.00
C727   C     0.14317   0.18190   0.91229   0.00000  Uiso   1.00
C728   C     0.18639   0.16568   0.58836   0.00000  Uiso   1.00
C729   C     0.12974   0.17877   0.96088   0.00000  Uiso   1.00
C730   C     0.19013   0.18453   0.54645   0.00000  Uiso   1.00
C731   C     0.08483   0.15874   0.98825   0.00000  Uiso   1.00
C732   C     0.23212   0.20899   0.52176   0.00000  Uiso   1.00
C733   C     0.16222   0.19186   0.98207   0.00000  Uiso   1.00
C734   C     0.15306   0.17902   0.52850   0.00000  Uiso   1.00
H735   H     0.03829   0.13941   0.55932   0.00000  Uiso   1.00
H736   H     0.26797   0.24569   0.95856   0.00000  Uiso   1.00
H737   H     0.15795   0.14326   0.60562   0.00000  Uiso   1.00
H738   H     0.17811   0.19490   0.89002   0.00000  Uiso   1.00
H739   H     0.09460   0.15683   0.59342   0.00000  Uiso   1.00
H740   H     0.21010   0.23173   0.92511   0.00000  Uiso   1.00
H741   H     0.20981   0.29320   0.79159   0.00000  Uiso   1.00
H742   H     0.12274   0.03983   0.70922   0.00000  Uiso   1.00
H743   H     0.06659   0.12283   0.69526   0.00000  Uiso   1.00
H744   H     0.26806   0.21278   0.80269   0.00000  Uiso   1.00
N745   N     0.04759   0.16668   0.75001   0.00000  Uiso   1.00
N746   N     0.28574   0.16666   0.74999   0.00000  Uiso   1.00
O747   O     0.12846   0.22775   0.75001   0.00000  Uiso   1.00
O748   O     0.20488   0.10558   0.75000   0.00000  Uiso   1.00
O749   O     0.20490   0.22774   0.75000   0.00000  Uiso   1.00
O750   O     0.12843   0.10559   0.75000   0.00000  Uiso   1.00
O751   O     0.10661   0.16667   0.81613   0.00000  Uiso   1.00
O752   O     0.22672   0.16666   0.68388   0.00000  Uiso   1.00
O753   O     0.18305   0.16666   0.81612   0.00000  Uiso   1.00
O754   O     0.15028   0.16667   0.68388   0.00000  Uiso   1.00
Zn755  Zn    0.11562   0.16667   0.75000   0.00000  Uiso   1.00
Zn756  Zn    0.21771   0.16666   0.75000   0.00000  Uiso   1.00
Br757  Br    0.30248   0.21806   0.61700   0.00000  Uiso   1.00
Br758  Br    0.02865   0.12137   0.88804   0.00000  Uiso   1.00
Br759  Br    0.32546   0.11684   0.50332   0.00000  Uiso   1.00
Br760  Br    0.32558   0.24882   0.50818   0.00000  Uiso   1.00
O761   O     0.21616   0.04217   0.79801   0.00000  Uiso   1.00
C762   C     0.26523   0.02793   0.78562   0.00000  Uiso   1.00
H763   H     0.28644   0.05312   0.79342   0.00000  Uiso   1.00
H764   H     0.28419   0.02030   0.74736   0.00000  Uiso   1.00
H765   H     0.26617   0.00055   0.80730   0.00000  Uiso   1.00
O766   O     0.11642   0.29185   0.70282   0.00000  Uiso   1.00
C767   C     0.06507   0.29963   0.72373   0.00000  Uiso   1.00
H768   H     0.04984   0.29530   0.76270   0.00000  Uiso   1.00
H769   H     0.04651   0.27694   0.70920   0.00000  Uiso   1.00
H770   H     0.05592   0.33136   0.71495   0.00000  Uiso   1.00
O771   O     0.30837   0.11711   0.68861   0.00000  Uiso   1.00
C772   C     0.00803   0.08387   0.66728   0.00000  Uiso   1.00
H773   H     0.01645   0.06515   0.69362   0.00000  Uiso   1.00
H774   H     0.04222   0.09559   0.63904   0.00000  Uiso   1.00
H775   H     0.32364   0.06271   0.65030   0.00000  Uiso   1.00
O776   O     0.02490   0.21801   0.80959   0.00000  Uiso   1.00
C777   C     0.31979   0.22433   0.85422   0.00000  Uiso   1.00
H778   H     0.29943   0.19516   0.86898   0.00000  Uiso   1.00
H779   H     0.29427   0.24938   0.85245   0.00000  Uiso   1.00
H780   H     0.00293   0.23499   0.87897   0.00000  Uiso   1.00
C781   C     0.49990   0.24667   0.74960   0.00000  Uiso   1.00
C782   C     0.50003   0.08666   0.75053   0.00000  Uiso   1.00
C783   C     0.43988   0.16217   0.55604   0.00000  Uiso   1.00
C784   C     0.53706   0.21696   0.95836   0.00000  Uiso   1.00
C785   C     0.40622   0.15282   0.53641   0.00000  Uiso   1.00
C786   C     0.57087   0.22573   0.97814   0.00000  Uiso   1.00
C787   C     0.52516   0.31100   0.77288   0.00000  Uiso   1.00
C788   C     0.47431   0.02227   0.72790   0.00000  Uiso   1.00
C789   C     0.52680   0.02073   0.77293   0.00000  Uiso   1.00
C790   C     0.47270   0.31268   0.72793   0.00000  Uiso   1.00
C791   C     0.50035   0.04251   0.75081   0.00000  Uiso   1.00
C792   C     0.49931   0.29080   0.74977   0.00000  Uiso   1.00
C793   C     0.65488   0.14103   0.71954   0.00000  Uiso   1.00
C794   C     0.34485   0.19170   0.78089   0.00000  Uiso   1.00
C795   C     0.37024   0.14171   0.71953   0.00000  Uiso   1.00
C796   C     0.63003   0.19206   0.77997   0.00000  Uiso   1.00
C797   C     0.46880   0.16587   0.83848   0.00000  Uiso   1.00
C798   C     0.53108   0.16816   0.66160   0.00000  Uiso   1.00
C799   C     0.44768   0.16526   0.89024   0.00000  Uiso   1.00
C800   C     0.55045   0.17667   0.61084   0.00000  Uiso   1.00
C801   C     0.38700   0.14392   0.96665   0.00000  Uiso   1.00
C802   C     0.60043   0.21672   0.54173   0.00000  Uiso   1.00
C803   C     0.40206   0.14671   0.91741   0.00000  Uiso   1.00
C804   C     0.59197   0.20178   0.58725   0.00000  Uiso   1.00
C805   C     0.47650   0.18190   0.91229   0.00000  Uiso   1.00
C806   C     0.51972   0.16568   0.58836   0.00000  Uiso   1.00
C807   C     0.46307   0.17877   0.96088   0.00000  Uiso   1.00
C808   C     0.52346   0.18453   0.54645   0.00000  Uiso   1.00
C809   C     0.41816   0.15874   0.98825   0.00000  Uiso   1.00
C810   C     0.56545   0.20899   0.52176   0.00000  Uiso   1.00
C811   C     0.49555   0.19186   0.98207   0.00000  Uiso   1.00
C812   C     0.48640   0.17902   0.52850   0.00000  Uiso   1.00
H813   H     0.37162   0.13941   0.55932   0.00000  Uiso   1.00
H814   H     0.60130   0.24569   0.95856   0.00000  Uiso   1.00
H815   H     0.49128   0.14326   0.60562   0.00000  Uiso   1.00
H816   H     0.51144   0.19490   0.89002   0.00000  Uiso   1.00
H817   H     0.42794   0.15683   0.59342   0.00000  Uiso   1.00
H818   H     0.54344   0.23173   0.92511   0.00000  Uiso   1.00
H819   H     0.54315   0.29320   0.79159   0.00000  Uiso   1.00
H820   H     0.45608   0.03983   0.70922   0.00000  Uiso   1.00
H821   H     0.39992   0.12283   0.69526   0.00000  Uiso   1.00
H822   H     0.60139   0.21278   0.80269   0.00000  Uiso   1.00
N823   N     0.38093   0.16668   0.75001   0.00000  Uiso   1.00
N824   N     0.61907   0.16666   0.74999   0.00000  Uiso   1.00
O825   O     0.46179   0.22775   0.75001   0.00000  Uiso   1.00
O826   O     0.53821   0.10558   0.75000   0.00000  Uiso   1.00
O827   O     0.53823   0.22774   0.75000   0.00000  Uiso   1.00
O828   O     0.46177   0.10559   0.75000   0.00000  Uiso   1.00
O829   O     0.43994   0.16667   0.81613   0.00000  Uiso   1.00
O830   O     0.56006   0.16666   0.68388   0.00000  Uiso   1.00
O831   O     0.51639   0.16666   0.81612   0.00000  Uiso   1.00
O832   O     0.48361   0.16667   0.68388   0.00000  Uiso   1.00
Zn833  Zn    0.44896   0.16667   0.75000   0.00000  Uiso   1.00
Zn834  Zn    0.55104   0.16666   0.75000   0.00000  Uiso   1.00
Br835  Br    0.63581   0.21806   0.61700   0.00000  Uiso   1.00
Br836  Br    0.36198   0.12137   0.88804   0.00000  Uiso   1.00
Br837  Br    0.65880   0.11684   0.50332   0.00000  Uiso   1.00
Br838  Br    0.65892   0.24882   0.50818   0.00000  Uiso   1.00
O839   O     0.54950   0.04217   0.79801   0.00000  Uiso   1.00
C840   C     0.59856   0.02793   0.78562   0.00000  Uiso   1.00
H841   H     0.61977   0.05312   0.79342   0.00000  Uiso   1.00
H842   H     0.61752   0.02030   0.74736   0.00000  Uiso   1.00
H843   H     0.59950   0.00055   0.80730   0.00000  Uiso   1.00
O844   O     0.44976   0.29185   0.70282   0.00000  Uiso   1.00
C845   C     0.39840   0.29963   0.72373   0.00000  Uiso   1.00
H846   H     0.38317   0.29530   0.76270   0.00000  Uiso   1.00
H847   H     0.37985   0.27694   0.70920   0.00000  Uiso   1.00
H848   H     0.38925   0.33136   0.71495   0.00000  Uiso   1.00
O849   O     0.64170   0.11711   0.68861   0.00000  Uiso   1.00
C850   C     0.34136   0.08387   0.66728   0.00000  Uiso   1.00
H851   H     0.34979   0.06515   0.69362   0.00000  Uiso   1.00
H852   H     0.37555   0.09559   0.63904   0.00000  Uiso   1.00
H853   H     0.65697   0.06271   0.65030   0.00000  Uiso   1.00
O854   O     0.35824   0.21801   0.80959   0.00000  Uiso   1.00
C855   C     0.65313   0.22433   0.85422   0.00000  Uiso   1.00
H856   H     0.63277   0.19516   0.86898   0.00000  Uiso   1.00
H857   H     0.62761   0.24938   0.85245   0.00000  Uiso   1.00
H858   H     0.33627   0.23499   0.87897   0.00000  Uiso   1.00
C859   C     0.83324   0.24667   0.74960   0.00000  Uiso   1.00
C860   C     0.83336   0.08666   0.75053   0.00000  Uiso   1.00
C861   C     0.77321   0.16217   0.55604   0.00000  Uiso   1.00
C862   C     0.87040   0.21696   0.95836   0.00000  Uiso   1.00
C863   C     0.73956   0.15282   0.53641   0.00000  Uiso   1.00
C864   C     0.90420   0.22573   0.97814   0.00000  Uiso   1.00
C865   C     0.85849   0.31100   0.77288   0.00000  Uiso   1.00
C866   C     0.80765   0.02227   0.72790   0.00000  Uiso   1.00
C867   C     0.86013   0.02073   0.77293   0.00000  Uiso   1.00
C868   C     0.80603   0.31268   0.72793   0.00000  Uiso   1.00
C869   C     0.83368   0.04251   0.75081   0.00000  Uiso   1.00
C870   C     0.83264   0.29080   0.74977   0.00000  Uiso   1.00
C871   C     0.98821   0.14103   0.71954   0.00000  Uiso   1.00
C872   C     0.67818   0.19170   0.78089   0.00000  Uiso   1.00
C873   C     0.70357   0.14171   0.71953   0.00000  Uiso   1.00
C874   C     0.96336   0.19206   0.77997   0.00000  Uiso   1.00
C875   C     0.80213   0.16587   0.83848   0.00000  Uiso   1.00
C876   C     0.86441   0.16816   0.66160   0.00000  Uiso   1.00
C877   C     0.78101   0.16526   0.89024   0.00000  Uiso   1.00
C878   C     0.88378   0.17667   0.61084   0.00000  Uiso   1.00
C879   C     0.72033   0.14392   0.96665   0.00000  Uiso   1.00
C880   C     0.93376   0.21672   0.54173   0.00000  Uiso   1.00
C881   C     0.73539   0.14671   0.91741   0.00000  Uiso   1.00
C882   C     0.92530   0.20178   0.58725   0.00000  Uiso   1.00
C883   C     0.80983   0.18190   0.91229   0.00000  Uiso   1.00
C884   C     0.85305   0.16568   0.58836   0.00000  Uiso   1.00
C885   C     0.79641   0.17877   0.96088   0.00000  Uiso   1.00
C886   C     0.85680   0.18453   0.54645   0.00000  Uiso   1.00
C887   C     0.75150   0.15874   0.98825   0.00000  Uiso   1.00
C888   C     0.89879   0.20899   0.52176   0.00000  Uiso   1.00
C889   C     0.82888   0.19186   0.98207   0.00000  Uiso   1.00
C890   C     0.81973   0.17902   0.52850   0.00000  Uiso   1.00
H891   H     0.70496   0.13941   0.55932   0.00000  Uiso   1.00
H892   H     0.93464   0.24569   0.95856   0.00000  Uiso   1.00
H893   H     0.82462   0.14326   0.60562   0.00000  Uiso   1.00
H894   H     0.84477   0.19490   0.89002   0.00000  Uiso   1.00
H895   H     0.76127   0.15683   0.59342   0.00000  Uiso   1.00
H896   H     0.87677   0.23173   0.92511   0.00000  Uiso   1.00
H897   H     0.87648   0.29320   0.79159   0.00000  Uiso   1.00
H898   H     0.78941   0.03983   0.70922   0.00000  Uiso   1.00
H899   H     0.73325   0.12283   0.69526   0.00000  Uiso   1.00
H900   H     0.93473   0.21278   0.80269   0.00000  Uiso   1.00
N901   N     0.71426   0.16668   0.75001   0.00000  Uiso   1.00
N902   N     0.95241   0.16666   0.74999   0.00000  Uiso   1.00
O903   O     0.79512   0.22775   0.75001   0.00000  Uiso   1.00
O904   O     0.87154   0.10558   0.75000   0.00000  Uiso   1.00
O905   O     0.87157   0.22774   0.75000   0.00000  Uiso   1.00
O906   O     0.79510   0.10559   0.75000   0.00000  Uiso   1.00
O907   O     0.77328   0.16667   0.81613   0.00000  Uiso   1.00
O908   O     0.89339   0.16666   0.68388   0.00000  Uiso   1.00
O909   O     0.84972   0.16666   0.81612   0.00000  Uiso   1.00
O910   O     0.81695   0.16667   0.68388   0.00000  Uiso   1.00
Zn911  Zn    0.78229   0.16667   0.75000   0.00000  Uiso   1.00
Zn912  Zn    0.88438   0.16666   0.75000   0.00000  Uiso   1.00
Br913  Br    0.96915   0.21806   0.61700   0.00000  Uiso   1.00
Br914  Br    0.69531   0.12137   0.88804   0.00000  Uiso   1.00
Br915  Br    0.99213   0.11684   0.50332   0.00000  Uiso   1.00
Br916  Br    0.99225   0.24882   0.50818   0.00000  Uiso   1.00
O917   O     0.88283   0.04217   0.79801   0.00000  Uiso   1.00
C918   C     0.93189   0.02793   0.78562   0.00000  Uiso   1.00
H919   H     0.95310   0.05312   0.79342   0.00000  Uiso   1.00
H920   H     0.95085   0.02030   0.74736   0.00000  Uiso   1.00
H921   H     0.93284   0.00055   0.80730   0.00000  Uiso   1.00
O922   O     0.78309   0.29185   0.70282   0.00000  Uiso   1.00
C923   C     0.73174   0.29963   0.72373   0.00000  Uiso   1.00
H924   H     0.71650   0.29530   0.76270   0.00000  Uiso   1.00
H925   H     0.71318   0.27694   0.70920   0.00000  Uiso   1.00
H926   H     0.72259   0.33136   0.71495   0.00000  Uiso   1.00
O927   O     0.97504   0.11711   0.68861   0.00000  Uiso   1.00
C928   C     0.67469   0.08387   0.66728   0.00000  Uiso   1.00
H929   H     0.68312   0.06515   0.69362   0.00000  Uiso   1.00
H930   H     0.70889   0.09559   0.63904   0.00000  Uiso   1.00
H931   H     0.99030   0.06271   0.65030   0.00000  Uiso   1.00
O932   O     0.69157   0.21801   0.80959   0.00000  Uiso   1.00
C933   C     0.98646   0.22433   0.85422   0.00000  Uiso   1.00
H934   H     0.96610   0.19516   0.86898   0.00000  Uiso   1.00
H935   H     0.96094   0.24938   0.85245   0.00000  Uiso   1.00
H936   H     0.66960   0.23499   0.87897   0.00000  Uiso   1.00
C937   C     0.16657   0.58000   0.74960   0.00000  Uiso   1.00
C938   C     0.16670   0.41999   0.75053   0.00000  Uiso   1.00
C939   C     0.10654   0.49550   0.55604   0.00000  Uiso   1.00
C940   C     0.20373   0.55029   0.95836   0.00000  Uiso   1.00
C941   C     0.07289   0.48616   0.53641   0.00000  Uiso   1.00
C942   C     0.23754   0.55906   0.97814   0.00000  Uiso   1.00
C943   C     0.19182   0.64433   0.77288   0.00000  Uiso   1.00
C944   C     0.14098   0.35561   0.72790   0.00000  Uiso   1.00
C945   C     0.19347   0.35406   0.77293   0.00000  Uiso   1.00
C946   C     0.13937   0.64601   0.72793   0.00000  Uiso   1.00
C947   C     0.16702   0.37584   0.75081   0.00000  Uiso   1.00
C948   C     0.16597   0.62413   0.74977   0.00000  Uiso   1.00
C949   C     0.32155   0.47437   0.71954   0.00000  Uiso   1.00
C950   C     0.01152   0.52503   0.78089   0.00000  Uiso   1.00
C951   C     0.03691   0.47505   0.71953   0.00000  Uiso   1.00
C952   C     0.29670   0.52539   0.77997   0.00000  Uiso   1.00
C953   C     0.13547   0.49921   0.83848   0.00000  Uiso   1.00
C954   C     0.19774   0.50149   0.66160   0.00000  Uiso   1.00
C955   C     0.11435   0.49859   0.89024   0.00000  Uiso   1.00
C956   C     0.21711   0.51000   0.61084   0.00000  Uiso   1.00
C957   C     0.05367   0.47725   0.96665   0.00000  Uiso   1.00
C958   C     0.26710   0.55005   0.54173   0.00000  Uiso   1.00
C959   C     0.06872   0.48004   0.91741   0.00000  Uiso   1.00
C960   C     0.25863   0.53511   0.58725   0.00000  Uiso   1.00
C961   C     0.14317   0.51524   0.91229   0.00000  Uiso   1.00
C962   C     0.18639   0.49902   0.58836   0.00000  Uiso   1.00
C963   C     0.12974   0.51210   0.96088   0.00000  Uiso   1.00
C964   C     0.19013   0.51787   0.54645   0.00000  Uiso   1.00
C965   C     0.08483   0.49208   0.98825   0.00000  Uiso   1.00
C966   C     0.23212   0.54233   0.52176   0.00000  Uiso   1.00
C967   C     0.16222   0.52519   0.98207   0.00000  Uiso   1.00
C968   C     0.15306   0.51236   0.52850   0.00000  Uiso   1.00
H969   H     0.03829   0.47275   0.55932   0.00000  Uiso   1.00
H970   H     0.26797   0.57902   0.95856   0.00000  Uiso   1.00
H971   H     0.15795   0.47659   0.60562   0.00000  Uiso   1.00
H972   H     0.17811   0.52824   0.89002   0.00000  Uiso   1.00
H973   H     0.09460   0.49016   0.59342   0.00000  Uiso   1.00
H974   H     0.21010   0.56506   0.92511   0.00000  Uiso   1.00
H975   H     0.20981   0.62653   0.79159   0.00000  Uiso   1.00
H976   H     0.12274   0.37316   0.70922   0.00000  Uiso   1.00
H977   H     0.06659   0.45616   0.69526   0.00000  Uiso   1.00
H978   H     0.26806   0.54611   0.80269   0.00000  Uiso   1.00
N979   N     0.04759   0.50001   0.75001   0.00000  Uiso   1.00
N980   N     0.28574   0.49999   0.74999   0.00000  Uiso   1.00
O981   O     0.12846   0.56108   0.75001   0.00000  Uiso   1.00
O982   O     0.20488   0.43892   0.75000   0.00000  Uiso   1.00
O983   O     0.20490   0.56107   0.75000   0.00000  Uiso   1.00
O984   O     0.12843   0.43893   0.75000   0.00000  Uiso   1.00
O985   O     0.10661   0.50001   0.81613   0.00000  Uiso   1.00
O986   O     0.22672   0.49999   0.68388   0.00000  Uiso   1.00
O987   O     0.18305   0.50000   0.81612   0.00000  Uiso   1.00
O988   O     0.15028   0.50000   0.68388   0.00000  Uiso   1.00
Zn989  Zn    0.11562   0.50001   0.75000   0.00000  Uiso   1.00
Zn990  Zn    0.21771   0.49999   0.75000   0.00000  Uiso   1.00
Br991  Br    0.30248   0.55139   0.61700   0.00000  Uiso   1.00
Br992  Br    0.02865   0.45470   0.88804   0.00000  Uiso   1.00
Br993  Br    0.32546   0.45017   0.50332   0.00000  Uiso   1.00
Br994  Br    0.32558   0.58215   0.50818   0.00000  Uiso   1.00
O995   O     0.21616   0.37550   0.79801   0.00000  Uiso   1.00
C996   C     0.26523   0.36126   0.78562   0.00000  Uiso   1.00
H997   H     0.28644   0.38646   0.79342   0.00000  Uiso   1.00
H998   H     0.28419   0.35364   0.74736   0.00000  Uiso   1.00
H999   H     0.26617   0.33388   0.80730   0.00000  Uiso   1.00
O1000  O     0.11642   0.62519   0.70282   0.00000  Uiso   1.00
C1001  C     0.06507   0.63296   0.72373   0.00000  Uiso   1.00
H1002  H     0.04984   0.62863   0.76270   0.00000  Uiso   1.00
H1003  H     0.04651   0.61027   0.70920   0.00000  Uiso   1.00
H1004  H     0.05592   0.66469   0.71495   0.00000  Uiso   1.00
O1005  O     0.30837   0.45044   0.68861   0.00000  Uiso   1.00
C1006  C     0.00803   0.41720   0.66728   0.00000  Uiso   1.00
H1007  H     0.01645   0.39848   0.69362   0.00000  Uiso   1.00
H1008  H     0.04222   0.42892   0.63904   0.00000  Uiso   1.00
H1009  H     0.32364   0.39604   0.65030   0.00000  Uiso   1.00
O1010  O     0.02490   0.55134   0.80959   0.00000  Uiso   1.00
C1011  C     0.31979   0.55767   0.85422   0.00000  Uiso   1.00
H1012  H     0.29943   0.52849   0.86898   0.00000  Uiso   1.00
H1013  H     0.29427   0.58272   0.85245   0.00000  Uiso   1.00
H1014  H     0.00293   0.56833   0.87897   0.00000  Uiso   1.00
C1015  C     0.49990   0.58000   0.74960   0.00000  Uiso   1.00
C1016  C     0.50003   0.41999   0.75053   0.00000  Uiso   1.00
C1017  C     0.43988   0.49550   0.55604   0.00000  Uiso   1.00
C1018  C     0.53706   0.55029   0.95836   0.00000  Uiso   1.00
C1019  C     0.40622   0.48616   0.53641   0.00000  Uiso   1.00
C1020  C     0.57087   0.55906   0.97814   0.00000  Uiso   1.00
C1021  C     0.52516   0.64433   0.77288   0.00000  Uiso   1.00
C1022  C     0.47431   0.35561   0.72790   0.00000  Uiso   1.00
C1023  C     0.52680   0.35406   0.77293   0.00000  Uiso   1.00
C1024  C     0.47270   0.64601   0.72793   0.00000  Uiso   1.00
C1025  C     0.50035   0.37584   0.75081   0.00000  Uiso   1.00
C1026  C     0.49931   0.62413   0.74977   0.00000  Uiso   1.00
C1027  C     0.65488   0.47437   0.71954   0.00000  Uiso   1.00
C1028  C     0.34485   0.52503   0.78089   0.00000  Uiso   1.00
C1029  C     0.37024   0.47505   0.71953   0.00000  Uiso   1.00
C1030  C     0.63003   0.52539   0.77997   0.00000  Uiso   1.00
C1031  C     0.46880   0.49921   0.83848   0.00000  Uiso   1.00
C1032  C     0.53108   0.50149   0.66160   0.00000  Uiso   1.00
C1033  C     0.44768   0.49859   0.89024   0.00000  Uiso   1.00
C1034  C     0.55045   0.51000   0.61084   0.00000  Uiso   1.00
C1035  C     0.38700   0.47725   0.96665   0.00000  Uiso   1.00
C1036  C     0.60043   0.55005   0.54173   0.00000  Uiso   1.00
C1037  C     0.40206   0.48004   0.91741   0.00000  Uiso   1.00
C1038  C     0.59197   0.53511   0.58725   0.00000  Uiso   1.00
C1039  C     0.47650   0.51524   0.91229   0.00000  Uiso   1.00
C1040  C     0.51972   0.49902   0.58836   0.00000  Uiso   1.00
C1041  C     0.46307   0.51210   0.96088   0.00000  Uiso   1.00
C1042  C     0.52346   0.51787   0.54645   0.00000  Uiso   1.00
C1043  C     0.41816   0.49208   0.98825   0.00000  Uiso   1.00
C1044  C     0.56545   0.54233   0.52176   0.00000  Uiso   1.00
C1045  C     0.49555   0.52519   0.98207   0.00000  Uiso   1.00
C1046  C     0.48640   0.51236   0.52850   0.00000  Uiso   1.00
H1047  H     0.37162   0.47275   0.55932   0.00000  Uiso   1.00
H1048  H     0.60130   0.57902   0.95856   0.00000  Uiso   1.00
H1049  H     0.49128   0.47659   0.60562   0.00000  Uiso   1.00
H1050  H     0.51144   0.52824   0.89002   0.00000  Uiso   1.00
H1051  H     0.42794   0.49016   0.59342   0.00000  Uiso   1.00
H1052  H     0.54344   0.56506   0.92511   0.00000  Uiso   1.00
H1053  H     0.54315   0.62653   0.79159   0.00000  Uiso   1.00
H1054  H     0.45608   0.37316   0.70922   0.00000  Uiso   1.00
H1055  H     0.39992   0.45616   0.69526   0.00000  Uiso   1.00
H1056  H     0.60139   0.54611   0.80269   0.00000  Uiso   1.00
N1057  N     0.38093   0.50001   0.75001   0.00000  Uiso   1.00
N1058  N     0.61907   0.49999   0.74999   0.00000  Uiso   1.00
O1059  O     0.46179   0.56108   0.75001   0.00000  Uiso   1.00
O1060  O     0.53821   0.43892   0.75000   0.00000  Uiso   1.00
O1061  O     0.53823   0.56107   0.75000   0.00000  Uiso   1.00
O1062  O     0.46177   0.43893   0.75000   0.00000  Uiso   1.00
O1063  O     0.43994   0.50001   0.81613   0.00000  Uiso   1.00
O1064  O     0.56006   0.49999   0.68388   0.00000  Uiso   1.00
O1065  O     0.51639   0.50000   0.81612   0.00000  Uiso   1.00
O1066  O     0.48361   0.50000   0.68388   0.00000  Uiso   1.00
Zn1067 Zn    0.44896   0.50001   0.75000   0.00000  Uiso   1.00
Zn1068 Zn    0.55104   0.49999   0.75000   0.00000  Uiso   1.00
Br1069 Br    0.63581   0.55139   0.61700   0.00000  Uiso   1.00
Br1070 Br    0.36198   0.45470   0.88804   0.00000  Uiso   1.00
Br1071 Br    0.65880   0.45017   0.50332   0.00000  Uiso   1.00
Br1072 Br    0.65892   0.58215   0.50818   0.00000  Uiso   1.00
O1073  O     0.54950   0.37550   0.79801   0.00000  Uiso   1.00
C1074  C     0.59856   0.36126   0.78562   0.00000  Uiso   1.00
H1075  H     0.61977   0.38646   0.79342   0.00000  Uiso   1.00
H1076  H     0.61752   0.35364   0.74736   0.00000  Uiso   1.00
H1077  H     0.59950   0.33388   0.80730   0.00000  Uiso   1.00
O1078  O     0.44976   0.62519   0.70282   0.00000  Uiso   1.00
C1079  C     0.39840   0.63296   0.72373   0.00000  Uiso   1.00
H1080  H     0.38317   0.62863   0.76270   0.00000  Uiso   1.00
H1081  H     0.37985   0.61027   0.70920   0.00000  Uiso   1.00
H1082  H     0.38925   0.66469   0.71495   0.00000  Uiso   1.00
O1083  O     0.64170   0.45044   0.68861   0.00000  Uiso   1.00
C1084  C     0.34136   0.41720   0.66728   0.00000  Uiso   1.00
H1085  H     0.34979   0.39848   0.69362   0.00000  Uiso   1.00
H1086  H     0.37555   0.42892   0.63904   0.00000  Uiso   1.00
H1087  H     0.65697   0.39604   0.65030   0.00000  Uiso   1.00
O1088  O     0.35824   0.55134   0.80959   0.00000  Uiso   1.00
C1089  C     0.65313   0.55767   0.85422   0.00000  Uiso   1.00
H1090  H     0.63277   0.52849   0.86898   0.00000  Uiso   1.00
H1091  H     0.62761   0.58272   0.85245   0.00000  Uiso   1.00
H1092  H     0.33627   0.56833   0.87897   0.00000  Uiso   1.00
C1093  C     0.83324   0.58000   0.74960   0.00000  Uiso   1.00
C1094  C     0.83336   0.41999   0.75053   0.00000  Uiso   1.00
C1095  C     0.77321   0.49550   0.55604   0.00000  Uiso   1.00
C1096  C     0.87040   0.55029   0.95836   0.00000  Uiso   1.00
C1097  C     0.73956   0.48616   0.53641   0.00000  Uiso   1.00
C1098  C     0.90420   0.55906   0.97814   0.00000  Uiso   1.00
C1099  C     0.85849   0.64433   0.77288   0.00000  Uiso   1.00
C1100  C     0.80765   0.35561   0.72790   0.00000  Uiso   1.00
C1101  C     0.86013   0.35406   0.77293   0.00000  Uiso   1.00
C1102  C     0.80603   0.64601   0.72793   0.00000  Uiso   1.00
C1103  C     0.83368   0.37584   0.75081   0.00000  Uiso   1.00
C1104  C     0.83264   0.62413   0.74977   0.00000  Uiso   1.00
C1105  C     0.98821   0.47437   0.71954   0.00000  Uiso   1.00
C1106  C     0.67818   0.52503   0.78089   0.00000  Uiso   1.00
C1107  C     0.70357   0.47505   0.71953   0.00000  Uiso   1.00
C1108  C     0.96336   0.52539   0.77997   0.00000  Uiso   1.00
C1109  C     0.80213   0.49921   0.83848   0.00000  Uiso   1.00
C1110  C     0.86441   0.50149   0.66160   0.00000  Uiso   1.00
C1111  C     0.78101   0.49859   0.89024   0.00000  Uiso   1.00
C1112  C     0.88378   0.51000   0.61084   0.00000  Uiso   1.00
C1113  C     0.72033   0.47725   0.96665   0.00000  Uiso   1.00
C1114  C     0.93376   0.55005   0.54173   0.00000  Uiso   1.00
C1115  C     0.73539   0.48004   0.91741   0.00000  Uiso   1.00
C1116  C     0.92530   0.53511   0.58725   0.00000  Uiso   1.00
C1117  C     0.80983   0.51524   0.91229   0.00000  Uiso   1.00
C1118  C     0.85305   0.49902   0.58836   0.00000  Uiso   1.00
C1119  C     0.79641   0.51210   0.96088   0.00000  Uiso   1.00
C1120  C     0.85680   0.51787   0.54645   0.00000  Uiso   1.00
C1121  C     0.75150   0.49208   0.98825   0.00000  Uiso   1.00
C1122  C     0.89879   0.54233   0.52176   0.00000  Uiso   1.00
C1123  C     0.82888   0.52519   0.98207   0.00000  Uiso   1.00
C1124  C     0.81973   0.51236   0.52850   0.00000  Uiso   1.00
H1125  H     0.70496   0.47275   0.55932   0.00000  Uiso   1.00
H1126  H     0.93464   0.57902   0.95856   0.00000  Uiso   1.00
H1127  H     0.82462   0.47659   0.60562   0.00000  Uiso   1.00
H1128  H     0.84477   0.52824   0.89002   0.00000  Uiso   1.00
H1129  H     0.76127   0.49016   0.59342   0.00000  Uiso   1.00
H1130  H     0.87677   0.56506   0.92511   0.00000  Uiso   1.00
H1131  H     0.87648   0.62653   0.79159   0.00000  Uiso   1.00
H1132  H     0.78941   0.37316   0.70922   0.00000  Uiso   1.00
H1133  H     0.73325   0.45616   0.69526   0.00000  Uiso   1.00
H1134  H     0.93473   0.54611   0.80269   0.00000  Uiso   1.00
N1135  N     0.71426   0.50001   0.75001   0.00000  Uiso   1.00
N1136  N     0.95241   0.49999   0.74999   0.00000  Uiso   1.00
O1137  O     0.79512   0.56108   0.75001   0.00000  Uiso   1.00
O1138  O     0.87154   0.43892   0.75000   0.00000  Uiso   1.00
O1139  O     0.87157   0.56107   0.75000   0.00000  Uiso   1.00
O1140  O     0.79510   0.43893   0.75000   0.00000  Uiso   1.00
O1141  O     0.77328   0.50001   0.81613   0.00000  Uiso   1.00
O1142  O     0.89339   0.49999   0.68388   0.00000  Uiso   1.00
O1143  O     0.84972   0.50000   0.81612   0.00000  Uiso   1.00
O1144  O     0.81695   0.50000   0.68388   0.00000  Uiso   1.00
Zn1145 Zn    0.78229   0.50001   0.75000   0.00000  Uiso   1.00
Zn1146 Zn    0.88438   0.49999   0.75000   0.00000  Uiso   1.00
Br1147 Br    0.96915   0.55139   0.61700   0.00000  Uiso   1.00
Br1148 Br    0.69531   0.45470   0.88804   0.00000  Uiso   1.00
Br1149 Br    0.99213   0.45017   0.50332   0.00000  Uiso   1.00
Br1150 Br    0.99225   0.58215   0.50818   0.00000  Uiso   1.00
O1151  O     0.88283   0.37550   0.79801   0.00000  Uiso   1.00
C1152  C     0.93189   0.36126   0.78562   0.00000  Uiso   1.00
H1153  H     0.95310   0.38646   0.79342   0.00000  Uiso   1.00
H1154  H     0.95085   0.35364   0.74736   0.00000  Uiso   1.00
H1155  H     0.93284   0.33388   0.80730   0.00000  Uiso   1.00
O1156  O     0.78309   0.62519   0.70282   0.00000  Uiso   1.00
C1157  C     0.73174   0.63296   0.72373   0.00000  Uiso   1.00
H1158  H     0.71650   0.62863   0.76270   0.00000  Uiso   1.00
H1159  H     0.71318   0.61027   0.70920   0.00000  Uiso   1.00
H1160  H     0.72259   0.66469   0.71495   0.00000  Uiso   1.00
O1161  O     0.97504   0.45044   0.68861   0.00000  Uiso   1.00
C1162  C     0.67469   0.41720   0.66728   0.00000  Uiso   1.00
H1163  H     0.68312   0.39848   0.69362   0.00000  Uiso   1.00
H1164  H     0.70889   0.42892   0.63904   0.00000  Uiso   1.00
H1165  H     0.99030   0.39604   0.65030   0.00000  Uiso   1.00
O1166  O     0.69157   0.55134   0.80959   0.00000  Uiso   1.00
C1167  C     0.98646   0.55767   0.85422   0.00000  Uiso   1.00
H1168  H     0.96610   0.52849   0.86898   0.00000  Uiso   1.00
H1169  H     0.96094   0.58272   0.85245   0.00000  Uiso   1.00
H1170  H     0.66960   0.56833   0.87897   0.00000  Uiso   1.00
C1171  C     0.16657   0.91334   0.74960   0.00000  Uiso   1.00
C1172  C     0.16670   0.75332   0.75053   0.00000  Uiso   1.00
C1173  C     0.10654   0.82883   0.55604   0.00000  Uiso   1.00
C1174  C     0.20373   0.88363   0.95836   0.00000  Uiso   1.00
C1175  C     0.07289   0.81949   0.53641   0.00000  Uiso   1.00
C1176  C     0.23754   0.89239   0.97814   0.00000  Uiso   1.00
C1177  C     0.19182   0.97766   0.77288   0.00000  Uiso   1.00
C1178  C     0.14098   0.68894   0.72790   0.00000  Uiso   1.00
C1179  C     0.19347   0.68740   0.77293   0.00000  Uiso   1.00
C1180  C     0.13937   0.97935   0.72793   0.00000  Uiso   1.00
C1181  C     0.16702   0.70918   0.75081   0.00000  Uiso   1.00
C1182  C     0.16597   0.95747   0.74977   0.00000  Uiso   1.00
C1183  C     0.32155   0.80770   0.71954   0.00000  Uiso   1.00
C1184  C     0.01152   0.85836   0.78089   0.00000  Uiso   1.00
C1185  C     0.03691   0.80838   0.71953   0.00000  Uiso   1.00
C1186  C     0.29670   0.85873   0.77997   0.00000  Uiso   1.00
C1187  C     0.13547   0.83254   0.83848   0.00000  Uiso   1.00
C1188  C     0.19774   0.83483   0.66160   0.00000  Uiso   1.00
C1189  C     0.11435   0.83192   0.89024   0.00000  Uiso   1.00
C1190  C     0.21711   0.84334   0.61084   0.00000  Uiso   1.00
C1191  C     0.05367   0.81058   0.96665   0.00000  Uiso   1.00
C1192  C     0.26710   0.88338   0.54173   0.00000  Uiso   1.00
C1193  C     0.06872   0.81337   0.91741   0.00000  Uiso   1.00
C1194  C     0.25863   0.86845   0.58725   0.00000  Uiso   1.00
C1195  C     0.14317   0.84857   0.91229   0.00000  Uiso   1.00
C1196  C     0.18639   0.83235   0.58836   0.00000  Uiso   1.00
C1197  C     0.12974   0.84543   0.96088   0.00000  Uiso   1.00
C1198  C     0.19013   0.85120   0.54645   0.00000  Uiso   1.00
C1199  C     0.08483   0.82541   0.98825   0.00000  Uiso   1.00
C1200  C     0.23212   0.87566   0.52176   0.00000  Uiso   1.00
C1201  C     0.16222   0.85853   0.98207   0.00000  Uiso   1.00
C1202  C     0.15306   0.84569   0.52850   0.00000  Uiso   1.00
H1203  H     0.03829   0.80608   0.55932   0.00000  Uiso   1.00
H1204  H     0.26797   0.91235   0.95856   0.00000  Uiso   1.00
H1205  H     0.15795   0.80993   0.60562   0.00000  Uiso   1.00
H1206  H     0.17811   0.86157   0.89002   0.00000  Uiso   1.00
H1207  H     0.09460   0.82349   0.59342   0.00000  Uiso   1.00
H1208  H     0.21010   0.89840   0.92511   0.00000  Uiso   1.00
H1209  H     0.20981   0.95987   0.79159   0.00000  Uiso   1.00
H1210  H     0.12274   0.70649   0.70922   0.00000  Uiso   1.00
H1211  H     0.06659   0.78950   0.69526   0.00000  Uiso   1.00
H1212  H     0.26806   0.87944   0.80269   0.00000  Uiso   1.00
N1213  N     0.04759   0.83334   0.75001   0.00000  Uiso   1.00
N1214  N     0.28574   0.83332   0.74999   0.00000  Uiso   1.00
O1215  O     0.12846   0.89442   0.75001   0.00000  Uiso   1.00
O1216  O     0.20488   0.77225   0.75000   0.00000  Uiso   1.00
O1217  O     0.20490   0.89441   0.75000   0.00000  Uiso   1.00
O1218  O     0.12843   0.77226   0.75000   0.00000  Uiso   1.00
O1219  O     0.10661   0.83334   0.81613   0.00000  Uiso   1.00
O1220  O     0.22672   0.83333   0.68388   0.00000  Uiso   1.00
O1221  O     0.18305   0.83333   0.81612   0.00000  Uiso   1.00
O1222  O     0.15028   0.83334   0.68388   0.00000  Uiso   1.00
Zn1223 Zn    0.11562   0.83334   0.75000   0.00000  Uiso   1.00
Zn1224 Zn    0.21771   0.83333   0.75000   0.00000  Uiso   1.00
Br1225 Br    0.30248   0.88472   0.61700   0.00000  Uiso   1.00
Br1226 Br    0.02865   0.78803   0.88804   0.00000  Uiso   1.00
Br1227 Br    0.32546   0.78351   0.50332   0.00000  Uiso   1.00
Br1228 Br    0.32558   0.91549   0.50818   0.00000  Uiso   1.00
O1229  O     0.21616   0.70884   0.79801   0.00000  Uiso   1.00
C1230  C     0.26523   0.69460   0.78562   0.00000  Uiso   1.00
H1231  H     0.28644   0.71979   0.79342   0.00000  Uiso   1.00
H1232  H     0.28419   0.68697   0.74736   0.00000  Uiso   1.00
H1233  H     0.26617   0.66721   0.80730   0.00000  Uiso   1.00
O1234  O     0.11642   0.95852   0.70282   0.00000  Uiso   1.00
C1235  C     0.06507   0.96629   0.72373   0.00000  Uiso   1.00
H1236  H     0.04984   0.96197   0.76270   0.00000  Uiso   1.00
H1237  H     0.04651   0.94361   0.70920   0.00000  Uiso   1.00
H1238  H     0.05592   0.99803   0.71495   0.00000  Uiso   1.00
O1239  O     0.30837   0.78377   0.68861   0.00000  Uiso   1.00
C1240  C     0.00803   0.75054   0.66728   0.00000  Uiso   1.00
H1241  H     0.01645   0.73181   0.69362   0.00000  Uiso   1.00
H1242  H     0.04222   0.76226   0.63904   0.00000  Uiso   1.00
H1243  H     0.32364   0.72937   0.65030   0.00000  Uiso   1.00
O1244  O     0.02490   0.88468   0.80959   0.00000  Uiso   1.00
C1245  C     0.31979   0.89100   0.85422   0.00000  Uiso   1.00
H1246  H     0.29943   0.86183   0.86898   0.00000  Uiso   1.00
H1247  H     0.29427   0.91605   0.85245   0.00000  Uiso   1.00
H1248  H     0.00293   0.90166   0.87897   0.00000  Uiso   1.00
C1249  C     0.49990   0.91334   0.74960   0.00000  Uiso   1.00
C1250  C     0.50003   0.75332   0.75053   0.00000  Uiso   1.00
C1251  C     0.43988   0.82883   0.55604   0.00000  Uiso   1.00
C1252  C     0.53706   0.88363   0.95836   0.00000  Uiso   1.00
C1253  C     0.40622   0.81949   0.53641   0.00000  Uiso   1.00
C1254  C     0.57087   0.89239   0.97814   0.00000  Uiso   1.00
C1255  C     0.52516   0.97766   0.77288   0.00000  Uiso   1.00
C1256  C     0.47431   0.68894   0.72790   0.00000  Uiso   1.00
C1257  C     0.52680   0.68740   0.77293   0.00000  Uiso   1.00
C1258  C     0.47270   0.97935   0.72793   0.00000  Uiso   1.00
C1259  C     0.50035   0.70918   0.75081   0.00000  Uiso   1.00
C1260  C     0.49931   0.95747   0.74977   0.00000  Uiso   1.00
C1261  C     0.65488   0.80770   0.71954   0.00000  Uiso   1.00
C1262  C     0.34485   0.85836   0.78089   0.00000  Uiso   1.00
C1263  C     0.37024   0.80838   0.71953   0.00000  Uiso   1.00
C1264  C     0.63003   0.85873   0.77997   0.00000  Uiso   1.00
C1265  C     0.46880   0.83254   0.83848   0.00000  Uiso   1.00
C1266  C     0.53108   0.83483   0.66160   0.00000  Uiso   1.00
C1267  C     0.44768   0.83192   0.89024   0.00000  Uiso   1.00
C1268  C     0.55045   0.84334   0.61084   0.00000  Uiso   1.00
C1269  C     0.38700   0.81058   0.96665   0.00000  Uiso   1.00
C1270  C     0.60043   0.88338   0.54173   0.00000  Uiso   1.00
C1271  C     0.40206   0.81337   0.91741   0.00000  Uiso   1.00
C1272  C     0.59197   0.86845   0.58725   0.00000  Uiso   1.00
C1273  C     0.47650   0.84857   0.91229   0.00000  Uiso   1.00
C1274  C     0.51972   0.83235   0.58836   0.00000  Uiso   1.00
C1275  C     0.46307   0.84543   0.96088   0.00000  Uiso   1.00
C1276  C     0.52346   0.85120   0.54645   0.00000  Uiso   1.00
C1277  C     0.41816   0.82541   0.98825   0.00000  Uiso   1.00
C1278  C     0.56545   0.87566   0.52176   0.00000  Uiso   1.00
C1279  C     0.49555   0.85853   0.98207   0.00000  Uiso   1.00
C1280  C     0.48640   0.84569   0.52850   0.00000  Uiso   1.00
H1281  H     0.37162   0.80608   0.55932   0.00000  Uiso   1.00
H1282  H     0.60130   0.91235   0.95856   0.00000  Uiso   1.00
H1283  H     0.49128   0.80993   0.60562   0.00000  Uiso   1.00
H1284  H     0.51144   0.86157   0.89002   0.00000  Uiso   1.00
H1285  H     0.42794   0.82349   0.59342   0.00000  Uiso   1.00
H1286  H     0.54344   0.89840   0.92511   0.00000  Uiso   1.00
H1287  H     0.54315   0.95987   0.79159   0.00000  Uiso   1.00
H1288  H     0.45608   0.70649   0.70922   0.00000  Uiso   1.00
H1289  H     0.39992   0.78950   0.69526   0.00000  Uiso   1.00
H1290  H     0.60139   0.87944   0.80269   0.00000  Uiso   1.00
N1291  N     0.38093   0.83334   0.75001   0.00000  Uiso   1.00
N1292  N     0.61907   0.83332   0.74999   0.00000  Uiso   1.00
O1293  O     0.46179   0.89442   0.75001   0.00000  Uiso   1.00
O1294  O     0.53821   0.77225   0.75000   0.00000  Uiso   1.00
O1295  O     0.53823   0.89441   0.75000   0.00000  Uiso   1.00
O1296  O     0.46177   0.77226   0.75000   0.00000  Uiso   1.00
O1297  O     0.43994   0.83334   0.81613   0.00000  Uiso   1.00
O1298  O     0.56006   0.83333   0.68388   0.00000  Uiso   1.00
O1299  O     0.51639   0.83333   0.81612   0.00000  Uiso   1.00
O1300  O     0.48361   0.83334   0.68388   0.00000  Uiso   1.00
Zn1301 Zn    0.44896   0.83334   0.75000   0.00000  Uiso   1.00
Zn1302 Zn    0.55104   0.83333   0.75000   0.00000  Uiso   1.00
Br1303 Br    0.63581   0.88472   0.61700   0.00000  Uiso   1.00
Br1304 Br    0.36198   0.78803   0.88804   0.00000  Uiso   1.00
Br1305 Br    0.65880   0.78351   0.50332   0.00000  Uiso   1.00
Br1306 Br    0.65892   0.91549   0.50818   0.00000  Uiso   1.00
O1307  O     0.54950   0.70884   0.79801   0.00000  Uiso   1.00
C1308  C     0.59856   0.69460   0.78562   0.00000  Uiso   1.00
H1309  H     0.61977   0.71979   0.79342   0.00000  Uiso   1.00
H1310  H     0.61752   0.68697   0.74736   0.00000  Uiso   1.00
H1311  H     0.59950   0.66721   0.80730   0.00000  Uiso   1.00
O1312  O     0.44976   0.95852   0.70282   0.00000  Uiso   1.00
C1313  C     0.39840   0.96629   0.72373   0.00000  Uiso   1.00
H1314  H     0.38317   0.96197   0.76270   0.00000  Uiso   1.00
H1315  H     0.37985   0.94361   0.70920   0.00000  Uiso   1.00
H1316  H     0.38925   0.99803   0.71495   0.00000  Uiso   1.00
O1317  O     0.64170   0.78377   0.68861   0.00000  Uiso   1.00
C1318  C     0.34136   0.75054   0.66728   0.00000  Uiso   1.00
H1319  H     0.34979   0.73181   0.69362   0.00000  Uiso   1.00
H1320  H     0.37555   0.76226   0.63904   0.00000  Uiso   1.00
H1321  H     0.65697   0.72937   0.65030   0.00000  Uiso   1.00
O1322  O     0.35824   0.88468   0.80959   0.00000  Uiso   1.00
C1323  C     0.65313   0.89100   0.85422   0.00000  Uiso   1.00
H1324  H     0.63277   0.86183   0.86898   0.00000  Uiso   1.00
H1325  H     0.62761   0.91605   0.85245   0.00000  Uiso   1.00
H1326  H     0.33627   0.90166   0.87897   0.00000  Uiso   1.00
C1327  C     0.83324   0.91334   0.74960   0.00000  Uiso   1.00
C1328  C     0.83336   0.75332   0.75053   0.00000  Uiso   1.00
C1329  C     0.77321   0.82883   0.55604   0.00000  Uiso   1.00
C1330  C     0.87040   0.88363   0.95836   0.00000  Uiso   1.00
C1331  C     0.73956   0.81949   0.53641   0.00000  Uiso   1.00
C1332  C     0.90420   0.89239   0.97814   0.00000  Uiso   1.00
C1333  C     0.85849   0.97766   0.77288   0.00000  Uiso   1.00
C1334  C     0.80765   0.68894   0.72790   0.00000  Uiso   1.00
C1335  C     0.86013   0.68740   0.77293   0.00000  Uiso   1.00
C1336  C     0.80603   0.97935   0.72793   0.00000  Uiso   1.00
C1337  C     0.83368   0.70918   0.75081   0.00000  Uiso   1.00
C1338  C     0.83264   0.95747   0.74977   0.00000  Uiso   1.00
C1339  C     0.98821   0.80770   0.71954   0.00000  Uiso   1.00
C1340  C     0.67818   0.85836   0.78089   0.00000  Uiso   1.00
C1341  C     0.70357   0.80838   0.71953   0.00000  Uiso   1.00
C1342  C     0.96336   0.85873   0.77997   0.00000  Uiso   1.00
C1343  C     0.80213   0.83254   0.83848   0.00000  Uiso   1.00
C1344  C     0.86441   0.83483   0.66160   0.00000  Uiso   1.00
C1345  C     0.78101   0.83192   0.89024   0.00000  Uiso   1.00
C1346  C     0.88378   0.84334   0.61084   0.00000  Uiso   1.00
C1347  C     0.72033   0.81058   0.96665   0.00000  Uiso   1.00
C1348  C     0.93376   0.88338   0.54173   0.00000  Uiso   1.00
C1349  C     0.73539   0.81337   0.91741   0.00000  Uiso   1.00
C1350  C     0.92530   0.86845   0.58725   0.00000  Uiso   1.00
C1351  C     0.80983   0.84857   0.91229   0.00000  Uiso   1.00
C1352  C     0.85305   0.83235   0.58836   0.00000  Uiso   1.00
C1353  C     0.79641   0.84543   0.96088   0.00000  Uiso   1.00
C1354  C     0.85680   0.85120   0.54645   0.00000  Uiso   1.00
C1355  C     0.75150   0.82541   0.98825   0.00000  Uiso   1.00
C1356  C     0.89879   0.87566   0.52176   0.00000  Uiso   1.00
C1357  C     0.82888   0.85853   0.98207   0.00000  Uiso   1.00
C1358  C     0.81973   0.84569   0.52850   0.00000  Uiso   1.00
H1359  H     0.70496   0.80608   0.55932   0.00000  Uiso   1.00
H1360  H     0.93464   0.91235   0.95856   0.00000  Uiso   1.00
H1361  H     0.82462   0.80993   0.60562   0.00000  Uiso   1.00
H1362  H     0.84477   0.86157   0.89002   0.00000  Uiso   1.00
H1363  H     0.76127   0.82349   0.59342   0.00000  Uiso   1.00
H1364  H     0.87677   0.89840   0.92511   0.00000  Uiso   1.00
H1365  H     0.87648   0.95987   0.79159   0.00000  Uiso   1.00
H1366  H     0.78941   0.70649   0.70922   0.00000  Uiso   1.00
H1367  H     0.73325   0.78950   0.69526   0.00000  Uiso   1.00
H1368  H     0.93473   0.87944   0.80269   0.00000  Uiso   1.00
N1369  N     0.71426   0.83334   0.75001   0.00000  Uiso   1.00
N1370  N     0.95241   0.83332   0.74999   0.00000  Uiso   1.00
O1371  O     0.79512   0.89442   0.75001   0.00000  Uiso   1.00
O1372  O     0.87154   0.77225   0.75000   0.00000  Uiso   1.00
O1373  O     0.87157   0.89441   0.75000   0.00000  Uiso   1.00
O1374  O     0.79510   0.77226   0.75000   0.00000  Uiso   1.00
O1375  O     0.77328   0.83334   0.81613   0.00000  Uiso   1.00
O1376  O     0.89339   0.83333   0.68388   0.00000  Uiso   1.00
O1377  O     0.84972   0.83333   0.81612   0.00000  Uiso   1.00
O1378  O     0.81695   0.83334   0.68388   0.00000  Uiso   1.00
Zn1379 Zn    0.78229   0.83334   0.75000   0.00000  Uiso   1.00
Zn1380 Zn    0.88438   0.83333   0.75000   0.00000  Uiso   1.00
Br1381 Br    0.96915   0.88472   0.61700   0.00000  Uiso   1.00
Br1382 Br    0.69531   0.78803   0.88804   0.00000  Uiso   1.00
Br1383 Br    0.99213   0.78351   0.50332   0.00000  Uiso   1.00
Br1384 Br    0.99225   0.91549   0.50818   0.00000  Uiso   1.00
O1385  O     0.88283   0.70884   0.79801   0.00000  Uiso   1.00
C1386  C     0.93189   0.69460   0.78562   0.00000  Uiso   1.00
H1387  H     0.95310   0.71979   0.79342   0.00000  Uiso   1.00
H1388  H     0.95085   0.68697   0.74736   0.00000  Uiso   1.00
H1389  H     0.93284   0.66721   0.80730   0.00000  Uiso   1.00
O1390  O     0.78309   0.95852   0.70282   0.00000  Uiso   1.00
C1391  C     0.73174   0.96629   0.72373   0.00000  Uiso   1.00
H1392  H     0.71650   0.96197   0.76270   0.00000  Uiso   1.00
H1393  H     0.71318   0.94361   0.70920   0.00000  Uiso   1.00
H1394  H     0.72259   0.99803   0.71495   0.00000  Uiso   1.00
O1395  O     0.97504   0.78377   0.68861   0.00000  Uiso   1.00
C1396  C     0.67469   0.75054   0.66728   0.00000  Uiso   1.00
H1397  H     0.68312   0.73181   0.69362   0.00000  Uiso   1.00
H1398  H     0.70889   0.76226   0.63904   0.00000  Uiso   1.00
H1399  H     0.99030   0.72937   0.65030   0.00000  Uiso   1.00
O1400  O     0.69157   0.88468   0.80959   0.00000  Uiso   1.00
C1401  C     0.98646   0.89100   0.85422   0.00000  Uiso   1.00
H1402  H     0.96610   0.86183   0.86898   0.00000  Uiso   1.00
H1403  H     0.96094   0.91605   0.85245   0.00000  Uiso   1.00
H1404  H     0.66960   0.90166   0.87897   0.00000  Uiso   1.00
loop_
_geom_bond_atom_site_label_1
_geom_bond_atom_site_label_2
_geom_bond_distance
_geom_bond_site_symmetry_2
_ccdc_geom_bond_type
C1     C12     1.415   .     S
C1     O47     1.282   .     A
C1     O45     1.279   .     A
C2     O46     1.279   .     A
C2     C11     1.416   .     S
C2     O48     1.281   .     A
C3     C32     1.413   .     A
C3     C5      1.386   .     A
C3     H37     1.079   .     S
C4     C6      1.389   .     A
C4     H38     1.078   .     S
C4     C31     1.414   .     A
C5     H33     1.081   .     S
C5     C731    1.399   1_554 S
C6     H34     1.080   .     S
C6     C732    1.399   .     S
C7     C12     1.395   .     A
C7     H39     1.084   .     S
C7     C243    1.383   .     S
C8     C11     1.395   .     A
C8     H40     1.084   .     S
C8     C478    1.378   1_545 S
C9     O59     1.391   .     S
C9     C11     1.403   .     A
C9     C475    1.383   1_545 S
C10    C12     1.402   .     A
C10    O64     1.387   .     S
C10    C242    1.378   .     S
C13    O69     1.395   .     S
C13    N44     1.368   .     A
C13    C93     1.436   .     S
C14    O74     1.390   .     S
C14    N43     1.366   .     A
C14    C172    1.431   1_455 S
C15    H41     1.080   .     S
C15    N43     1.364   .     A
C15    C169    1.436   1_455 S
C16    N44     1.365   .     A
C16    H42     1.080   .     S
C16    C92     1.431   .     S
C17    O51     1.298   .     A
C17    O49     1.289   .     A
C17    C19     1.468   .     S
C18    O52     1.296   .     A
C18    O50     1.290   .     A
C18    C20     1.467   .     S
C19    C23     1.413   .     A
C19    C25     1.391   .     A
C20    C24     1.414   .     A
C20    C26     1.388   .     A
C21    C23     1.408   .     A
C21    C29     1.416   .     A
C21    Br915   1.936   1_455 S
C22    C24     1.411   .     A
C22    C30     1.417   .     A
C22    Br58    1.934   .     S
C23    Br56    1.934   .     S
C24    Br55    1.932   .     S
C25    C27     1.395   .     A
C25    H36     1.077   .     S
C26    C28     1.392   .     A
C26    H35     1.080   .     S
C27    C29     1.421   .     A
C27    C31     1.422   .     A
C28    C32     1.419   .     A
C28    C30     1.417   .     A
C29    C707    1.399   .     S
C30    C708    1.399   1_554 S
C31    C734    1.411   .     S
C32    C733    1.411   1_554 S
N43    Zn53    2.006   .     S
N44    Zn54    2.006   .     S
O45    Zn53    1.999   .     S
O46    Zn54    1.999   .     S
O47    Zn54    1.991   .     S
O48    Zn53    1.991   .     S
O49    Zn53    1.950   .     S
O50    Zn54    1.950   .     S
O51    Zn54    1.888   .     S
O52    Zn53    1.888   .     S
Br57   C801    1.936   1_554 S
O59    C60     1.414   .     S
C60    H63     1.111   .     S
C60    H62     1.115   .     S
C60    H61     1.110   .     S
O64    C65     1.412   .     S
C65    H67     1.110   .     S
C65    H68     1.111   .     S
C65    H66     1.114   .     S
O69    C148    1.410   .     S
C70    H71     1.113   .     S
C70    H72     1.111   .     S
C70    O225    1.410   1_455 S
C70    H229    1.109   1_455 S
H73    C148    1.109   .     S
O74    C231    1.410   1_455 S
C75    H76     1.114   .     S
C75    H77     1.111   .     S
C75    O152    1.410   .     S
C75    H156    1.109   .     S
H78    C231    1.109   1_455 S
C79    C90     1.415   .     S
C79    O125    1.282   .     A
C79    O123    1.279   .     A
C80    O124    1.279   .     A
C80    C89     1.416   .     S
C80    O126    1.281   .     A
C81    C110    1.413   .     A
C81    C83     1.386   .     A
C81    H115    1.079   .     S
C82    C84     1.389   .     A
C82    H116    1.078   .     S
C82    C109    1.414   .     A
C83    H111    1.081   .     S
C83    C809    1.399   1_554 S
C84    H112    1.080   .     S
C84    C810    1.399   .     S
C85    C90     1.395   .     A
C85    H117    1.084   .     S
C85    C321    1.383   .     S
C86    C89     1.395   .     A
C86    H118    1.084   .     S
C86    C556    1.378   1_545 S
C87    O137    1.391   .     S
C87    C89     1.403   .     A
C87    C553    1.383   1_545 S
C88    C90     1.402   .     A
C88    O142    1.387   .     S
C88    C320    1.378   .     S
C91    O147    1.395   .     S
C91    N122    1.368   .     A
C91    C171    1.436   .     S
C92    O152    1.390   .     S
C92    N121    1.366   .     A
C93    H119    1.080   .     S
C93    N121    1.364   .     A
C94    N122    1.365   .     A
C94    H120    1.080   .     S
C94    C170    1.431   .     S
C95    O129    1.298   .     A
C95    O127    1.289   .     A
C95    C97     1.468   .     S
C96    O130    1.296   .     A
C96    O128    1.290   .     A
C96    C98     1.467   .     S
C97    C101    1.413   .     A
C97    C103    1.391   .     A
C98    C102    1.414   .     A
C98    C104    1.388   .     A
C99    C101    1.408   .     A
C99    C107    1.416   .     A
C99    Br759   1.936   .     S
C100   C102    1.411   .     A
C100   C108    1.417   .     A
C100   Br136   1.934   .     S
C101   Br134   1.934   .     S
C102   Br133   1.932   .     S
C103   C105    1.395   .     A
C103   H114    1.077   .     S
C104   C106    1.392   .     A
C104   H113    1.080   .     S
C105   C107    1.421   .     A
C105   C109    1.422   .     A
C106   C110    1.419   .     A
C106   C108    1.417   .     A
C107   C785    1.399   .     S
C108   C786    1.399   1_554 S
C109   C812    1.411   .     S
C110   C811    1.411   1_554 S
N121   Zn131   2.006   .     S
N122   Zn132   2.006   .     S
O123   Zn131   1.999   .     S
O124   Zn132   1.999   .     S
O125   Zn132   1.991   .     S
O126   Zn131   1.991   .     S
O127   Zn131   1.950   .     S
O128   Zn132   1.950   .     S
O129   Zn132   1.888   .     S
O130   Zn131   1.888   .     S
Br135  C879    1.936   1_554 S
O137   C138    1.414   .     S
C138   H141    1.111   .     S
C138   H140    1.115   .     S
C138   H139    1.110   .     S
O142   C143    1.412   .     S
C143   H145    1.110   .     S
C143   H146    1.111   .     S
C143   H144    1.114   .     S
O147   C226    1.410   .     S
C148   H149    1.113   .     S
C148   H150    1.111   .     S
H151   C226    1.109   .     S
C153   H154    1.114   .     S
C153   H155    1.111   .     S
C153   O230    1.410   .     S
C153   H234    1.109   .     S
C157   C168    1.415   .     S
C157   O203    1.282   .     A
C157   O201    1.279   .     A
C158   O202    1.279   .     A
C158   C167    1.416   .     S
C158   O204    1.281   .     A
C159   C188    1.413   .     A
C159   C161    1.386   .     A
C159   H193    1.079   .     S
C160   C162    1.389   .     A
C160   H194    1.078   .     S
C160   C187    1.414   .     A
C161   H189    1.081   .     S
C161   C887    1.399   1_554 S
C162   H190    1.080   .     S
C162   C888    1.399   .     S
C163   C168    1.395   .     A
C163   H195    1.084   .     S
C163   C399    1.383   .     S
C164   C167    1.395   .     A
C164   H196    1.084   .     S
C164   C634    1.378   1_545 S
C165   O215    1.391   .     S
C165   C167    1.403   .     A
C165   C631    1.383   1_545 S
C166   C168    1.402   .     A
C166   O220    1.387   .     S
C166   C398    1.378   .     S
C169   O225    1.395   .     S
C169   N200    1.368   .     A
C169   C15     1.436   1_655 S
C170   O230    1.390   .     S
C170   N199    1.366   .     A
C171   H197    1.080   .     S
C171   N199    1.364   .     A
C172   N200    1.365   .     A
C172   H198    1.080   .     S
C172   C14     1.431   1_655 S
C173   O207    1.298   .     A
C173   O205    1.289   .     A
C173   C175    1.468   .     S
C174   O208    1.296   .     A
C174   O206    1.290   .     A
C174   C176    1.467   .     S
C175   C179    1.413   .     A
C175   C181    1.391   .     A
C176   C180    1.414   .     A
C176   C182    1.388   .     A
C177   C179    1.408   .     A
C177   C185    1.416   .     A
C177   Br837   1.936   .     S
C178   C180    1.411   .     A
C178   C186    1.417   .     A
C178   Br214   1.934   .     S
C179   Br212   1.934   .     S
C180   Br211   1.932   .     S
C181   C183    1.395   .     A
C181   H192    1.077   .     S
C182   C184    1.392   .     A
C182   H191    1.080   .     S
C183   C185    1.421   .     A
C183   C187    1.422   .     A
C184   C188    1.419   .     A
C184   C186    1.417   .     A
C185   C863    1.399   .     S
C186   C864    1.399   1_554 S
C187   C890    1.411   .     S
C188   C889    1.411   1_554 S
N199   Zn209   2.006   .     S
N200   Zn210   2.006   .     S
O201   Zn209   1.999   .     S
O202   Zn210   1.999   .     S
O203   Zn210   1.991   .     S
O204   Zn209   1.991   .     S
O205   Zn209   1.950   .     S
O206   Zn210   1.950   .     S
O207   Zn210   1.888   .     S
O208   Zn209   1.888   .     S
Br213  C723    1.936   1_654 S
O215   C216    1.414   .     S
C216   H219    1.111   .     S
C216   H218    1.115   .     S
C216   H217    1.110   .     S
O220   C221    1.412   .     S
C221   H223    1.110   .     S
C221   H224    1.111   .     S
C221   H222    1.114   .     S
O225   C70     1.410   1_655 S
C226   H227    1.113   .     S
C226   H228    1.111   .     S
H229   C70     1.109   1_655 S
C231   H232    1.114   .     S
C231   H233    1.111   .     S
C231   O74     1.410   1_655 S
C231   H78     1.109   1_655 S
C235   C246    1.415   .     S
C235   O281    1.282   .     A
C235   O279    1.279   .     A
C236   O280    1.279   .     A
C236   C245    1.416   .     S
C236   O282    1.281   .     A
C237   C266    1.413   .     A
C237   C239    1.386   .     A
C237   H271    1.079   .     S
C238   C240    1.389   .     A
C238   H272    1.078   .     S
C238   C265    1.414   .     A
C239   H267    1.081   .     S
C239   C965    1.399   1_554 S
C240   H268    1.080   .     S
C240   C966    1.399   .     S
C241   C246    1.395   .     A
C241   H273    1.084   .     S
C241   C477    1.383   .     S
C242   C245    1.395   .     A
C242   H274    1.084   .     S
C243   O293    1.391   .     S
C243   C245    1.403   .     A
C244   C246    1.402   .     A
C244   O298    1.387   .     S
C244   C476    1.378   .     S
C247   O303    1.395   .     S
C247   N278    1.368   .     A
C247   C327    1.436   .     S
C248   O308    1.390   .     S
C248   N277    1.366   .     A
C248   C406    1.431   1_455 S
C249   H275    1.080   .     S
C249   N277    1.364   .     A
C249   C403    1.436   1_455 S
C250   N278    1.365   .     A
C250   H276    1.080   .     S
C250   C326    1.431   .     S
C251   O285    1.298   .     A
C251   O283    1.289   .     A
C251   C253    1.468   .     S
C252   O286    1.296   .     A
C252   O284    1.290   .     A
C252   C254    1.467   .     S
C253   C257    1.413   .     A
C253   C259    1.391   .     A
C254   C258    1.414   .     A
C254   C260    1.388   .     A
C255   C257    1.408   .     A
C255   C263    1.416   .     A
C255   Br1149  1.936   1_455 S
C256   C258    1.411   .     A
C256   C264    1.417   .     A
C256   Br292   1.934   .     S
C257   Br290   1.934   .     S
C258   Br289   1.932   .     S
C259   C261    1.395   .     A
C259   H270    1.077   .     S
C260   C262    1.392   .     A
C260   H269    1.080   .     S
C261   C263    1.421   .     A
C261   C265    1.422   .     A
C262   C266    1.419   .     A
C262   C264    1.417   .     A
C263   C941    1.399   .     S
C264   C942    1.399   1_554 S
C265   C968    1.411   .     S
C266   C967    1.411   1_554 S
N277   Zn287   2.006   .     S
N278   Zn288   2.006   .     S
O279   Zn287   1.999   .     S
O280   Zn288   1.999   .     S
O281   Zn288   1.991   .     S
O282   Zn287   1.991   .     S
O283   Zn287   1.950   .     S
O284   Zn288   1.950   .     S
O285   Zn288   1.888   .     S
O286   Zn287   1.888   .     S
Br291  C1035   1.936   1_554 S
O293   C294    1.414   .     S
C294   H297    1.111   .     S
C294   H296    1.115   .     S
C294   H295    1.110   .     S
O298   C299    1.412   .     S
C299   H301    1.110   .     S
C299   H302    1.111   .     S
C299   H300    1.114   .     S
O303   C382    1.410   .     S
C304   H305    1.113   .     S
C304   H306    1.111   .     S
C304   O459    1.410   1_455 S
C304   H463    1.109   1_455 S
H307   C382    1.109   .     S
O308   C465    1.410   1_455 S
C309   H310    1.114   .     S
C309   H311    1.111   .     S
C309   O386    1.410   .     S
C309   H390    1.109   .     S
H312   C465    1.109   1_455 S
C313   C324    1.415   .     S
C313   O359    1.282   .     A
C313   O357    1.279   .     A
C314   O358    1.279   .     A
C314   C323    1.416   .     S
C314   O360    1.281   .     A
C315   C344    1.413   .     A
C315   C317    1.386   .     A
C315   H349    1.079   .     S
C316   C318    1.389   .     A
C316   H350    1.078   .     S
C316   C343    1.414   .     A
C317   H345    1.081   .     S
C317   C1043   1.399   1_554 S
C318   H346    1.080   .     S
C318   C1044   1.399   .     S
C319   C324    1.395   .     A
C319   H351    1.084   .     S
C319   C555    1.383   .     S
C320   C323    1.395   .     A
C320   H352    1.084   .     S
C321   O371    1.391   .     S
C321   C323    1.403   .     A
C322   C324    1.402   .     A
C322   O376    1.387   .     S
C322   C554    1.378   .     S
C325   O381    1.395   .     S
C325   N356    1.368   .     A
C325   C405    1.436   .     S
C326   O386    1.390   .     S
C326   N355    1.366   .     A
C327   H353    1.080   .     S
C327   N355    1.364   .     A
C328   N356    1.365   .     A
C328   H354    1.080   .     S
C328   C404    1.431   .     S
C329   O363    1.298   .     A
C329   O361    1.289   .     A
C329   C331    1.468   .     S
C330   O364    1.296   .     A
C330   O362    1.290   .     A
C330   C332    1.467   .     S
C331   C335    1.413   .     A
C331   C337    1.391   .     A
C332   C336    1.414   .     A
C332   C338    1.388   .     A
C333   C335    1.408   .     A
C333   C341    1.416   .     A
C333   Br993   1.936   .     S
C334   C336    1.411   .     A
C334   C342    1.417   .     A
C334   Br370   1.934   .     S
C335   Br368   1.934   .     S
C336   Br367   1.932   .     S
C337   C339    1.395   .     A
C337   H348    1.077   .     S
C338   C340    1.392   .     A
C338   H347    1.080   .     S
C339   C341    1.421   .     A
C339   C343    1.422   .     A
C340   C344    1.419   .     A
C340   C342    1.417   .     A
C341   C1019   1.399   .     S
C342   C1020   1.399   1_554 S
C343   C1046   1.411   .     S
C344   C1045   1.411   1_554 S
N355   Zn365   2.006   .     S
N356   Zn366   2.006   .     S
O357   Zn365   1.999   .     S
O358   Zn366   1.999   .     S
O359   Zn366   1.991   .     S
O360   Zn365   1.991   .     S
O361   Zn365   1.950   .     S
O362   Zn366   1.950   .     S
O363   Zn366   1.888   .     S
O364   Zn365   1.888   .     S
Br369  C1113   1.936   1_554 S
O371   C372    1.414   .     S
C372   H375    1.111   .     S
C372   H374    1.115   .     S
C372   H373    1.110   .     S
O376   C377    1.412   .     S
C377   H379    1.110   .     S
C377   H380    1.111   .     S
C377   H378    1.114   .     S
O381   C460    1.410   .     S
C382   H383    1.113   .     S
C382   H384    1.111   .     S
H385   C460    1.109   .     S
C387   H388    1.114   .     S
C387   H389    1.111   .     S
C387   O464    1.410   .     S
C387   H468    1.109   .     S
C391   C402    1.415   .     S
C391   O437    1.282   .     A
C391   O435    1.279   .     A
C392   O436    1.279   .     A
C392   C401    1.416   .     S
C392   O438    1.281   .     A
C393   C422    1.413   .     A
C393   C395    1.386   .     A
C393   H427    1.079   .     S
C394   C396    1.389   .     A
C394   H428    1.078   .     S
C394   C421    1.414   .     A
C395   H423    1.081   .     S
C395   C1121   1.399   1_554 S
C396   H424    1.080   .     S
C396   C1122   1.399   .     S
C397   C402    1.395   .     A
C397   H429    1.084   .     S
C397   C633    1.383   .     S
C398   C401    1.395   .     A
C398   H430    1.084   .     S
C399   O449    1.391   .     S
C399   C401    1.403   .     A
C400   C402    1.402   .     A
C400   O454    1.387   .     S
C400   C632    1.378   .     S
C403   O459    1.395   .     S
C403   N434    1.368   .     A
C403   C249    1.436   1_655 S
C404   O464    1.390   .     S
C404   N433    1.366   .     A
C405   H431    1.080   .     S
C405   N433    1.364   .     A
C406   N434    1.365   .     A
C406   H432    1.080   .     S
C406   C248    1.431   1_655 S
C407   O441    1.298   .     A
C407   O439    1.289   .     A
C407   C409    1.468   .     S
C408   O442    1.296   .     A
C408   O440    1.290   .     A
C408   C410    1.467   .     S
C409   C413    1.413   .     A
C409   C415    1.391   .     A
C410   C414    1.414   .     A
C410   C416    1.388   .     A
C411   C413    1.408   .     A
C411   C419    1.416   .     A
C411   Br1071  1.936   .     S
C412   C414    1.411   .     A
C412   C420    1.417   .     A
C412   Br448   1.934   .     S
C413   Br446   1.934   .     S
C414   Br445   1.932   .     S
C415   C417    1.395   .     A
C415   H426    1.077   .     S
C416   C418    1.392   .     A
C416   H425    1.080   .     S
C417   C419    1.421   .     A
C417   C421    1.422   .     A
C418   C422    1.419   .     A
C418   C420    1.417   .     A
C419   C1097   1.399   .     S
C420   C1098   1.399   1_554 S
C421   C1124   1.411   .     S
C422   C1123   1.411   1_554 S
N433   Zn443   2.006   .     S
N434   Zn444   2.006   .     S
O435   Zn443   1.999   .     S
O436   Zn444   1.999   .     S
O437   Zn444   1.991   .     S
O438   Zn443   1.991   .     S
O439   Zn443   1.950   .     S
O440   Zn444   1.950   .     S
O441   Zn444   1.888   .     S
O442   Zn443   1.888   .     S
Br447  C957    1.936   1_654 S
O449   C450    1.414   .     S
C450   H453    1.111   .     S
C450   H452    1.115   .     S
C450   H451    1.110   .     S
O454   C455    1.412   .     S
C455   H457    1.110   .     S
C455   H458    1.111   .     S
C455   H456    1.114   .     S
O459   C304    1.410   1_655 S
C460   H461    1.113   .     S
C460   H462    1.111   .     S
H463   C304    1.109   1_655 S
C465   H466    1.114   .     S
C465   H467    1.111   .     S
C465   O308    1.410   1_655 S
C465   H312    1.109   1_655 S
C469   C480    1.415   .     S
C469   O515    1.282   .     A
C469   O513    1.279   .     A
C470   O514    1.279   .     A
C470   C479    1.416   .     S
C470   O516    1.281   .     A
C471   C500    1.413   .     A
C471   C473    1.386   .     A
C471   H505    1.079   .     S
C472   C474    1.389   .     A
C472   H506    1.078   .     S
C472   C499    1.414   .     A
C473   H501    1.081   .     S
C473   C1199   1.399   1_554 S
C474   H502    1.080   .     S
C474   C1200   1.399   .     S
C475   C480    1.395   .     A
C475   H507    1.084   .     S
C475   C9      1.383   1_565 S
C476   C479    1.395   .     A
C476   H508    1.084   .     S
C477   O527    1.391   .     S
C477   C479    1.403   .     A
C478   C480    1.402   .     A
C478   O532    1.387   .     S
C478   C8      1.378   1_565 S
C481   O537    1.395   .     S
C481   N512    1.368   .     A
C481   C561    1.436   .     S
C482   O542    1.390   .     S
C482   N511    1.366   .     A
C482   C640    1.431   1_455 S
C483   H509    1.080   .     S
C483   N511    1.364   .     A
C483   C637    1.436   1_455 S
C484   N512    1.365   .     A
C484   H510    1.080   .     S
C484   C560    1.431   .     S
C485   O519    1.298   .     A
C485   O517    1.289   .     A
C485   C487    1.468   .     S
C486   O520    1.296   .     A
C486   O518    1.290   .     A
C486   C488    1.467   .     S
C487   C491    1.413   .     A
C487   C493    1.391   .     A
C488   C492    1.414   .     A
C488   C494    1.388   .     A
C489   C491    1.408   .     A
C489   C497    1.416   .     A
C489   Br1383  1.936   1_455 S
C490   C492    1.411   .     A
C490   C498    1.417   .     A
C490   Br526   1.934   .     S
C491   Br524   1.934   .     S
C492   Br523   1.932   .     S
C493   C495    1.395   .     A
C493   H504    1.077   .     S
C494   C496    1.392   .     A
C494   H503    1.080   .     S
C495   C497    1.421   .     A
C495   C499    1.422   .     A
C496   C500    1.419   .     A
C496   C498    1.417   .     A
C497   C1175   1.399   .     S
C498   C1176   1.399   1_554 S
C499   C1202   1.411   .     S
C500   C1201   1.411   1_554 S
N511   Zn521   2.006   .     S
N512   Zn522   2.006   .     S
O513   Zn521   1.999   .     S
O514   Zn522   1.999   .     S
O515   Zn522   1.991   .     S
O516   Zn521   1.991   .     S
O517   Zn521   1.950   .     S
O518   Zn522   1.950   .     S
O519   Zn522   1.888   .     S
O520   Zn521   1.888   .     S
Br525  C1269   1.936   1_554 S
O527   C528    1.414   .     S
C528   H531    1.111   .     S
C528   H530    1.115   .     S
C528   H529    1.110   .     S
O532   C533    1.412   .     S
C533   H535    1.110   .     S
C533   H536    1.111   .     S
C533   H534    1.114   .     S
O537   C616    1.410   .     S
C538   H539    1.113   .     S
C538   H540    1.111   .     S
C538   O693    1.410   1_455 S
C538   H697    1.109   1_455 S
H541   C616    1.109   .     S
O542   C699    1.410   1_455 S
C543   H544    1.114   .     S
C543   H545    1.111   .     S
C543   O620    1.410   .     S
C543   H624    1.109   .     S
H546   C699    1.109   1_455 S
C547   C558    1.415   .     S
C547   O593    1.282   .     A
C547   O591    1.279   .     A
C548   O592    1.279   .     A
C548   C557    1.416   .     S
C548   O594    1.281   .     A
C549   C578    1.413   .     A
C549   C551    1.386   .     A
C549   H583    1.079   .     S
C550   C552    1.389   .     A
C550   H584    1.078   .     S
C550   C577    1.414   .     A
C551   H579    1.081   .     S
C551   C1277   1.399   1_554 S
C552   H580    1.080   .     S
C552   C1278   1.399   .     S
C553   C558    1.395   .     A
C553   H585    1.084   .     S
C553   C87     1.383   1_565 S
C554   C557    1.395   .     A
C554   H586    1.084   .     S
C555   O605    1.391   .     S
C555   C557    1.403   .     A
C556   C558    1.402   .     A
C556   O610    1.387   .     S
C556   C86     1.378   1_565 S
C559   O615    1.395   .     S
C559   N590    1.368   .     A
C559   C639    1.436   .     S
C560   O620    1.390   .     S
C560   N589    1.366   .     A
C561   H587    1.080   .     S
C561   N589    1.364   .     A
C562   N590    1.365   .     A
C562   H588    1.080   .     S
C562   C638    1.431   .     S
C563   O597    1.298   .     A
C563   O595    1.289   .     A
C563   C565    1.468   .     S
C564   O598    1.296   .     A
C564   O596    1.290   .     A
C564   C566    1.467   .     S
C565   C569    1.413   .     A
C565   C571    1.391   .     A
C566   C570    1.414   .     A
C566   C572    1.388   .     A
C567   C569    1.408   .     A
C567   C575    1.416   .     A
C567   Br1227  1.936   .     S
C568   C570    1.411   .     A
C568   C576    1.417   .     A
C568   Br604   1.934   .     S
C569   Br602   1.934   .     S
C570   Br601   1.932   .     S
C571   C573    1.395   .     A
C571   H582    1.077   .     S
C572   C574    1.392   .     A
C572   H581    1.080   .     S
C573   C575    1.421   .     A
C573   C577    1.422   .     A
C574   C578    1.419   .     A
C574   C576    1.417   .     A
C575   C1253   1.399   .     S
C576   C1254   1.399   1_554 S
C577   C1280   1.411   .     S
C578   C1279   1.411   1_554 S
N589   Zn599   2.006   .     S
N590   Zn600   2.006   .     S
O591   Zn599   1.999   .     S
O592   Zn600   1.999   .     S
O593   Zn600   1.991   .     S
O594   Zn599   1.991   .     S
O595   Zn599   1.950   .     S
O596   Zn600   1.950   .     S
O597   Zn600   1.888   .     S
O598   Zn599   1.888   .     S
Br603  C1347   1.936   1_554 S
O605   C606    1.414   .     S
C606   H609    1.111   .     S
C606   H608    1.115   .     S
C606   H607    1.110   .     S
O610   C611    1.412   .     S
C611   H613    1.110   .     S
C611   H614    1.111   .     S
C611   H612    1.114   .     S
O615   C694    1.410   .     S
C616   H617    1.113   .     S
C616   H618    1.111   .     S
H619   C694    1.109   .     S
C621   H622    1.114   .     S
C621   H623    1.111   .     S
C621   O698    1.410   .     S
C621   H702    1.109   .     S
C625   C636    1.415   .     S
C625   O671    1.282   .     A
C625   O669    1.279   .     A
C626   O670    1.279   .     A
C626   C635    1.416   .     S
C626   O672    1.281   .     A
C627   C656    1.413   .     A
C627   C629    1.386   .     A
C627   H661    1.079   .     S
C628   C630    1.389   .     A
C628   H662    1.078   .     S
C628   C655    1.414   .     A
C629   H657    1.081   .     S
C629   C1355   1.399   1_554 S
C630   H658    1.080   .     S
C630   C1356   1.399   .     S
C631   C636    1.395   .     A
C631   H663    1.084   .     S
C631   C165    1.383   1_565 S
C632   C635    1.395   .     A
C632   H664    1.084   .     S
C633   O683    1.391   .     S
C633   C635    1.403   .     A
C634   C636    1.402   .     A
C634   O688    1.387   .     S
C634   C164    1.378   1_565 S
C637   O693    1.395   .     S
C637   N668    1.368   .     A
C637   C483    1.436   1_655 S
C638   O698    1.390   .     S
C638   N667    1.366   .     A
C639   H665    1.080   .     S
C639   N667    1.364   .     A
C640   N668    1.365   .     A
C640   H666    1.080   .     S
C640   C482    1.431   1_655 S
C641   O675    1.298   .     A
C641   O673    1.289   .     A
C641   C643    1.468   .     S
C642   O676    1.296   .     A
C642   O674    1.290   .     A
C642   C644    1.467   .     S
C643   C647    1.413   .     A
C643   C649    1.391   .     A
C644   C648    1.414   .     A
C644   C650    1.388   .     A
C645   C647    1.408   .     A
C645   C653    1.416   .     A
C645   Br1305  1.936   .     S
C646   C648    1.411   .     A
C646   C654    1.417   .     A
C646   Br682   1.934   .     S
C647   Br680   1.934   .     S
C648   Br679   1.932   .     S
C649   C651    1.395   .     A
C649   H660    1.077   .     S
C650   C652    1.392   .     A
C650   H659    1.080   .     S
C651   C653    1.421   .     A
C651   C655    1.422   .     A
C652   C656    1.419   .     A
C652   C654    1.417   .     A
C653   C1331   1.399   .     S
C654   C1332   1.399   1_554 S
C655   C1358   1.411   .     S
C656   C1357   1.411   1_554 S
N667   Zn677   2.006   .     S
N668   Zn678   2.006   .     S
O669   Zn677   1.999   .     S
O670   Zn678   1.999   .     S
O671   Zn678   1.991   .     S
O672   Zn677   1.991   .     S
O673   Zn677   1.950   .     S
O674   Zn678   1.950   .     S
O675   Zn678   1.888   .     S
O676   Zn677   1.888   .     S
Br681  C1191   1.936   1_654 S
O683   C684    1.414   .     S
C684   H687    1.111   .     S
C684   H686    1.115   .     S
C684   H685    1.110   .     S
O688   C689    1.412   .     S
C689   H691    1.110   .     S
C689   H692    1.111   .     S
C689   H690    1.114   .     S
O693   C538    1.410   1_655 S
C694   H695    1.113   .     S
C694   H696    1.111   .     S
H697   C538    1.109   1_655 S
C699   H700    1.114   .     S
C699   H701    1.111   .     S
C699   O542    1.410   1_655 S
C699   H546    1.109   1_655 S
C703   C714    1.415   .     S
C703   O749    1.282   .     A
C703   O747    1.279   .     A
C704   O748    1.279   .     A
C704   C713    1.416   .     S
C704   O750    1.281   .     A
C705   C734    1.413   .     A
C705   C707    1.386   .     A
C705   H739    1.079   .     S
C706   C708    1.389   .     A
C706   H740    1.078   .     S
C706   C733    1.414   .     A
C707   H735    1.081   .     S
C708   H736    1.080   .     S
C708   C30     1.399   1_556 S
C709   C714    1.395   .     A
C709   H741    1.084   .     S
C709   C945    1.383   .     S
C710   C713    1.395   .     A
C710   H742    1.084   .     S
C710   C1180   1.378   1_545 S
C711   O761    1.391   .     S
C711   C713    1.403   .     A
C711   C1177   1.383   1_545 S
C712   C714    1.402   .     A
C712   O766    1.387   .     S
C712   C944    1.378   .     S
C715   O771    1.395   .     S
C715   N746    1.368   .     A
C715   C795    1.436   .     S
C716   O776    1.390   .     S
C716   N745    1.366   .     A
C716   C874    1.431   1_455 S
C717   H743    1.080   .     S
C717   N745    1.364   .     A
C717   C871    1.436   1_455 S
C718   N746    1.365   .     A
C718   H744    1.080   .     S
C718   C794    1.431   .     S
C719   O753    1.298   .     A
C719   O751    1.289   .     A
C719   C721    1.468   .     S
C720   O754    1.296   .     A
C720   O752    1.290   .     A
C720   C722    1.467   .     S
C721   C725    1.413   .     A
C721   C727    1.391   .     A
C722   C726    1.414   .     A
C722   C728    1.388   .     A
C723   C725    1.408   .     A
C723   C731    1.416   .     A
C723   Br213   1.936   1_456 S
C724   C726    1.411   .     A
C724   C732    1.417   .     A
C724   Br760   1.934   .     S
C725   Br758   1.934   .     S
C726   Br757   1.932   .     S
C727   C729    1.395   .     A
C727   H738    1.077   .     S
C728   C730    1.392   .     A
C728   H737    1.080   .     S
C729   C731    1.421   .     A
C729   C733    1.422   .     A
C730   C734    1.419   .     A
C730   C732    1.417   .     A
C731   C5      1.399   1_556 S
C733   C32     1.411   1_556 S
N745   Zn755   2.006   .     S
N746   Zn756   2.006   .     S
O747   Zn755   1.999   .     S
O748   Zn756   1.999   .     S
O749   Zn756   1.991   .     S
O750   Zn755   1.991   .     S
O751   Zn755   1.950   .     S
O752   Zn756   1.950   .     S
O753   Zn756   1.888   .     S
O754   Zn755   1.888   .     S
O761   C762    1.414   .     S
C762   H765    1.111   .     S
C762   H764    1.115   .     S
C762   H763    1.110   .     S
O766   C767    1.412   .     S
C767   H769    1.110   .     S
C767   H770    1.111   .     S
C767   H768    1.114   .     S
O771   C850    1.410   .     S
C772   H773    1.113   .     S
C772   H774    1.111   .     S
C772   O927    1.410   1_455 S
C772   H931    1.109   1_455 S
H775   C850    1.109   .     S
O776   C933    1.410   1_455 S
C777   H778    1.114   .     S
C777   H779    1.111   .     S
C777   O854    1.410   .     S
C777   H858    1.109   .     S
H780   C933    1.109   1_455 S
C781   C792    1.415   .     S
C781   O827    1.282   .     A
C781   O825    1.279   .     A
C782   O826    1.279   .     A
C782   C791    1.416   .     S
C782   O828    1.281   .     A
C783   C812    1.413   .     A
C783   C785    1.386   .     A
C783   H817    1.079   .     S
C784   C786    1.389   .     A
C784   H818    1.078   .     S
C784   C811    1.414   .     A
C785   H813    1.081   .     S
C786   H814    1.080   .     S
C786   C108    1.399   1_556 S
C787   C792    1.395   .     A
C787   H819    1.084   .     S
C787   C1023   1.383   .     S
C788   C791    1.395   .     A
C788   H820    1.084   .     S
C788   C1258   1.378   1_545 S
C789   O839    1.391   .     S
C789   C791    1.403   .     A
C789   C1255   1.383   1_545 S
C790   C792    1.402   .     A
C790   O844    1.387   .     S
C790   C1022   1.378   .     S
C793   O849    1.395   .     S
C793   N824    1.368   .     A
C793   C873    1.436   .     S
C794   O854    1.390   .     S
C794   N823    1.366   .     A
C795   H821    1.080   .     S
C795   N823    1.364   .     A
C796   N824    1.365   .     A
C796   H822    1.080   .     S
C796   C872    1.431   .     S
C797   O831    1.298   .     A
C797   O829    1.289   .     A
C797   C799    1.468   .     S
C798   O832    1.296   .     A
C798   O830    1.290   .     A
C798   C800    1.467   .     S
C799   C803    1.413   .     A
C799   C805    1.391   .     A
C800   C804    1.414   .     A
C800   C806    1.388   .     A
C801   C803    1.408   .     A
C801   C809    1.416   .     A
C801   Br57    1.936   1_556 S
C802   C804    1.411   .     A
C802   C810    1.417   .     A
C802   Br838   1.934   .     S
C803   Br836   1.934   .     S
C804   Br835   1.932   .     S
C805   C807    1.395   .     A
C805   H816    1.077   .     S
C806   C808    1.392   .     A
C806   H815    1.080   .     S
C807   C809    1.421   .     A
C807   C811    1.422   .     A
C808   C812    1.419   .     A
C808   C810    1.417   .     A
C809   C83     1.399   1_556 S
C811   C110    1.411   1_556 S
N823   Zn833   2.006   .     S
N824   Zn834   2.006   .     S
O825   Zn833   1.999   .     S
O826   Zn834   1.999   .     S
O827   Zn834   1.991   .     S
O828   Zn833   1.991   .     S
O829   Zn833   1.950   .     S
O830   Zn834   1.950   .     S
O831   Zn834   1.888   .     S
O832   Zn833   1.888   .     S
O839   C840    1.414   .     S
C840   H843    1.111   .     S
C840   H842    1.115   .     S
C840   H841    1.110   .     S
O844   C845    1.412   .     S
C845   H847    1.110   .     S
C845   H848    1.111   .     S
C845   H846    1.114   .     S
O849   C928    1.410   .     S
C850   H851    1.113   .     S
C850   H852    1.111   .     S
H853   C928    1.109   .     S
C855   H856    1.114   .     S
C855   H857    1.111   .     S
C855   O932    1.410   .     S
C855   H936    1.109   .     S
C859   C870    1.415   .     S
C859   O905    1.282   .     A
C859   O903    1.279   .     A
C860   O904    1.279   .     A
C860   C869    1.416   .     S
C860   O906    1.281   .     A
C861   C890    1.413   .     A
C861   C863    1.386   .     A
C861   H895    1.079   .     S
C862   C864    1.389   .     A
C862   H896    1.078   .     S
C862   C889    1.414   .     A
C863   H891    1.081   .     S
C864   H892    1.080   .     S
C864   C186    1.399   1_556 S
C865   C870    1.395   .     A
C865   H897    1.084   .     S
C865   C1101   1.383   .     S
C866   C869    1.395   .     A
C866   H898    1.084   .     S
C866   C1336   1.378   1_545 S
C867   O917    1.391   .     S
C867   C869    1.403   .     A
C867   C1333   1.383   1_545 S
C868   C870    1.402   .     A
C868   O922    1.387   .     S
C868   C1100   1.378   .     S
C871   O927    1.395   .     S
C871   N902    1.368   .     A
C871   C717    1.436   1_655 S
C872   O932    1.390   .     S
C872   N901    1.366   .     A
C873   H899    1.080   .     S
C873   N901    1.364   .     A
C874   N902    1.365   .     A
C874   H900    1.080   .     S
C874   C716    1.431   1_655 S
C875   O909    1.298   .     A
C875   O907    1.289   .     A
C875   C877    1.468   .     S
C876   O910    1.296   .     A
C876   O908    1.290   .     A
C876   C878    1.467   .     S
C877   C881    1.413   .     A
C877   C883    1.391   .     A
C878   C882    1.414   .     A
C878   C884    1.388   .     A
C879   C881    1.408   .     A
C879   C887    1.416   .     A
C879   Br135   1.936   1_556 S
C880   C882    1.411   .     A
C880   C888    1.417   .     A
C880   Br916   1.934   .     S
C881   Br914   1.934   .     S
C882   Br913   1.932   .     S
C883   C885    1.395   .     A
C883   H894    1.077   .     S
C884   C886    1.392   .     A
C884   H893    1.080   .     S
C885   C887    1.421   .     A
C885   C889    1.422   .     A
C886   C890    1.419   .     A
C886   C888    1.417   .     A
C887   C161    1.399   1_556 S
C889   C188    1.411   1_556 S
N901   Zn911   2.006   .     S
N902   Zn912   2.006   .     S
O903   Zn911   1.999   .     S
O904   Zn912   1.999   .     S
O905   Zn912   1.991   .     S
O906   Zn911   1.991   .     S
O907   Zn911   1.950   .     S
O908   Zn912   1.950   .     S
O909   Zn912   1.888   .     S
O910   Zn911   1.888   .     S
Br915  C21     1.936   1_655 S
O917   C918    1.414   .     S
C918   H921    1.111   .     S
C918   H920    1.115   .     S
C918   H919    1.110   .     S
O922   C923    1.412   .     S
C923   H925    1.110   .     S
C923   H926    1.111   .     S
C923   H924    1.114   .     S
O927   C772    1.410   1_655 S
C928   H929    1.113   .     S
C928   H930    1.111   .     S
H931   C772    1.109   1_655 S
C933   H934    1.114   .     S
C933   H935    1.111   .     S
C933   O776    1.410   1_655 S
C933   H780    1.109   1_655 S
C937   C948    1.415   .     S
C937   O983    1.282   .     A
C937   O981    1.279   .     A
C938   O982    1.279   .     A
C938   C947    1.416   .     S
C938   O984    1.281   .     A
C939   C968    1.413   .     A
C939   C941    1.386   .     A
C939   H973    1.079   .     S
C940   C942    1.389   .     A
C940   H974    1.078   .     S
C940   C967    1.414   .     A
C941   H969    1.081   .     S
C942   H970    1.080   .     S
C942   C264    1.399   1_556 S
C943   C948    1.395   .     A
C943   H975    1.084   .     S
C943   C1179   1.383   .     S
C944   C947    1.395   .     A
C944   H976    1.084   .     S
C945   O995    1.391   .     S
C945   C947    1.403   .     A
C946   C948    1.402   .     A
C946   O1000   1.387   .     S
C946   C1178   1.378   .     S
C949   O1005   1.395   .     S
C949   N980    1.368   .     A
C949   C1029   1.436   .     S
C950   O1010   1.390   .     S
C950   N979    1.366   .     A
C950   C1108   1.431   1_455 S
C951   H977    1.080   .     S
C951   N979    1.364   .     A
C951   C1105   1.436   1_455 S
C952   N980    1.365   .     A
C952   H978    1.080   .     S
C952   C1028   1.431   .     S
C953   O987    1.298   .     A
C953   O985    1.289   .     A
C953   C955    1.468   .     S
C954   O988    1.296   .     A
C954   O986    1.290   .     A
C954   C956    1.467   .     S
C955   C959    1.413   .     A
C955   C961    1.391   .     A
C956   C960    1.414   .     A
C956   C962    1.388   .     A
C957   C959    1.408   .     A
C957   C965    1.416   .     A
C957   Br447   1.936   1_456 S
C958   C960    1.411   .     A
C958   C966    1.417   .     A
C958   Br994   1.934   .     S
C959   Br992   1.934   .     S
C960   Br991   1.932   .     S
C961   C963    1.395   .     A
C961   H972    1.077   .     S
C962   C964    1.392   .     A
C962   H971    1.080   .     S
C963   C965    1.421   .     A
C963   C967    1.422   .     A
C964   C968    1.419   .     A
C964   C966    1.417   .     A
C965   C239    1.399   1_556 S
C967   C266    1.411   1_556 S
N979   Zn989   2.006   .     S
N980   Zn990   2.006   .     S
O981   Zn989   1.999   .     S
O982   Zn990   1.999   .     S
O983   Zn990   1.991   .     S
O984   Zn989   1.991   .     S
O985   Zn989   1.950   .     S
O986   Zn990   1.950   .     S
O987   Zn990   1.888   .     S
O988   Zn989   1.888   .     S
O995   C996    1.414   .     S
C996   H999    1.111   .     S
C996   H998    1.115   .     S
C996   H997    1.110   .     S
O1000  C1001   1.412   .     S
C1001  H1003   1.110   .     S
C1001  H1004   1.111   .     S
C1001  H1002   1.114   .     S
O1005  C1084   1.410   .     S
C1006  H1007   1.113   .     S
C1006  H1008   1.111   .     S
C1006  O1161   1.410   1_455 S
C1006  H1165   1.109   1_455 S
H1009  C1084   1.109   .     S
O1010  C1167   1.410   1_455 S
C1011  H1012   1.114   .     S
C1011  H1013   1.111   .     S
C1011  O1088   1.410   .     S
C1011  H1092   1.109   .     S
H1014  C1167   1.109   1_455 S
C1015  C1026   1.415   .     S
C1015  O1061   1.282   .     A
C1015  O1059   1.279   .     A
C1016  O1060   1.279   .     A
C1016  C1025   1.416   .     S
C1016  O1062   1.281   .     A
C1017  C1046   1.413   .     A
C1017  C1019   1.386   .     A
C1017  H1051   1.079   .     S
C1018  C1020   1.389   .     A
C1018  H1052   1.078   .     S
C1018  C1045   1.414   .     A
C1019  H1047   1.081   .     S
C1020  H1048   1.080   .     S
C1020  C342    1.399   1_556 S
C1021  C1026   1.395   .     A
C1021  H1053   1.084   .     S
C1021  C1257   1.383   .     S
C1022  C1025   1.395   .     A
C1022  H1054   1.084   .     S
C1023  O1073   1.391   .     S
C1023  C1025   1.403   .     A
C1024  C1026   1.402   .     A
C1024  O1078   1.387   .     S
C1024  C1256   1.378   .     S
C1027  O1083   1.395   .     S
C1027  N1058   1.368   .     A
C1027  C1107   1.436   .     S
C1028  O1088   1.390   .     S
C1028  N1057   1.366   .     A
C1029  H1055   1.080   .     S
C1029  N1057   1.364   .     A
C1030  N1058   1.365   .     A
C1030  H1056   1.080   .     S
C1030  C1106   1.431   .     S
C1031  O1065   1.298   .     A
C1031  O1063   1.289   .     A
C1031  C1033   1.468   .     S
C1032  O1066   1.296   .     A
C1032  O1064   1.290   .     A
C1032  C1034   1.467   .     S
C1033  C1037   1.413   .     A
C1033  C1039   1.391   .     A
C1034  C1038   1.414   .     A
C1034  C1040   1.388   .     A
C1035  C1037   1.408   .     A
C1035  C1043   1.416   .     A
C1035  Br291   1.936   1_556 S
C1036  C1038   1.411   .     A
C1036  C1044   1.417   .     A
C1036  Br1072  1.934   .     S
C1037  Br1070  1.934   .     S
C1038  Br1069  1.932   .     S
C1039  C1041   1.395   .     A
C1039  H1050   1.077   .     S
C1040  C1042   1.392   .     A
C1040  H1049   1.080   .     S
C1041  C1043   1.421   .     A
C1041  C1045   1.422   .     A
C1042  C1046   1.419   .     A
C1042  C1044   1.417   .     A
C1043  C317    1.399   1_556 S
C1045  C344    1.411   1_556 S
N1057  Zn1067  2.006   .     S
N1058  Zn1068  2.006   .     S
O1059  Zn1067  1.999   .     S
O1060  Zn1068  1.999   .     S
O1061  Zn1068  1.991   .     S
O1062  Zn1067  1.991   .     S
O1063  Zn1067  1.950   .     S
O1064  Zn1068  1.950   .     S
O1065  Zn1068  1.888   .     S
O1066  Zn1067  1.888   .     S
O1073  C1074   1.414   .     S
C1074  H1077   1.111   .     S
C1074  H1076   1.115   .     S
C1074  H1075   1.110   .     S
O1078  C1079   1.412   .     S
C1079  H1081   1.110   .     S
C1079  H1082   1.111   .     S
C1079  H1080   1.114   .     S
O1083  C1162   1.410   .     S
C1084  H1085   1.113   .     S
C1084  H1086   1.111   .     S
H1087  C1162   1.109   .     S
C1089  H1090   1.114   .     S
C1089  H1091   1.111   .     S
C1089  O1166   1.410   .     S
C1089  H1170   1.109   .     S
C1093  C1104   1.415   .     S
C1093  O1139   1.282   .     A
C1093  O1137   1.279   .     A
C1094  O1138   1.279   .     A
C1094  C1103   1.416   .     S
C1094  O1140   1.281   .     A
C1095  C1124   1.413   .     A
C1095  C1097   1.386   .     A
C1095  H1129   1.079   .     S
C1096  C1098   1.389   .     A
C1096  H1130   1.078   .     S
C1096  C1123   1.414   .     A
C1097  H1125   1.081   .     S
C1098  H1126   1.080   .     S
C1098  C420    1.399   1_556 S
C1099  C1104   1.395   .     A
C1099  H1131   1.084   .     S
C1099  C1335   1.383   .     S
C1100  C1103   1.395   .     A
C1100  H1132   1.084   .     S
C1101  O1151   1.391   .     S
C1101  C1103   1.403   .     A
C1102  C1104   1.402   .     A
C1102  O1156   1.387   .     S
C1102  C1334   1.378   .     S
C1105  O1161   1.395   .     S
C1105  N1136   1.368   .     A
C1105  C951    1.436   1_655 S
C1106  O1166   1.390   .     S
C1106  N1135   1.366   .     A
C1107  H1133   1.080   .     S
C1107  N1135   1.364   .     A
C1108  N1136   1.365   .     A
C1108  H1134   1.080   .     S
C1108  C950    1.431   1_655 S
C1109  O1143   1.298   .     A
C1109  O1141   1.289   .     A
C1109  C1111   1.468   .     S
C1110  O1144   1.296   .     A
C1110  O1142   1.290   .     A
C1110  C1112   1.467   .     S
C1111  C1115   1.413   .     A
C1111  C1117   1.391   .     A
C1112  C1116   1.414   .     A
C1112  C1118   1.388   .     A
C1113  C1115   1.408   .     A
C1113  C1121   1.416   .     A
C1113  Br369   1.936   1_556 S
C1114  C1116   1.411   .     A
C1114  C1122   1.417   .     A
C1114  Br1150  1.934   .     S
C1115  Br1148  1.934   .     S
C1116  Br1147  1.932   .     S
C1117  C1119   1.395   .     A
C1117  H1128   1.077   .     S
C1118  C1120   1.392   .     A
C1118  H1127   1.080   .     S
C1119  C1121   1.421   .     A
C1119  C1123   1.422   .     A
C1120  C1124   1.419   .     A
C1120  C1122   1.417   .     A
C1121  C395    1.399   1_556 S
C1123  C422    1.411   1_556 S
N1135  Zn1145  2.006   .     S
N1136  Zn1146  2.006   .     S
O1137  Zn1145  1.999   .     S
O1138  Zn1146  1.999   .     S
O1139  Zn1146  1.991   .     S
O1140  Zn1145  1.991   .     S
O1141  Zn1145  1.950   .     S
O1142  Zn1146  1.950   .     S
O1143  Zn1146  1.888   .     S
O1144  Zn1145  1.888   .     S
Br1149 C255    1.936   1_655 S
O1151  C1152   1.414   .     S
C1152  H1155   1.111   .     S
C1152  H1154   1.115   .     S
C1152  H1153   1.110   .     S
O1156  C1157   1.412   .     S
C1157  H1159   1.110   .     S
C1157  H1160   1.111   .     S
C1157  H1158   1.114   .     S
O1161  C1006   1.410   1_655 S
C1162  H1163   1.113   .     S
C1162  H1164   1.111   .     S
H1165  C1006   1.109   1_655 S
C1167  H1168   1.114   .     S
C1167  H1169   1.111   .     S
C1167  O1010   1.410   1_655 S
C1167  H1014   1.109   1_655 S
C1171  C1182   1.415   .     S
C1171  O1217   1.282   .     A
C1171  O1215   1.279   .     A
C1172  O1216   1.279   .     A
C1172  C1181   1.416   .     S
C1172  O1218   1.281   .     A
C1173  C1202   1.413   .     A
C1173  C1175   1.386   .     A
C1173  H1207   1.079   .     S
C1174  C1176   1.389   .     A
C1174  H1208   1.078   .     S
C1174  C1201   1.414   .     A
C1175  H1203   1.081   .     S
C1176  H1204   1.080   .     S
C1176  C498    1.399   1_556 S
C1177  C1182   1.395   .     A
C1177  H1209   1.084   .     S
C1177  C711    1.383   1_565 S
C1178  C1181   1.395   .     A
C1178  H1210   1.084   .     S
C1179  O1229   1.391   .     S
C1179  C1181   1.403   .     A
C1180  C1182   1.402   .     A
C1180  O1234   1.387   .     S
C1180  C710    1.378   1_565 S
C1183  O1239   1.395   .     S
C1183  N1214   1.368   .     A
C1183  C1263   1.436   .     S
C1184  O1244   1.390   .     S
C1184  N1213   1.366   .     A
C1184  C1342   1.431   1_455 S
C1185  H1211   1.080   .     S
C1185  N1213   1.364   .     A
C1185  C1339   1.436   1_455 S
C1186  N1214   1.365   .     A
C1186  H1212   1.080   .     S
C1186  C1262   1.431   .     S
C1187  O1221   1.298   .     A
C1187  O1219   1.289   .     A
C1187  C1189   1.468   .     S
C1188  O1222   1.296   .     A
C1188  O1220   1.290   .     A
C1188  C1190   1.467   .     S
C1189  C1193   1.413   .     A
C1189  C1195   1.391   .     A
C1190  C1194   1.414   .     A
C1190  C1196   1.388   .     A
C1191  C1193   1.408   .     A
C1191  C1199   1.416   .     A
C1191  Br681   1.936   1_456 S
C1192  C1194   1.411   .     A
C1192  C1200   1.417   .     A
C1192  Br1228  1.934   .     S
C1193  Br1226  1.934   .     S
C1194  Br1225  1.932   .     S
C1195  C1197   1.395   .     A
C1195  H1206   1.077   .     S
C1196  C1198   1.392   .     A
C1196  H1205   1.080   .     S
C1197  C1199   1.421   .     A
C1197  C1201   1.422   .     A
C1198  C1202   1.419   .     A
C1198  C1200   1.417   .     A
C1199  C473    1.399   1_556 S
C1201  C500    1.411   1_556 S
N1213  Zn1223  2.006   .     S
N1214  Zn1224  2.006   .     S
O1215  Zn1223  1.999   .     S
O1216  Zn1224  1.999   .     S
O1217  Zn1224  1.991   .     S
O1218  Zn1223  1.991   .     S
O1219  Zn1223  1.950   .     S
O1220  Zn1224  1.950   .     S
O1221  Zn1224  1.888   .     S
O1222  Zn1223  1.888   .     S
O1229  C1230   1.414   .     S
C1230  H1233   1.111   .     S
C1230  H1232   1.115   .     S
C1230  H1231   1.110   .     S
O1234  C1235   1.412   .     S
C1235  H1237   1.110   .     S
C1235  H1238   1.111   .     S
C1235  H1236   1.114   .     S
O1239  C1318   1.410   .     S
C1240  H1241   1.113   .     S
C1240  H1242   1.111   .     S
C1240  O1395   1.410   1_455 S
C1240  H1399   1.109   1_455 S
H1243  C1318   1.109   .     S
O1244  C1401   1.410   1_455 S
C1245  H1246   1.114   .     S
C1245  H1247   1.111   .     S
C1245  O1322   1.410   .     S
C1245  H1326   1.109   .     S
H1248  C1401   1.109   1_455 S
C1249  C1260   1.415   .     S
C1249  O1295   1.282   .     A
C1249  O1293   1.279   .     A
C1250  O1294   1.279   .     A
C1250  C1259   1.416   .     S
C1250  O1296   1.281   .     A
C1251  C1280   1.413   .     A
C1251  C1253   1.386   .     A
C1251  H1285   1.079   .     S
C1252  C1254   1.389   .     A
C1252  H1286   1.078   .     S
C1252  C1279   1.414   .     A
C1253  H1281   1.081   .     S
C1254  H1282   1.080   .     S
C1254  C576    1.399   1_556 S
C1255  C1260   1.395   .     A
C1255  H1287   1.084   .     S
C1255  C789    1.383   1_565 S
C1256  C1259   1.395   .     A
C1256  H1288   1.084   .     S
C1257  O1307   1.391   .     S
C1257  C1259   1.403   .     A
C1258  C1260   1.402   .     A
C1258  O1312   1.387   .     S
C1258  C788    1.378   1_565 S
C1261  O1317   1.395   .     S
C1261  N1292   1.368   .     A
C1261  C1341   1.436   .     S
C1262  O1322   1.390   .     S
C1262  N1291   1.366   .     A
C1263  H1289   1.080   .     S
C1263  N1291   1.364   .     A
C1264  N1292   1.365   .     A
C1264  H1290   1.080   .     S
C1264  C1340   1.431   .     S
C1265  O1299   1.298   .     A
C1265  O1297   1.289   .     A
C1265  C1267   1.468   .     S
C1266  O1300   1.296   .     A
C1266  O1298   1.290   .     A
C1266  C1268   1.467   .     S
C1267  C1271   1.413   .     A
C1267  C1273   1.391   .     A
C1268  C1272   1.414   .     A
C1268  C1274   1.388   .     A
C1269  C1271   1.408   .     A
C1269  C1277   1.416   .     A
C1269  Br525   1.936   1_556 S
C1270  C1272   1.411   .     A
C1270  C1278   1.417   .     A
C1270  Br1306  1.934   .     S
C1271  Br1304  1.934   .     S
C1272  Br1303  1.932   .     S
C1273  C1275   1.395   .     A
C1273  H1284   1.077   .     S
C1274  C1276   1.392   .     A
C1274  H1283   1.080   .     S
C1275  C1277   1.421   .     A
C1275  C1279   1.422   .     A
C1276  C1280   1.419   .     A
C1276  C1278   1.417   .     A
C1277  C551    1.399   1_556 S
C1279  C578    1.411   1_556 S
N1291  Zn1301  2.006   .     S
N1292  Zn1302  2.006   .     S
O1293  Zn1301  1.999   .     S
O1294  Zn1302  1.999   .     S
O1295  Zn1302  1.991   .     S
O1296  Zn1301  1.991   .     S
O1297  Zn1301  1.950   .     S
O1298  Zn1302  1.950   .     S
O1299  Zn1302  1.888   .     S
O1300  Zn1301  1.888   .     S
O1307  C1308   1.414   .     S
C1308  H1311   1.111   .     S
C1308  H1310   1.115   .     S
C1308  H1309   1.110   .     S
O1312  C1313   1.412   .     S
C1313  H1315   1.110   .     S
C1313  H1316   1.111   .     S
C1313  H1314   1.114   .     S
O1317  C1396   1.410   .     S
C1318  H1319   1.113   .     S
C1318  H1320   1.111   .     S
H1321  C1396   1.109   .     S
C1323  H1324   1.114   .     S
C1323  H1325   1.111   .     S
C1323  O1400   1.410   .     S
C1323  H1404   1.109   .     S
C1327  C1338   1.415   .     S
C1327  O1373   1.282   .     A
C1327  O1371   1.279   .     A
C1328  O1372   1.279   .     A
C1328  C1337   1.416   .     S
C1328  O1374   1.281   .     A
C1329  C1358   1.413   .     A
C1329  C1331   1.386   .     A
C1329  H1363   1.079   .     S
C1330  C1332   1.389   .     A
C1330  H1364   1.078   .     S
C1330  C1357   1.414   .     A
C1331  H1359   1.081   .     S
C1332  H1360   1.080   .     S
C1332  C654    1.399   1_556 S
C1333  C1338   1.395   .     A
C1333  H1365   1.084   .     S
C1333  C867    1.383   1_565 S
C1334  C1337   1.395   .     A
C1334  H1366   1.084   .     S
C1335  O1385   1.391   .     S
C1335  C1337   1.403   .     A
C1336  C1338   1.402   .     A
C1336  O1390   1.387   .     S
C1336  C866    1.378   1_565 S
C1339  O1395   1.395   .     S
C1339  N1370   1.368   .     A
C1339  C1185   1.436   1_655 S
C1340  O1400   1.390   .     S
C1340  N1369   1.366   .     A
C1341  H1367   1.080   .     S
C1341  N1369   1.364   .     A
C1342  N1370   1.365   .     A
C1342  H1368   1.080   .     S
C1342  C1184   1.431   1_655 S
C1343  O1377   1.298   .     A
C1343  O1375   1.289   .     A
C1343  C1345   1.468   .     S
C1344  O1378   1.296   .     A
C1344  O1376   1.290   .     A
C1344  C1346   1.467   .     S
C1345  C1349   1.413   .     A
C1345  C1351   1.391   .     A
C1346  C1350   1.414   .     A
C1346  C1352   1.388   .     A
C1347  C1349   1.408   .     A
C1347  C1355   1.416   .     A
C1347  Br603   1.936   1_556 S
C1348  C1350   1.411   .     A
C1348  C1356   1.417   .     A
C1348  Br1384  1.934   .     S
C1349  Br1382  1.934   .     S
C1350  Br1381  1.932   .     S
C1351  C1353   1.395   .     A
C1351  H1362   1.077   .     S
C1352  C1354   1.392   .     A
C1352  H1361   1.080   .     S
C1353  C1355   1.421   .     A
C1353  C1357   1.422   .     A
C1354  C1358   1.419   .     A
C1354  C1356   1.417   .     A
C1355  C629    1.399   1_556 S
C1357  C656    1.411   1_556 S
N1369  Zn1379  2.006   .     S
N1370  Zn1380  2.006   .     S
O1371  Zn1379  1.999   .     S
O1372  Zn1380  1.999   .     S
O1373  Zn1380  1.991   .     S
O1374  Zn1379  1.991   .     S
O1375  Zn1379  1.950   .     S
O1376  Zn1380  1.950   .     S
O1377  Zn1380  1.888   .     S
O1378  Zn1379  1.888   .     S
Br1383 C489    1.936   1_655 S
O1385  C1386   1.414   .     S
C1386  H1389   1.111   .     S
C1386  H1388   1.115   .     S
C1386  H1387   1.110   .     S
O1390  C1391   1.412   .     S
C1391  H1393   1.110   .     S
C1391  H1394   1.111   .     S
C1391  H1392   1.114   .     S
O1395  C1240   1.410   1_655 S
C1396  H1397   1.113   .     S
C1396  H1398   1.111   .     S
H1399  C1240   1.109   1_655 S
C1401  H1402   1.114   .     S
C1401  H1403   1.111   .     S
C1401  O1244   1.410   1_655 S
C1401  H1248   1.109   1_655 S
