data_str_m3_o10_o16_pcu_sym.32
_audit_creation_date              2020-01-03
_audit_creation_method            'Materials Studio'
_symmetry_space_group_name_H-M    'P1'
_symmetry_Int_Tables_number       1
_symmetry_cell_setting            triclinic
loop_
_symmetry_equiv_pos_as_xyz
  x,y,z
_cell_length_a                    23.5399
_cell_length_b                    25.7748
_cell_length_c                    24.8151
_cell_angle_alpha                 92.3731
_cell_angle_beta                  103.8153
_cell_angle_gamma                 93.5083
loop_
_atom_site_label
_atom_site_type_symbol
_atom_site_fract_x
_atom_site_fract_y
_atom_site_fract_z
_atom_site_U_iso_or_equiv
_atom_site_adp_type
_atom_site_occupancy
C1     C     0.01358   0.26459   0.24645   0.00000  Uiso   1.00
C2     C     0.06216   0.20675   0.40875   0.00000  Uiso   1.00
C3     C     0.02009   0.31908   0.24582   0.00000  Uiso   1.00
C4     C     0.03818   0.18191   0.35226   0.00000  Uiso   1.00
C5     C     0.30658   0.01426   0.24049   0.00000  Uiso   1.00
C6     C     0.31782   0.06857   0.24901   0.00000  Uiso   1.00
C7     C     0.29574   0.16141   0.14526   0.00000  Uiso   1.00
C8     C     0.28520   0.15170   0.49201   0.00000  Uiso   1.00
C9     C     0.27299   0.15969   0.08550   0.00000  Uiso   1.00
C10    C     0.02748   0.23118   0.43919   0.00000  Uiso   1.00
C11    C     0.04991   0.24438   0.49579   0.00000  Uiso   1.00
C12    C     0.14160   0.20734   0.49089   0.00000  Uiso   1.00
C13    C     0.10581   0.23049   0.02300   0.00000  Uiso   1.00
C14    C     0.12180   0.20700   0.43315   0.00000  Uiso   1.00
C15    C     0.19662   0.18642   0.01086   0.00000  Uiso   1.00
C16    C     0.23199   0.17444   0.47329   0.00000  Uiso   1.00
C17    C     0.21534   0.18935   0.41871   0.00000  Uiso   1.00
C18    C     0.16303   0.21221   0.40165   0.00000  Uiso   1.00
C19    C     0.21590   0.17382   0.06545   0.00000  Uiso   1.00
C20    C     0.30719   0.14680   0.04862   0.00000  Uiso   1.00
Cl21   Cl    0.23134   0.32427   0.21792   0.00000  Uiso   1.00
Cl22   Cl    0.13104   0.25442   0.09284   0.00000  Uiso   1.00
Cl23   Cl    0.15919   0.26608   0.36001   0.00000  Uiso   1.00
H24    H     0.01733   0.13353   0.06348   0.00000  Uiso   1.00
H25    H     0.15691   0.12097   0.21456   0.00000  Uiso   1.00
H26    H     0.17627   0.21472   0.27989   0.00000  Uiso   1.00
H27    H     0.24336   0.18584   0.39052   0.00000  Uiso   1.00
H28    H     0.31129   0.14073   0.46343   0.00000  Uiso   1.00
H29    H     0.18684   0.17485   0.09287   0.00000  Uiso   1.00
H30    H     0.31767   0.24176   0.41915   0.00000  Uiso   1.00
H31    H     0.02323   0.26456   0.01867   0.00000  Uiso   1.00
H32    H     0.06497   0.00294   0.25506   0.00000  Uiso   1.00
N33    N     0.14493   0.15223   0.23543   0.00000  Uiso   1.00
N34    N     0.18840   0.18110   0.26458   0.00000  Uiso   1.00
O35    O     0.29769   0.24629   0.25358   0.00000  Uiso   1.00
O36    O     0.05742   0.23704   0.24424   0.00000  Uiso   1.00
O37    O     0.31490   0.17358   0.33380   0.00000  Uiso   1.00
O38    O     0.07463   0.16433   0.32446   0.00000  Uiso   1.00
O39    O     0.27592   0.09629   0.25577   0.00000  Uiso   1.00
O40    O     0.03565   0.08704   0.24643   0.00000  Uiso   1.00
O41    O     0.25870   0.16901   0.17554   0.00000  Uiso   1.00
O42    O     0.01843   0.15976   0.16620   0.00000  Uiso   1.00
Zn43   Zn    0.27119   0.17284   0.25624   0.00000  Uiso   1.00
Zn44   Zn    0.06214   0.16049   0.24377   0.00000  Uiso   1.00
C45    C     0.34692   0.26459   0.24645   0.00000  Uiso   1.00
C46    C     0.39549   0.20675   0.40875   0.00000  Uiso   1.00
C47    C     0.35343   0.31908   0.24582   0.00000  Uiso   1.00
C48    C     0.37151   0.18191   0.35226   0.00000  Uiso   1.00
C49    C     0.63991   0.01426   0.24049   0.00000  Uiso   1.00
C50    C     0.65115   0.06857   0.24901   0.00000  Uiso   1.00
C51    C     0.62907   0.16141   0.14526   0.00000  Uiso   1.00
C52    C     0.61854   0.15170   0.49201   0.00000  Uiso   1.00
C53    C     0.60633   0.15969   0.08550   0.00000  Uiso   1.00
C54    C     0.36081   0.23118   0.43919   0.00000  Uiso   1.00
C55    C     0.38324   0.24438   0.49579   0.00000  Uiso   1.00
C56    C     0.47494   0.20734   0.49089   0.00000  Uiso   1.00
C57    C     0.43914   0.23049   0.02300   0.00000  Uiso   1.00
C58    C     0.45514   0.20700   0.43315   0.00000  Uiso   1.00
C59    C     0.52996   0.18642   0.01086   0.00000  Uiso   1.00
C60    C     0.56532   0.17444   0.47329   0.00000  Uiso   1.00
C61    C     0.54867   0.18935   0.41871   0.00000  Uiso   1.00
C62    C     0.49636   0.21221   0.40165   0.00000  Uiso   1.00
C63    C     0.54923   0.17382   0.06545   0.00000  Uiso   1.00
C64    C     0.64053   0.14680   0.04862   0.00000  Uiso   1.00
Cl65   Cl    0.56468   0.32427   0.21792   0.00000  Uiso   1.00
Cl66   Cl    0.46437   0.25442   0.09284   0.00000  Uiso   1.00
Cl67   Cl    0.49252   0.26608   0.36001   0.00000  Uiso   1.00
H68    H     0.35066   0.13353   0.06348   0.00000  Uiso   1.00
H69    H     0.49024   0.12097   0.21456   0.00000  Uiso   1.00
H70    H     0.50960   0.21472   0.27989   0.00000  Uiso   1.00
H71    H     0.57669   0.18584   0.39052   0.00000  Uiso   1.00
H72    H     0.64462   0.14073   0.46343   0.00000  Uiso   1.00
H73    H     0.52017   0.17485   0.09287   0.00000  Uiso   1.00
H74    H     0.65100   0.24176   0.41915   0.00000  Uiso   1.00
H75    H     0.35657   0.26456   0.01867   0.00000  Uiso   1.00
H76    H     0.39831   0.00294   0.25506   0.00000  Uiso   1.00
N77    N     0.47827   0.15223   0.23543   0.00000  Uiso   1.00
N78    N     0.52173   0.18110   0.26458   0.00000  Uiso   1.00
O79    O     0.63102   0.24629   0.25358   0.00000  Uiso   1.00
O80    O     0.39075   0.23704   0.24424   0.00000  Uiso   1.00
O81    O     0.64823   0.17358   0.33380   0.00000  Uiso   1.00
O82    O     0.40796   0.16433   0.32446   0.00000  Uiso   1.00
O83    O     0.60925   0.09629   0.25577   0.00000  Uiso   1.00
O84    O     0.36898   0.08704   0.24643   0.00000  Uiso   1.00
O85    O     0.59204   0.16901   0.17554   0.00000  Uiso   1.00
O86    O     0.35177   0.15976   0.16620   0.00000  Uiso   1.00
Zn87   Zn    0.60453   0.17284   0.25624   0.00000  Uiso   1.00
Zn88   Zn    0.39547   0.16049   0.24377   0.00000  Uiso   1.00
C89    C     0.68025   0.26459   0.24645   0.00000  Uiso   1.00
C90    C     0.72882   0.20675   0.40875   0.00000  Uiso   1.00
C91    C     0.68676   0.31908   0.24582   0.00000  Uiso   1.00
C92    C     0.70485   0.18191   0.35226   0.00000  Uiso   1.00
C93    C     0.97325   0.01426   0.24049   0.00000  Uiso   1.00
C94    C     0.98448   0.06857   0.24901   0.00000  Uiso   1.00
C95    C     0.96240   0.16141   0.14526   0.00000  Uiso   1.00
C96    C     0.95187   0.15170   0.49201   0.00000  Uiso   1.00
C97    C     0.93966   0.15969   0.08550   0.00000  Uiso   1.00
C98    C     0.69414   0.23118   0.43919   0.00000  Uiso   1.00
C99    C     0.71658   0.24438   0.49579   0.00000  Uiso   1.00
C100   C     0.80827   0.20734   0.49089   0.00000  Uiso   1.00
C101   C     0.77248   0.23049   0.02300   0.00000  Uiso   1.00
C102   C     0.78847   0.20700   0.43315   0.00000  Uiso   1.00
C103   C     0.86329   0.18642   0.01086   0.00000  Uiso   1.00
C104   C     0.89865   0.17444   0.47329   0.00000  Uiso   1.00
C105   C     0.88200   0.18935   0.41871   0.00000  Uiso   1.00
C106   C     0.82970   0.21221   0.40165   0.00000  Uiso   1.00
C107   C     0.88257   0.17382   0.06545   0.00000  Uiso   1.00
C108   C     0.97386   0.14680   0.04862   0.00000  Uiso   1.00
Cl109  Cl    0.89801   0.32427   0.21792   0.00000  Uiso   1.00
Cl110  Cl    0.79771   0.25442   0.09284   0.00000  Uiso   1.00
Cl111  Cl    0.82586   0.26608   0.36001   0.00000  Uiso   1.00
H112   H     0.68399   0.13353   0.06348   0.00000  Uiso   1.00
H113   H     0.82357   0.12097   0.21456   0.00000  Uiso   1.00
H114   H     0.84294   0.21472   0.27989   0.00000  Uiso   1.00
H115   H     0.91002   0.18584   0.39052   0.00000  Uiso   1.00
H116   H     0.97795   0.14073   0.46343   0.00000  Uiso   1.00
H117   H     0.85350   0.17485   0.09287   0.00000  Uiso   1.00
H118   H     0.98434   0.24176   0.41915   0.00000  Uiso   1.00
H119   H     0.68990   0.26456   0.01867   0.00000  Uiso   1.00
H120   H     0.73164   0.00294   0.25506   0.00000  Uiso   1.00
N121   N     0.81160   0.15223   0.23543   0.00000  Uiso   1.00
N122   N     0.85507   0.18110   0.26458   0.00000  Uiso   1.00
O123   O     0.96435   0.24629   0.25358   0.00000  Uiso   1.00
O124   O     0.72408   0.23704   0.24424   0.00000  Uiso   1.00
O125   O     0.98157   0.17358   0.33380   0.00000  Uiso   1.00
O126   O     0.74130   0.16433   0.32446   0.00000  Uiso   1.00
O127   O     0.94258   0.09629   0.25577   0.00000  Uiso   1.00
O128   O     0.70231   0.08704   0.24643   0.00000  Uiso   1.00
O129   O     0.92537   0.16901   0.17554   0.00000  Uiso   1.00
O130   O     0.68510   0.15976   0.16620   0.00000  Uiso   1.00
Zn131  Zn    0.93786   0.17284   0.25624   0.00000  Uiso   1.00
Zn132  Zn    0.72881   0.16049   0.24377   0.00000  Uiso   1.00
C133   C     0.01358   0.59792   0.24645   0.00000  Uiso   1.00
C134   C     0.06216   0.54008   0.40875   0.00000  Uiso   1.00
C135   C     0.02009   0.65241   0.24582   0.00000  Uiso   1.00
C136   C     0.03818   0.51524   0.35226   0.00000  Uiso   1.00
C137   C     0.30658   0.34759   0.24049   0.00000  Uiso   1.00
C138   C     0.31782   0.40190   0.24901   0.00000  Uiso   1.00
C139   C     0.29574   0.49474   0.14526   0.00000  Uiso   1.00
C140   C     0.28520   0.48503   0.49201   0.00000  Uiso   1.00
C141   C     0.27299   0.49303   0.08550   0.00000  Uiso   1.00
C142   C     0.02748   0.56452   0.43919   0.00000  Uiso   1.00
C143   C     0.04991   0.57771   0.49579   0.00000  Uiso   1.00
C144   C     0.14160   0.54067   0.49089   0.00000  Uiso   1.00
C145   C     0.10581   0.56382   0.02300   0.00000  Uiso   1.00
C146   C     0.12180   0.54034   0.43315   0.00000  Uiso   1.00
C147   C     0.19662   0.51975   0.01086   0.00000  Uiso   1.00
C148   C     0.23199   0.50777   0.47329   0.00000  Uiso   1.00
C149   C     0.21534   0.52268   0.41871   0.00000  Uiso   1.00
C150   C     0.16303   0.54554   0.40165   0.00000  Uiso   1.00
C151   C     0.21590   0.50715   0.06545   0.00000  Uiso   1.00
C152   C     0.30719   0.48014   0.04862   0.00000  Uiso   1.00
Cl153  Cl    0.23134   0.65760   0.21792   0.00000  Uiso   1.00
Cl154  Cl    0.13104   0.58775   0.09284   0.00000  Uiso   1.00
Cl155  Cl    0.15919   0.59941   0.36001   0.00000  Uiso   1.00
H156   H     0.01733   0.46686   0.06348   0.00000  Uiso   1.00
H157   H     0.15691   0.45431   0.21456   0.00000  Uiso   1.00
H158   H     0.17627   0.54805   0.27989   0.00000  Uiso   1.00
H159   H     0.24336   0.51917   0.39052   0.00000  Uiso   1.00
H160   H     0.31129   0.47406   0.46343   0.00000  Uiso   1.00
H161   H     0.18684   0.50818   0.09287   0.00000  Uiso   1.00
H162   H     0.31767   0.57509   0.41915   0.00000  Uiso   1.00
H163   H     0.02323   0.59789   0.01867   0.00000  Uiso   1.00
H164   H     0.06497   0.33627   0.25506   0.00000  Uiso   1.00
N165   N     0.14493   0.48556   0.23543   0.00000  Uiso   1.00
N166   N     0.18840   0.51444   0.26458   0.00000  Uiso   1.00
O167   O     0.29769   0.57963   0.25358   0.00000  Uiso   1.00
O168   O     0.05742   0.57038   0.24424   0.00000  Uiso   1.00
O169   O     0.31490   0.50691   0.33380   0.00000  Uiso   1.00
O170   O     0.07463   0.49766   0.32446   0.00000  Uiso   1.00
O171   O     0.27592   0.42962   0.25577   0.00000  Uiso   1.00
O172   O     0.03565   0.42037   0.24643   0.00000  Uiso   1.00
O173   O     0.25870   0.50234   0.17554   0.00000  Uiso   1.00
O174   O     0.01843   0.49309   0.16620   0.00000  Uiso   1.00
Zn175  Zn    0.27119   0.50618   0.25624   0.00000  Uiso   1.00
Zn176  Zn    0.06214   0.49382   0.24377   0.00000  Uiso   1.00
C177   C     0.34692   0.59792   0.24645   0.00000  Uiso   1.00
C178   C     0.39549   0.54008   0.40875   0.00000  Uiso   1.00
C179   C     0.35343   0.65241   0.24582   0.00000  Uiso   1.00
C180   C     0.37151   0.51524   0.35226   0.00000  Uiso   1.00
C181   C     0.63991   0.34759   0.24049   0.00000  Uiso   1.00
C182   C     0.65115   0.40190   0.24901   0.00000  Uiso   1.00
C183   C     0.62907   0.49474   0.14526   0.00000  Uiso   1.00
C184   C     0.61854   0.48503   0.49201   0.00000  Uiso   1.00
C185   C     0.60633   0.49303   0.08550   0.00000  Uiso   1.00
C186   C     0.36081   0.56452   0.43919   0.00000  Uiso   1.00
C187   C     0.38324   0.57771   0.49579   0.00000  Uiso   1.00
C188   C     0.47494   0.54067   0.49089   0.00000  Uiso   1.00
C189   C     0.43914   0.56382   0.02300   0.00000  Uiso   1.00
C190   C     0.45514   0.54034   0.43315   0.00000  Uiso   1.00
C191   C     0.52996   0.51975   0.01086   0.00000  Uiso   1.00
C192   C     0.56532   0.50777   0.47329   0.00000  Uiso   1.00
C193   C     0.54867   0.52268   0.41871   0.00000  Uiso   1.00
C194   C     0.49636   0.54554   0.40165   0.00000  Uiso   1.00
C195   C     0.54923   0.50715   0.06545   0.00000  Uiso   1.00
C196   C     0.64053   0.48014   0.04862   0.00000  Uiso   1.00
Cl197  Cl    0.56468   0.65760   0.21792   0.00000  Uiso   1.00
Cl198  Cl    0.46437   0.58775   0.09284   0.00000  Uiso   1.00
Cl199  Cl    0.49252   0.59941   0.36001   0.00000  Uiso   1.00
H200   H     0.35066   0.46686   0.06348   0.00000  Uiso   1.00
H201   H     0.49024   0.45431   0.21456   0.00000  Uiso   1.00
H202   H     0.50960   0.54805   0.27989   0.00000  Uiso   1.00
H203   H     0.57669   0.51917   0.39052   0.00000  Uiso   1.00
H204   H     0.64462   0.47406   0.46343   0.00000  Uiso   1.00
H205   H     0.52017   0.50818   0.09287   0.00000  Uiso   1.00
H206   H     0.65100   0.57509   0.41915   0.00000  Uiso   1.00
H207   H     0.35657   0.59789   0.01867   0.00000  Uiso   1.00
H208   H     0.39831   0.33627   0.25506   0.00000  Uiso   1.00
N209   N     0.47827   0.48556   0.23543   0.00000  Uiso   1.00
N210   N     0.52173   0.51444   0.26458   0.00000  Uiso   1.00
O211   O     0.63102   0.57963   0.25358   0.00000  Uiso   1.00
O212   O     0.39075   0.57038   0.24424   0.00000  Uiso   1.00
O213   O     0.64823   0.50691   0.33380   0.00000  Uiso   1.00
O214   O     0.40796   0.49766   0.32446   0.00000  Uiso   1.00
O215   O     0.60925   0.42962   0.25577   0.00000  Uiso   1.00
O216   O     0.36898   0.42037   0.24643   0.00000  Uiso   1.00
O217   O     0.59204   0.50234   0.17554   0.00000  Uiso   1.00
O218   O     0.35177   0.49309   0.16620   0.00000  Uiso   1.00
Zn219  Zn    0.60453   0.50618   0.25624   0.00000  Uiso   1.00
Zn220  Zn    0.39547   0.49382   0.24377   0.00000  Uiso   1.00
C221   C     0.68025   0.59792   0.24645   0.00000  Uiso   1.00
C222   C     0.72882   0.54008   0.40875   0.00000  Uiso   1.00
C223   C     0.68676   0.65241   0.24582   0.00000  Uiso   1.00
C224   C     0.70485   0.51524   0.35226   0.00000  Uiso   1.00
C225   C     0.97325   0.34759   0.24049   0.00000  Uiso   1.00
C226   C     0.98448   0.40190   0.24901   0.00000  Uiso   1.00
C227   C     0.96240   0.49474   0.14526   0.00000  Uiso   1.00
C228   C     0.95187   0.48503   0.49201   0.00000  Uiso   1.00
C229   C     0.93966   0.49303   0.08550   0.00000  Uiso   1.00
C230   C     0.69414   0.56452   0.43919   0.00000  Uiso   1.00
C231   C     0.71658   0.57771   0.49579   0.00000  Uiso   1.00
C232   C     0.80827   0.54067   0.49089   0.00000  Uiso   1.00
C233   C     0.77248   0.56382   0.02300   0.00000  Uiso   1.00
C234   C     0.78847   0.54034   0.43315   0.00000  Uiso   1.00
C235   C     0.86329   0.51975   0.01086   0.00000  Uiso   1.00
C236   C     0.89865   0.50777   0.47329   0.00000  Uiso   1.00
C237   C     0.88200   0.52268   0.41871   0.00000  Uiso   1.00
C238   C     0.82970   0.54554   0.40165   0.00000  Uiso   1.00
C239   C     0.88257   0.50715   0.06545   0.00000  Uiso   1.00
C240   C     0.97386   0.48014   0.04862   0.00000  Uiso   1.00
Cl241  Cl    0.89801   0.65760   0.21792   0.00000  Uiso   1.00
Cl242  Cl    0.79771   0.58775   0.09284   0.00000  Uiso   1.00
Cl243  Cl    0.82586   0.59941   0.36001   0.00000  Uiso   1.00
H244   H     0.68399   0.46686   0.06348   0.00000  Uiso   1.00
H245   H     0.82357   0.45431   0.21456   0.00000  Uiso   1.00
H246   H     0.84294   0.54805   0.27989   0.00000  Uiso   1.00
H247   H     0.91002   0.51917   0.39052   0.00000  Uiso   1.00
H248   H     0.97795   0.47406   0.46343   0.00000  Uiso   1.00
H249   H     0.85350   0.50818   0.09287   0.00000  Uiso   1.00
H250   H     0.98434   0.57509   0.41915   0.00000  Uiso   1.00
H251   H     0.68990   0.59789   0.01867   0.00000  Uiso   1.00
H252   H     0.73164   0.33627   0.25506   0.00000  Uiso   1.00
N253   N     0.81160   0.48556   0.23543   0.00000  Uiso   1.00
N254   N     0.85507   0.51444   0.26458   0.00000  Uiso   1.00
O255   O     0.96435   0.57963   0.25358   0.00000  Uiso   1.00
O256   O     0.72408   0.57038   0.24424   0.00000  Uiso   1.00
O257   O     0.98157   0.50691   0.33380   0.00000  Uiso   1.00
O258   O     0.74130   0.49766   0.32446   0.00000  Uiso   1.00
O259   O     0.94258   0.42962   0.25577   0.00000  Uiso   1.00
O260   O     0.70231   0.42037   0.24643   0.00000  Uiso   1.00
O261   O     0.92537   0.50234   0.17554   0.00000  Uiso   1.00
O262   O     0.68510   0.49309   0.16620   0.00000  Uiso   1.00
Zn263  Zn    0.93786   0.50618   0.25624   0.00000  Uiso   1.00
Zn264  Zn    0.72881   0.49382   0.24377   0.00000  Uiso   1.00
C265   C     0.01358   0.93126   0.24645   0.00000  Uiso   1.00
C266   C     0.06216   0.87341   0.40875   0.00000  Uiso   1.00
C267   C     0.02009   0.98575   0.24582   0.00000  Uiso   1.00
C268   C     0.03818   0.84857   0.35226   0.00000  Uiso   1.00
C269   C     0.30658   0.68092   0.24049   0.00000  Uiso   1.00
C270   C     0.31782   0.73524   0.24901   0.00000  Uiso   1.00
C271   C     0.29574   0.82807   0.14526   0.00000  Uiso   1.00
C272   C     0.28520   0.81836   0.49201   0.00000  Uiso   1.00
C273   C     0.27299   0.82636   0.08550   0.00000  Uiso   1.00
C274   C     0.02748   0.89785   0.43919   0.00000  Uiso   1.00
C275   C     0.04991   0.91104   0.49579   0.00000  Uiso   1.00
C276   C     0.14160   0.87401   0.49089   0.00000  Uiso   1.00
C277   C     0.10581   0.89715   0.02300   0.00000  Uiso   1.00
C278   C     0.12180   0.87367   0.43315   0.00000  Uiso   1.00
C279   C     0.19662   0.85308   0.01086   0.00000  Uiso   1.00
C280   C     0.23199   0.84111   0.47329   0.00000  Uiso   1.00
C281   C     0.21534   0.85601   0.41871   0.00000  Uiso   1.00
C282   C     0.16303   0.87887   0.40165   0.00000  Uiso   1.00
C283   C     0.21590   0.84049   0.06545   0.00000  Uiso   1.00
C284   C     0.30719   0.81347   0.04862   0.00000  Uiso   1.00
Cl285  Cl    0.23134   0.99094   0.21792   0.00000  Uiso   1.00
Cl286  Cl    0.13104   0.92109   0.09284   0.00000  Uiso   1.00
Cl287  Cl    0.15919   0.93274   0.36001   0.00000  Uiso   1.00
H288   H     0.01733   0.80019   0.06348   0.00000  Uiso   1.00
H289   H     0.15691   0.78764   0.21456   0.00000  Uiso   1.00
H290   H     0.17627   0.88138   0.27989   0.00000  Uiso   1.00
H291   H     0.24336   0.85251   0.39052   0.00000  Uiso   1.00
H292   H     0.31129   0.80739   0.46343   0.00000  Uiso   1.00
H293   H     0.18684   0.84151   0.09287   0.00000  Uiso   1.00
H294   H     0.31767   0.90843   0.41915   0.00000  Uiso   1.00
H295   H     0.02323   0.93122   0.01867   0.00000  Uiso   1.00
H296   H     0.06497   0.66961   0.25506   0.00000  Uiso   1.00
N297   N     0.14493   0.81890   0.23543   0.00000  Uiso   1.00
N298   N     0.18840   0.84777   0.26458   0.00000  Uiso   1.00
O299   O     0.29769   0.91296   0.25358   0.00000  Uiso   1.00
O300   O     0.05742   0.90371   0.24424   0.00000  Uiso   1.00
O301   O     0.31490   0.84024   0.33380   0.00000  Uiso   1.00
O302   O     0.07463   0.83099   0.32446   0.00000  Uiso   1.00
O303   O     0.27592   0.76296   0.25577   0.00000  Uiso   1.00
O304   O     0.03565   0.75371   0.24643   0.00000  Uiso   1.00
O305   O     0.25870   0.83567   0.17554   0.00000  Uiso   1.00
O306   O     0.01843   0.82642   0.16620   0.00000  Uiso   1.00
Zn307  Zn    0.27119   0.83951   0.25624   0.00000  Uiso   1.00
Zn308  Zn    0.06214   0.82716   0.24377   0.00000  Uiso   1.00
C309   C     0.34692   0.93126   0.24645   0.00000  Uiso   1.00
C310   C     0.39549   0.87341   0.40875   0.00000  Uiso   1.00
C311   C     0.35343   0.98575   0.24582   0.00000  Uiso   1.00
C312   C     0.37151   0.84857   0.35226   0.00000  Uiso   1.00
C313   C     0.63991   0.68092   0.24049   0.00000  Uiso   1.00
C314   C     0.65115   0.73524   0.24901   0.00000  Uiso   1.00
C315   C     0.62907   0.82807   0.14526   0.00000  Uiso   1.00
C316   C     0.61854   0.81836   0.49201   0.00000  Uiso   1.00
C317   C     0.60633   0.82636   0.08550   0.00000  Uiso   1.00
C318   C     0.36081   0.89785   0.43919   0.00000  Uiso   1.00
C319   C     0.38324   0.91104   0.49579   0.00000  Uiso   1.00
C320   C     0.47494   0.87401   0.49089   0.00000  Uiso   1.00
C321   C     0.43914   0.89715   0.02300   0.00000  Uiso   1.00
C322   C     0.45514   0.87367   0.43315   0.00000  Uiso   1.00
C323   C     0.52996   0.85308   0.01086   0.00000  Uiso   1.00
C324   C     0.56532   0.84111   0.47329   0.00000  Uiso   1.00
C325   C     0.54867   0.85601   0.41871   0.00000  Uiso   1.00
C326   C     0.49636   0.87887   0.40165   0.00000  Uiso   1.00
C327   C     0.54923   0.84049   0.06545   0.00000  Uiso   1.00
C328   C     0.64053   0.81347   0.04862   0.00000  Uiso   1.00
Cl329  Cl    0.56468   0.99094   0.21792   0.00000  Uiso   1.00
Cl330  Cl    0.46437   0.92109   0.09284   0.00000  Uiso   1.00
Cl331  Cl    0.49252   0.93274   0.36001   0.00000  Uiso   1.00
H332   H     0.35066   0.80019   0.06348   0.00000  Uiso   1.00
H333   H     0.49024   0.78764   0.21456   0.00000  Uiso   1.00
H334   H     0.50960   0.88138   0.27989   0.00000  Uiso   1.00
H335   H     0.57669   0.85251   0.39052   0.00000  Uiso   1.00
H336   H     0.64462   0.80739   0.46343   0.00000  Uiso   1.00
H337   H     0.52017   0.84151   0.09287   0.00000  Uiso   1.00
H338   H     0.65100   0.90843   0.41915   0.00000  Uiso   1.00
H339   H     0.35657   0.93122   0.01867   0.00000  Uiso   1.00
H340   H     0.39831   0.66961   0.25506   0.00000  Uiso   1.00
N341   N     0.47827   0.81890   0.23543   0.00000  Uiso   1.00
N342   N     0.52173   0.84777   0.26458   0.00000  Uiso   1.00
O343   O     0.63102   0.91296   0.25358   0.00000  Uiso   1.00
O344   O     0.39075   0.90371   0.24424   0.00000  Uiso   1.00
O345   O     0.64823   0.84024   0.33380   0.00000  Uiso   1.00
O346   O     0.40796   0.83099   0.32446   0.00000  Uiso   1.00
O347   O     0.60925   0.76296   0.25577   0.00000  Uiso   1.00
O348   O     0.36898   0.75371   0.24643   0.00000  Uiso   1.00
O349   O     0.59204   0.83567   0.17554   0.00000  Uiso   1.00
O350   O     0.35177   0.82642   0.16620   0.00000  Uiso   1.00
Zn351  Zn    0.60453   0.83951   0.25624   0.00000  Uiso   1.00
Zn352  Zn    0.39547   0.82716   0.24377   0.00000  Uiso   1.00
C353   C     0.68025   0.93126   0.24645   0.00000  Uiso   1.00
C354   C     0.72882   0.87341   0.40875   0.00000  Uiso   1.00
C355   C     0.68676   0.98575   0.24582   0.00000  Uiso   1.00
C356   C     0.70485   0.84857   0.35226   0.00000  Uiso   1.00
C357   C     0.97325   0.68092   0.24049   0.00000  Uiso   1.00
C358   C     0.98448   0.73524   0.24901   0.00000  Uiso   1.00
C359   C     0.96240   0.82807   0.14526   0.00000  Uiso   1.00
C360   C     0.95187   0.81836   0.49201   0.00000  Uiso   1.00
C361   C     0.93966   0.82636   0.08550   0.00000  Uiso   1.00
C362   C     0.69414   0.89785   0.43919   0.00000  Uiso   1.00
C363   C     0.71658   0.91104   0.49579   0.00000  Uiso   1.00
C364   C     0.80827   0.87401   0.49089   0.00000  Uiso   1.00
C365   C     0.77248   0.89715   0.02300   0.00000  Uiso   1.00
C366   C     0.78847   0.87367   0.43315   0.00000  Uiso   1.00
C367   C     0.86329   0.85308   0.01086   0.00000  Uiso   1.00
C368   C     0.89865   0.84111   0.47329   0.00000  Uiso   1.00
C369   C     0.88200   0.85601   0.41871   0.00000  Uiso   1.00
C370   C     0.82970   0.87887   0.40165   0.00000  Uiso   1.00
C371   C     0.88257   0.84049   0.06545   0.00000  Uiso   1.00
C372   C     0.97386   0.81347   0.04862   0.00000  Uiso   1.00
Cl373  Cl    0.89801   0.99094   0.21792   0.00000  Uiso   1.00
Cl374  Cl    0.79771   0.92109   0.09284   0.00000  Uiso   1.00
Cl375  Cl    0.82586   0.93274   0.36001   0.00000  Uiso   1.00
H376   H     0.68399   0.80019   0.06348   0.00000  Uiso   1.00
H377   H     0.82357   0.78764   0.21456   0.00000  Uiso   1.00
H378   H     0.84294   0.88138   0.27989   0.00000  Uiso   1.00
H379   H     0.91002   0.85251   0.39052   0.00000  Uiso   1.00
H380   H     0.97795   0.80739   0.46343   0.00000  Uiso   1.00
H381   H     0.85350   0.84151   0.09287   0.00000  Uiso   1.00
H382   H     0.98434   0.90843   0.41915   0.00000  Uiso   1.00
H383   H     0.68990   0.93122   0.01867   0.00000  Uiso   1.00
H384   H     0.73164   0.66961   0.25506   0.00000  Uiso   1.00
N385   N     0.81160   0.81890   0.23543   0.00000  Uiso   1.00
N386   N     0.85507   0.84777   0.26458   0.00000  Uiso   1.00
O387   O     0.96435   0.91296   0.25358   0.00000  Uiso   1.00
O388   O     0.72408   0.90371   0.24424   0.00000  Uiso   1.00
O389   O     0.98157   0.84024   0.33380   0.00000  Uiso   1.00
O390   O     0.74130   0.83099   0.32446   0.00000  Uiso   1.00
O391   O     0.94258   0.76296   0.25577   0.00000  Uiso   1.00
O392   O     0.70231   0.75371   0.24643   0.00000  Uiso   1.00
O393   O     0.92537   0.83567   0.17554   0.00000  Uiso   1.00
O394   O     0.68510   0.82642   0.16620   0.00000  Uiso   1.00
Zn395  Zn    0.93786   0.83951   0.25624   0.00000  Uiso   1.00
Zn396  Zn    0.72881   0.82716   0.24377   0.00000  Uiso   1.00
C397   C     0.01358   0.26459   0.74645   0.00000  Uiso   1.00
C398   C     0.06216   0.20675   0.90875   0.00000  Uiso   1.00
C399   C     0.02009   0.31908   0.74582   0.00000  Uiso   1.00
C400   C     0.03818   0.18191   0.85226   0.00000  Uiso   1.00
C401   C     0.30658   0.01426   0.74049   0.00000  Uiso   1.00
C402   C     0.31782   0.06857   0.74901   0.00000  Uiso   1.00
C403   C     0.29574   0.16141   0.64526   0.00000  Uiso   1.00
C404   C     0.28520   0.15170   0.99201   0.00000  Uiso   1.00
C405   C     0.27299   0.15969   0.58550   0.00000  Uiso   1.00
C406   C     0.02748   0.23118   0.93919   0.00000  Uiso   1.00
C407   C     0.04991   0.24438   0.99579   0.00000  Uiso   1.00
C408   C     0.14160   0.20734   0.99089   0.00000  Uiso   1.00
C409   C     0.10581   0.23049   0.52300   0.00000  Uiso   1.00
C410   C     0.12180   0.20700   0.93315   0.00000  Uiso   1.00
C411   C     0.19662   0.18642   0.51086   0.00000  Uiso   1.00
C412   C     0.23199   0.17444   0.97329   0.00000  Uiso   1.00
C413   C     0.21534   0.18935   0.91871   0.00000  Uiso   1.00
C414   C     0.16303   0.21221   0.90165   0.00000  Uiso   1.00
C415   C     0.21590   0.17382   0.56545   0.00000  Uiso   1.00
C416   C     0.30719   0.14680   0.54862   0.00000  Uiso   1.00
Cl417  Cl    0.23134   0.32427   0.71792   0.00000  Uiso   1.00
Cl418  Cl    0.13104   0.25442   0.59284   0.00000  Uiso   1.00
Cl419  Cl    0.15919   0.26608   0.86001   0.00000  Uiso   1.00
H420   H     0.01733   0.13353   0.56348   0.00000  Uiso   1.00
H421   H     0.15691   0.12097   0.71456   0.00000  Uiso   1.00
H422   H     0.17627   0.21472   0.77989   0.00000  Uiso   1.00
H423   H     0.24336   0.18584   0.89052   0.00000  Uiso   1.00
H424   H     0.31129   0.14073   0.96343   0.00000  Uiso   1.00
H425   H     0.18684   0.17485   0.59287   0.00000  Uiso   1.00
H426   H     0.31767   0.24176   0.91915   0.00000  Uiso   1.00
H427   H     0.02323   0.26456   0.51867   0.00000  Uiso   1.00
H428   H     0.06497   0.00294   0.75506   0.00000  Uiso   1.00
N429   N     0.14493   0.15223   0.73543   0.00000  Uiso   1.00
N430   N     0.18840   0.18110   0.76458   0.00000  Uiso   1.00
O431   O     0.29769   0.24629   0.75358   0.00000  Uiso   1.00
O432   O     0.05742   0.23704   0.74424   0.00000  Uiso   1.00
O433   O     0.31490   0.17358   0.83380   0.00000  Uiso   1.00
O434   O     0.07463   0.16433   0.82446   0.00000  Uiso   1.00
O435   O     0.27592   0.09629   0.75577   0.00000  Uiso   1.00
O436   O     0.03565   0.08704   0.74643   0.00000  Uiso   1.00
O437   O     0.25870   0.16901   0.67554   0.00000  Uiso   1.00
O438   O     0.01843   0.15976   0.66620   0.00000  Uiso   1.00
Zn439  Zn    0.27119   0.17284   0.75624   0.00000  Uiso   1.00
Zn440  Zn    0.06214   0.16049   0.74377   0.00000  Uiso   1.00
C441   C     0.34692   0.26459   0.74645   0.00000  Uiso   1.00
C442   C     0.39549   0.20675   0.90875   0.00000  Uiso   1.00
C443   C     0.35343   0.31908   0.74582   0.00000  Uiso   1.00
C444   C     0.37151   0.18191   0.85226   0.00000  Uiso   1.00
C445   C     0.63991   0.01426   0.74049   0.00000  Uiso   1.00
C446   C     0.65115   0.06857   0.74901   0.00000  Uiso   1.00
C447   C     0.62907   0.16141   0.64526   0.00000  Uiso   1.00
C448   C     0.61854   0.15170   0.99201   0.00000  Uiso   1.00
C449   C     0.60633   0.15969   0.58550   0.00000  Uiso   1.00
C450   C     0.36081   0.23118   0.93919   0.00000  Uiso   1.00
C451   C     0.38324   0.24438   0.99579   0.00000  Uiso   1.00
C452   C     0.47494   0.20734   0.99089   0.00000  Uiso   1.00
C453   C     0.43914   0.23049   0.52300   0.00000  Uiso   1.00
C454   C     0.45514   0.20700   0.93315   0.00000  Uiso   1.00
C455   C     0.52996   0.18642   0.51086   0.00000  Uiso   1.00
C456   C     0.56532   0.17444   0.97329   0.00000  Uiso   1.00
C457   C     0.54867   0.18935   0.91871   0.00000  Uiso   1.00
C458   C     0.49636   0.21221   0.90165   0.00000  Uiso   1.00
C459   C     0.54923   0.17382   0.56545   0.00000  Uiso   1.00
C460   C     0.64053   0.14680   0.54862   0.00000  Uiso   1.00
Cl461  Cl    0.56468   0.32427   0.71792   0.00000  Uiso   1.00
Cl462  Cl    0.46437   0.25442   0.59284   0.00000  Uiso   1.00
Cl463  Cl    0.49252   0.26608   0.86001   0.00000  Uiso   1.00
H464   H     0.35066   0.13353   0.56348   0.00000  Uiso   1.00
H465   H     0.49024   0.12097   0.71456   0.00000  Uiso   1.00
H466   H     0.50960   0.21472   0.77989   0.00000  Uiso   1.00
H467   H     0.57669   0.18584   0.89052   0.00000  Uiso   1.00
H468   H     0.64462   0.14073   0.96343   0.00000  Uiso   1.00
H469   H     0.52017   0.17485   0.59287   0.00000  Uiso   1.00
H470   H     0.65100   0.24176   0.91915   0.00000  Uiso   1.00
H471   H     0.35657   0.26456   0.51867   0.00000  Uiso   1.00
H472   H     0.39831   0.00294   0.75506   0.00000  Uiso   1.00
N473   N     0.47827   0.15223   0.73543   0.00000  Uiso   1.00
N474   N     0.52173   0.18110   0.76458   0.00000  Uiso   1.00
O475   O     0.63102   0.24629   0.75358   0.00000  Uiso   1.00
O476   O     0.39075   0.23704   0.74424   0.00000  Uiso   1.00
O477   O     0.64823   0.17358   0.83380   0.00000  Uiso   1.00
O478   O     0.40796   0.16433   0.82446   0.00000  Uiso   1.00
O479   O     0.60925   0.09629   0.75577   0.00000  Uiso   1.00
O480   O     0.36898   0.08704   0.74643   0.00000  Uiso   1.00
O481   O     0.59204   0.16901   0.67554   0.00000  Uiso   1.00
O482   O     0.35177   0.15976   0.66620   0.00000  Uiso   1.00
Zn483  Zn    0.60453   0.17284   0.75624   0.00000  Uiso   1.00
Zn484  Zn    0.39547   0.16049   0.74377   0.00000  Uiso   1.00
C485   C     0.68025   0.26459   0.74645   0.00000  Uiso   1.00
C486   C     0.72882   0.20675   0.90875   0.00000  Uiso   1.00
C487   C     0.68676   0.31908   0.74582   0.00000  Uiso   1.00
C488   C     0.70485   0.18191   0.85226   0.00000  Uiso   1.00
C489   C     0.97325   0.01426   0.74049   0.00000  Uiso   1.00
C490   C     0.98448   0.06857   0.74901   0.00000  Uiso   1.00
C491   C     0.96240   0.16141   0.64526   0.00000  Uiso   1.00
C492   C     0.95187   0.15170   0.99201   0.00000  Uiso   1.00
C493   C     0.93966   0.15969   0.58550   0.00000  Uiso   1.00
C494   C     0.69414   0.23118   0.93919   0.00000  Uiso   1.00
C495   C     0.71658   0.24438   0.99579   0.00000  Uiso   1.00
C496   C     0.80827   0.20734   0.99089   0.00000  Uiso   1.00
C497   C     0.77248   0.23049   0.52300   0.00000  Uiso   1.00
C498   C     0.78847   0.20700   0.93315   0.00000  Uiso   1.00
C499   C     0.86329   0.18642   0.51086   0.00000  Uiso   1.00
C500   C     0.89865   0.17444   0.97329   0.00000  Uiso   1.00
C501   C     0.88200   0.18935   0.91871   0.00000  Uiso   1.00
C502   C     0.82970   0.21221   0.90165   0.00000  Uiso   1.00
C503   C     0.88257   0.17382   0.56545   0.00000  Uiso   1.00
C504   C     0.97386   0.14680   0.54862   0.00000  Uiso   1.00
Cl505  Cl    0.89801   0.32427   0.71792   0.00000  Uiso   1.00
Cl506  Cl    0.79771   0.25442   0.59284   0.00000  Uiso   1.00
Cl507  Cl    0.82586   0.26608   0.86001   0.00000  Uiso   1.00
H508   H     0.68399   0.13353   0.56348   0.00000  Uiso   1.00
H509   H     0.82357   0.12097   0.71456   0.00000  Uiso   1.00
H510   H     0.84294   0.21472   0.77989   0.00000  Uiso   1.00
H511   H     0.91002   0.18584   0.89052   0.00000  Uiso   1.00
H512   H     0.97795   0.14073   0.96343   0.00000  Uiso   1.00
H513   H     0.85350   0.17485   0.59287   0.00000  Uiso   1.00
H514   H     0.98434   0.24176   0.91915   0.00000  Uiso   1.00
H515   H     0.68990   0.26456   0.51867   0.00000  Uiso   1.00
H516   H     0.73164   0.00294   0.75506   0.00000  Uiso   1.00
N517   N     0.81160   0.15223   0.73543   0.00000  Uiso   1.00
N518   N     0.85507   0.18110   0.76458   0.00000  Uiso   1.00
O519   O     0.96435   0.24629   0.75358   0.00000  Uiso   1.00
O520   O     0.72408   0.23704   0.74424   0.00000  Uiso   1.00
O521   O     0.98157   0.17358   0.83380   0.00000  Uiso   1.00
O522   O     0.74130   0.16433   0.82446   0.00000  Uiso   1.00
O523   O     0.94258   0.09629   0.75577   0.00000  Uiso   1.00
O524   O     0.70231   0.08704   0.74643   0.00000  Uiso   1.00
O525   O     0.92537   0.16901   0.67554   0.00000  Uiso   1.00
O526   O     0.68510   0.15976   0.66620   0.00000  Uiso   1.00
Zn527  Zn    0.93786   0.17284   0.75624   0.00000  Uiso   1.00
Zn528  Zn    0.72881   0.16049   0.74377   0.00000  Uiso   1.00
C529   C     0.01358   0.59792   0.74645   0.00000  Uiso   1.00
C530   C     0.06216   0.54008   0.90875   0.00000  Uiso   1.00
C531   C     0.02009   0.65241   0.74582   0.00000  Uiso   1.00
C532   C     0.03818   0.51524   0.85226   0.00000  Uiso   1.00
C533   C     0.30658   0.34759   0.74049   0.00000  Uiso   1.00
C534   C     0.31782   0.40190   0.74901   0.00000  Uiso   1.00
C535   C     0.29574   0.49474   0.64526   0.00000  Uiso   1.00
C536   C     0.28520   0.48503   0.99201   0.00000  Uiso   1.00
C537   C     0.27299   0.49303   0.58550   0.00000  Uiso   1.00
C538   C     0.02748   0.56452   0.93919   0.00000  Uiso   1.00
C539   C     0.04991   0.57771   0.99579   0.00000  Uiso   1.00
C540   C     0.14160   0.54067   0.99089   0.00000  Uiso   1.00
C541   C     0.10581   0.56382   0.52300   0.00000  Uiso   1.00
C542   C     0.12180   0.54034   0.93315   0.00000  Uiso   1.00
C543   C     0.19662   0.51975   0.51086   0.00000  Uiso   1.00
C544   C     0.23199   0.50777   0.97329   0.00000  Uiso   1.00
C545   C     0.21534   0.52268   0.91871   0.00000  Uiso   1.00
C546   C     0.16303   0.54554   0.90165   0.00000  Uiso   1.00
C547   C     0.21590   0.50715   0.56545   0.00000  Uiso   1.00
C548   C     0.30719   0.48014   0.54862   0.00000  Uiso   1.00
Cl549  Cl    0.23134   0.65760   0.71792   0.00000  Uiso   1.00
Cl550  Cl    0.13104   0.58775   0.59284   0.00000  Uiso   1.00
Cl551  Cl    0.15919   0.59941   0.86001   0.00000  Uiso   1.00
H552   H     0.01733   0.46686   0.56348   0.00000  Uiso   1.00
H553   H     0.15691   0.45431   0.71456   0.00000  Uiso   1.00
H554   H     0.17627   0.54805   0.77989   0.00000  Uiso   1.00
H555   H     0.24336   0.51917   0.89052   0.00000  Uiso   1.00
H556   H     0.31129   0.47406   0.96343   0.00000  Uiso   1.00
H557   H     0.18684   0.50818   0.59287   0.00000  Uiso   1.00
H558   H     0.31767   0.57509   0.91915   0.00000  Uiso   1.00
H559   H     0.02323   0.59789   0.51867   0.00000  Uiso   1.00
H560   H     0.06497   0.33627   0.75506   0.00000  Uiso   1.00
N561   N     0.14493   0.48556   0.73543   0.00000  Uiso   1.00
N562   N     0.18840   0.51444   0.76458   0.00000  Uiso   1.00
O563   O     0.29769   0.57963   0.75358   0.00000  Uiso   1.00
O564   O     0.05742   0.57038   0.74424   0.00000  Uiso   1.00
O565   O     0.31490   0.50691   0.83380   0.00000  Uiso   1.00
O566   O     0.07463   0.49766   0.82446   0.00000  Uiso   1.00
O567   O     0.27592   0.42962   0.75577   0.00000  Uiso   1.00
O568   O     0.03565   0.42037   0.74643   0.00000  Uiso   1.00
O569   O     0.25870   0.50234   0.67554   0.00000  Uiso   1.00
O570   O     0.01843   0.49309   0.66620   0.00000  Uiso   1.00
Zn571  Zn    0.27119   0.50618   0.75624   0.00000  Uiso   1.00
Zn572  Zn    0.06214   0.49382   0.74377   0.00000  Uiso   1.00
C573   C     0.34692   0.59792   0.74645   0.00000  Uiso   1.00
C574   C     0.39549   0.54008   0.90875   0.00000  Uiso   1.00
C575   C     0.35343   0.65241   0.74582   0.00000  Uiso   1.00
C576   C     0.37151   0.51524   0.85226   0.00000  Uiso   1.00
C577   C     0.63991   0.34759   0.74049   0.00000  Uiso   1.00
C578   C     0.65115   0.40190   0.74901   0.00000  Uiso   1.00
C579   C     0.62907   0.49474   0.64526   0.00000  Uiso   1.00
C580   C     0.61854   0.48503   0.99201   0.00000  Uiso   1.00
C581   C     0.60633   0.49303   0.58550   0.00000  Uiso   1.00
C582   C     0.36081   0.56452   0.93919   0.00000  Uiso   1.00
C583   C     0.38324   0.57771   0.99579   0.00000  Uiso   1.00
C584   C     0.47494   0.54067   0.99089   0.00000  Uiso   1.00
C585   C     0.43914   0.56382   0.52300   0.00000  Uiso   1.00
C586   C     0.45514   0.54034   0.93315   0.00000  Uiso   1.00
C587   C     0.52996   0.51975   0.51086   0.00000  Uiso   1.00
C588   C     0.56532   0.50777   0.97329   0.00000  Uiso   1.00
C589   C     0.54867   0.52268   0.91871   0.00000  Uiso   1.00
C590   C     0.49636   0.54554   0.90165   0.00000  Uiso   1.00
C591   C     0.54923   0.50715   0.56545   0.00000  Uiso   1.00
C592   C     0.64053   0.48014   0.54862   0.00000  Uiso   1.00
Cl593  Cl    0.56468   0.65760   0.71792   0.00000  Uiso   1.00
Cl594  Cl    0.46437   0.58775   0.59284   0.00000  Uiso   1.00
Cl595  Cl    0.49252   0.59941   0.86001   0.00000  Uiso   1.00
H596   H     0.35066   0.46686   0.56348   0.00000  Uiso   1.00
H597   H     0.49024   0.45431   0.71456   0.00000  Uiso   1.00
H598   H     0.50960   0.54805   0.77989   0.00000  Uiso   1.00
H599   H     0.57669   0.51917   0.89052   0.00000  Uiso   1.00
H600   H     0.64462   0.47406   0.96343   0.00000  Uiso   1.00
H601   H     0.52017   0.50818   0.59287   0.00000  Uiso   1.00
H602   H     0.65100   0.57509   0.91915   0.00000  Uiso   1.00
H603   H     0.35657   0.59789   0.51867   0.00000  Uiso   1.00
H604   H     0.39831   0.33627   0.75506   0.00000  Uiso   1.00
N605   N     0.47827   0.48556   0.73543   0.00000  Uiso   1.00
N606   N     0.52173   0.51444   0.76458   0.00000  Uiso   1.00
O607   O     0.63102   0.57963   0.75358   0.00000  Uiso   1.00
O608   O     0.39075   0.57038   0.74424   0.00000  Uiso   1.00
O609   O     0.64823   0.50691   0.83380   0.00000  Uiso   1.00
O610   O     0.40796   0.49766   0.82446   0.00000  Uiso   1.00
O611   O     0.60925   0.42962   0.75577   0.00000  Uiso   1.00
O612   O     0.36898   0.42037   0.74643   0.00000  Uiso   1.00
O613   O     0.59204   0.50234   0.67554   0.00000  Uiso   1.00
O614   O     0.35177   0.49309   0.66620   0.00000  Uiso   1.00
Zn615  Zn    0.60453   0.50618   0.75624   0.00000  Uiso   1.00
Zn616  Zn    0.39547   0.49382   0.74377   0.00000  Uiso   1.00
C617   C     0.68025   0.59792   0.74645   0.00000  Uiso   1.00
C618   C     0.72882   0.54008   0.90875   0.00000  Uiso   1.00
C619   C     0.68676   0.65241   0.74582   0.00000  Uiso   1.00
C620   C     0.70485   0.51524   0.85226   0.00000  Uiso   1.00
C621   C     0.97325   0.34759   0.74049   0.00000  Uiso   1.00
C622   C     0.98448   0.40190   0.74901   0.00000  Uiso   1.00
C623   C     0.96240   0.49474   0.64526   0.00000  Uiso   1.00
C624   C     0.95187   0.48503   0.99201   0.00000  Uiso   1.00
C625   C     0.93966   0.49303   0.58550   0.00000  Uiso   1.00
C626   C     0.69414   0.56452   0.93919   0.00000  Uiso   1.00
C627   C     0.71658   0.57771   0.99579   0.00000  Uiso   1.00
C628   C     0.80827   0.54067   0.99089   0.00000  Uiso   1.00
C629   C     0.77248   0.56382   0.52300   0.00000  Uiso   1.00
C630   C     0.78847   0.54034   0.93315   0.00000  Uiso   1.00
C631   C     0.86329   0.51975   0.51086   0.00000  Uiso   1.00
C632   C     0.89865   0.50777   0.97329   0.00000  Uiso   1.00
C633   C     0.88200   0.52268   0.91871   0.00000  Uiso   1.00
C634   C     0.82970   0.54554   0.90165   0.00000  Uiso   1.00
C635   C     0.88257   0.50715   0.56545   0.00000  Uiso   1.00
C636   C     0.97386   0.48014   0.54862   0.00000  Uiso   1.00
Cl637  Cl    0.89801   0.65760   0.71792   0.00000  Uiso   1.00
Cl638  Cl    0.79771   0.58775   0.59284   0.00000  Uiso   1.00
Cl639  Cl    0.82586   0.59941   0.86001   0.00000  Uiso   1.00
H640   H     0.68399   0.46686   0.56348   0.00000  Uiso   1.00
H641   H     0.82357   0.45431   0.71456   0.00000  Uiso   1.00
H642   H     0.84294   0.54805   0.77989   0.00000  Uiso   1.00
H643   H     0.91002   0.51917   0.89052   0.00000  Uiso   1.00
H644   H     0.97795   0.47406   0.96343   0.00000  Uiso   1.00
H645   H     0.85350   0.50818   0.59287   0.00000  Uiso   1.00
H646   H     0.98434   0.57509   0.91915   0.00000  Uiso   1.00
H647   H     0.68990   0.59789   0.51867   0.00000  Uiso   1.00
H648   H     0.73164   0.33627   0.75506   0.00000  Uiso   1.00
N649   N     0.81160   0.48556   0.73543   0.00000  Uiso   1.00
N650   N     0.85507   0.51444   0.76458   0.00000  Uiso   1.00
O651   O     0.96435   0.57963   0.75358   0.00000  Uiso   1.00
O652   O     0.72408   0.57038   0.74424   0.00000  Uiso   1.00
O653   O     0.98157   0.50691   0.83380   0.00000  Uiso   1.00
O654   O     0.74130   0.49766   0.82446   0.00000  Uiso   1.00
O655   O     0.94258   0.42962   0.75577   0.00000  Uiso   1.00
O656   O     0.70231   0.42037   0.74643   0.00000  Uiso   1.00
O657   O     0.92537   0.50234   0.67554   0.00000  Uiso   1.00
O658   O     0.68510   0.49309   0.66620   0.00000  Uiso   1.00
Zn659  Zn    0.93786   0.50618   0.75624   0.00000  Uiso   1.00
Zn660  Zn    0.72881   0.49382   0.74377   0.00000  Uiso   1.00
C661   C     0.01358   0.93126   0.74645   0.00000  Uiso   1.00
C662   C     0.06216   0.87341   0.90875   0.00000  Uiso   1.00
C663   C     0.02009   0.98575   0.74582   0.00000  Uiso   1.00
C664   C     0.03818   0.84857   0.85226   0.00000  Uiso   1.00
C665   C     0.30658   0.68092   0.74049   0.00000  Uiso   1.00
C666   C     0.31782   0.73524   0.74901   0.00000  Uiso   1.00
C667   C     0.29574   0.82807   0.64526   0.00000  Uiso   1.00
C668   C     0.28520   0.81836   0.99201   0.00000  Uiso   1.00
C669   C     0.27299   0.82636   0.58550   0.00000  Uiso   1.00
C670   C     0.02748   0.89785   0.93919   0.00000  Uiso   1.00
C671   C     0.04991   0.91104   0.99579   0.00000  Uiso   1.00
C672   C     0.14160   0.87401   0.99089   0.00000  Uiso   1.00
C673   C     0.10581   0.89715   0.52300   0.00000  Uiso   1.00
C674   C     0.12180   0.87367   0.93315   0.00000  Uiso   1.00
C675   C     0.19662   0.85308   0.51086   0.00000  Uiso   1.00
C676   C     0.23199   0.84111   0.97329   0.00000  Uiso   1.00
C677   C     0.21534   0.85601   0.91871   0.00000  Uiso   1.00
C678   C     0.16303   0.87887   0.90165   0.00000  Uiso   1.00
C679   C     0.21590   0.84049   0.56545   0.00000  Uiso   1.00
C680   C     0.30719   0.81347   0.54862   0.00000  Uiso   1.00
Cl681  Cl    0.23134   0.99094   0.71792   0.00000  Uiso   1.00
Cl682  Cl    0.13104   0.92109   0.59284   0.00000  Uiso   1.00
Cl683  Cl    0.15919   0.93274   0.86001   0.00000  Uiso   1.00
H684   H     0.01733   0.80019   0.56348   0.00000  Uiso   1.00
H685   H     0.15691   0.78764   0.71456   0.00000  Uiso   1.00
H686   H     0.17627   0.88138   0.77989   0.00000  Uiso   1.00
H687   H     0.24336   0.85251   0.89052   0.00000  Uiso   1.00
H688   H     0.31129   0.80739   0.96343   0.00000  Uiso   1.00
H689   H     0.18684   0.84151   0.59287   0.00000  Uiso   1.00
H690   H     0.31767   0.90843   0.91915   0.00000  Uiso   1.00
H691   H     0.02323   0.93122   0.51867   0.00000  Uiso   1.00
H692   H     0.06497   0.66961   0.75506   0.00000  Uiso   1.00
N693   N     0.14493   0.81890   0.73543   0.00000  Uiso   1.00
N694   N     0.18840   0.84777   0.76458   0.00000  Uiso   1.00
O695   O     0.29769   0.91296   0.75358   0.00000  Uiso   1.00
O696   O     0.05742   0.90371   0.74424   0.00000  Uiso   1.00
O697   O     0.31490   0.84024   0.83380   0.00000  Uiso   1.00
O698   O     0.07463   0.83099   0.82446   0.00000  Uiso   1.00
O699   O     0.27592   0.76296   0.75577   0.00000  Uiso   1.00
O700   O     0.03565   0.75371   0.74643   0.00000  Uiso   1.00
O701   O     0.25870   0.83567   0.67554   0.00000  Uiso   1.00
O702   O     0.01843   0.82642   0.66620   0.00000  Uiso   1.00
Zn703  Zn    0.27119   0.83951   0.75624   0.00000  Uiso   1.00
Zn704  Zn    0.06214   0.82716   0.74377   0.00000  Uiso   1.00
C705   C     0.34692   0.93126   0.74645   0.00000  Uiso   1.00
C706   C     0.39549   0.87341   0.90875   0.00000  Uiso   1.00
C707   C     0.35343   0.98575   0.74582   0.00000  Uiso   1.00
C708   C     0.37151   0.84857   0.85226   0.00000  Uiso   1.00
C709   C     0.63991   0.68092   0.74049   0.00000  Uiso   1.00
C710   C     0.65115   0.73524   0.74901   0.00000  Uiso   1.00
C711   C     0.62907   0.82807   0.64526   0.00000  Uiso   1.00
C712   C     0.61854   0.81836   0.99201   0.00000  Uiso   1.00
C713   C     0.60633   0.82636   0.58550   0.00000  Uiso   1.00
C714   C     0.36081   0.89785   0.93919   0.00000  Uiso   1.00
C715   C     0.38324   0.91104   0.99579   0.00000  Uiso   1.00
C716   C     0.47494   0.87401   0.99089   0.00000  Uiso   1.00
C717   C     0.43914   0.89715   0.52300   0.00000  Uiso   1.00
C718   C     0.45514   0.87367   0.93315   0.00000  Uiso   1.00
C719   C     0.52996   0.85308   0.51086   0.00000  Uiso   1.00
C720   C     0.56532   0.84111   0.97329   0.00000  Uiso   1.00
C721   C     0.54867   0.85601   0.91871   0.00000  Uiso   1.00
C722   C     0.49636   0.87887   0.90165   0.00000  Uiso   1.00
C723   C     0.54923   0.84049   0.56545   0.00000  Uiso   1.00
C724   C     0.64053   0.81347   0.54862   0.00000  Uiso   1.00
Cl725  Cl    0.56468   0.99094   0.71792   0.00000  Uiso   1.00
Cl726  Cl    0.46437   0.92109   0.59284   0.00000  Uiso   1.00
Cl727  Cl    0.49252   0.93274   0.86001   0.00000  Uiso   1.00
H728   H     0.35066   0.80019   0.56348   0.00000  Uiso   1.00
H729   H     0.49024   0.78764   0.71456   0.00000  Uiso   1.00
H730   H     0.50960   0.88138   0.77989   0.00000  Uiso   1.00
H731   H     0.57669   0.85251   0.89052   0.00000  Uiso   1.00
H732   H     0.64462   0.80739   0.96343   0.00000  Uiso   1.00
H733   H     0.52017   0.84151   0.59287   0.00000  Uiso   1.00
H734   H     0.65100   0.90843   0.91915   0.00000  Uiso   1.00
H735   H     0.35657   0.93122   0.51867   0.00000  Uiso   1.00
H736   H     0.39831   0.66961   0.75506   0.00000  Uiso   1.00
N737   N     0.47827   0.81890   0.73543   0.00000  Uiso   1.00
N738   N     0.52173   0.84777   0.76458   0.00000  Uiso   1.00
O739   O     0.63102   0.91296   0.75358   0.00000  Uiso   1.00
O740   O     0.39075   0.90371   0.74424   0.00000  Uiso   1.00
O741   O     0.64823   0.84024   0.83380   0.00000  Uiso   1.00
O742   O     0.40796   0.83099   0.82446   0.00000  Uiso   1.00
O743   O     0.60925   0.76296   0.75577   0.00000  Uiso   1.00
O744   O     0.36898   0.75371   0.74643   0.00000  Uiso   1.00
O745   O     0.59204   0.83567   0.67554   0.00000  Uiso   1.00
O746   O     0.35177   0.82642   0.66620   0.00000  Uiso   1.00
Zn747  Zn    0.60453   0.83951   0.75624   0.00000  Uiso   1.00
Zn748  Zn    0.39547   0.82716   0.74377   0.00000  Uiso   1.00
C749   C     0.68025   0.93126   0.74645   0.00000  Uiso   1.00
C750   C     0.72882   0.87341   0.90875   0.00000  Uiso   1.00
C751   C     0.68676   0.98575   0.74582   0.00000  Uiso   1.00
C752   C     0.70485   0.84857   0.85226   0.00000  Uiso   1.00
C753   C     0.97325   0.68092   0.74049   0.00000  Uiso   1.00
C754   C     0.98448   0.73524   0.74901   0.00000  Uiso   1.00
C755   C     0.96240   0.82807   0.64526   0.00000  Uiso   1.00
C756   C     0.95187   0.81836   0.99201   0.00000  Uiso   1.00
C757   C     0.93966   0.82636   0.58550   0.00000  Uiso   1.00
C758   C     0.69414   0.89785   0.93919   0.00000  Uiso   1.00
C759   C     0.71658   0.91104   0.99579   0.00000  Uiso   1.00
C760   C     0.80827   0.87401   0.99089   0.00000  Uiso   1.00
C761   C     0.77248   0.89715   0.52300   0.00000  Uiso   1.00
C762   C     0.78847   0.87367   0.93315   0.00000  Uiso   1.00
C763   C     0.86329   0.85308   0.51086   0.00000  Uiso   1.00
C764   C     0.89865   0.84111   0.97329   0.00000  Uiso   1.00
C765   C     0.88200   0.85601   0.91871   0.00000  Uiso   1.00
C766   C     0.82970   0.87887   0.90165   0.00000  Uiso   1.00
C767   C     0.88257   0.84049   0.56545   0.00000  Uiso   1.00
C768   C     0.97386   0.81347   0.54862   0.00000  Uiso   1.00
Cl769  Cl    0.89801   0.99094   0.71792   0.00000  Uiso   1.00
Cl770  Cl    0.79771   0.92109   0.59284   0.00000  Uiso   1.00
Cl771  Cl    0.82586   0.93274   0.86001   0.00000  Uiso   1.00
H772   H     0.68399   0.80019   0.56348   0.00000  Uiso   1.00
H773   H     0.82357   0.78764   0.71456   0.00000  Uiso   1.00
H774   H     0.84294   0.88138   0.77989   0.00000  Uiso   1.00
H775   H     0.91002   0.85251   0.89052   0.00000  Uiso   1.00
H776   H     0.97795   0.80739   0.96343   0.00000  Uiso   1.00
H777   H     0.85350   0.84151   0.59287   0.00000  Uiso   1.00
H778   H     0.98434   0.90843   0.91915   0.00000  Uiso   1.00
H779   H     0.68990   0.93122   0.51867   0.00000  Uiso   1.00
H780   H     0.73164   0.66961   0.75506   0.00000  Uiso   1.00
N781   N     0.81160   0.81890   0.73543   0.00000  Uiso   1.00
N782   N     0.85507   0.84777   0.76458   0.00000  Uiso   1.00
O783   O     0.96435   0.91296   0.75358   0.00000  Uiso   1.00
O784   O     0.72408   0.90371   0.74424   0.00000  Uiso   1.00
O785   O     0.98157   0.84024   0.83380   0.00000  Uiso   1.00
O786   O     0.74130   0.83099   0.82446   0.00000  Uiso   1.00
O787   O     0.94258   0.76296   0.75577   0.00000  Uiso   1.00
O788   O     0.70231   0.75371   0.74643   0.00000  Uiso   1.00
O789   O     0.92537   0.83567   0.67554   0.00000  Uiso   1.00
O790   O     0.68510   0.82642   0.66620   0.00000  Uiso   1.00
Zn791  Zn    0.93786   0.83951   0.75624   0.00000  Uiso   1.00
Zn792  Zn    0.72881   0.82716   0.74377   0.00000  Uiso   1.00
loop_
_geom_bond_atom_site_label_1
_geom_bond_atom_site_label_2
_geom_bond_distance
_geom_bond_site_symmetry_2
_ccdc_geom_bond_type
C1     O36     1.298   .     A
C1     C3      1.405   .     S
C1     O123    1.278   1_455 S
C2     C10     1.397   .     A
C2     C4      1.482   .     S
C2     C14     1.389   .     A
C3     C225    1.346   1_455 S
C3     H164    1.088   .     S
C4     O38     1.312   .     A
C4     O125    1.303   1_455 S
C5     C6      1.406   .     S
C5     C311    1.346   1_545 S
C5     Cl285   1.783   1_545 S
C6     O39     1.291   .     A
C6     O84     1.285   .     S
C7     O41     1.298   .     A
C7     C9      1.449   .     S
C7     O86     1.301   .     S
C8     C16     1.401   .     A
C8     H28     1.083   .     S
C8     C416    1.390   .     S
C9     C20     1.398   .     A
C9     C19     1.394   .     A
C10    C11     1.397   .     A
C10    H118    1.076   1_455 S
C11    C409    1.403   .     S
C11    H427    1.083   .     S
C12    C14     1.396   .     A
C12    C409    1.429   .     S
C12    C411    1.420   .     S
C13    Cl22    1.764   .     S
C13    C407    1.403   1_554 S
C13    C408    1.429   1_554 S
C14    C18     1.388   .     A
C15    C19     1.381   .     A
C15    C408    1.420   1_554 S
C15    C412    1.427   1_554 S
C16    C17     1.394   .     A
C16    C411    1.427   .     S
C17    C18     1.379   .     A
C17    H27     1.075   .     S
C18    Cl23    1.759   .     S
C19    H29     1.075   .     S
C20    C404    1.390   1_554 S
C20    H68     1.083   .     S
Cl21   C137    1.783   .     S
H24    C108    1.083   1_455 S
H25    N33     1.029   .     S
H26    N34     1.016   .     S
H30    C54     1.076   .     S
H31    C407    1.083   1_554 S
H32    C267    1.088   1_545 S
N33    N34     1.278   .     D
N33    Zn44    2.031   .     S
N34    Zn43    2.031   .     S
O35    Zn43    1.965   .     S
O35    C45     1.278   .     S
O36    Zn44    1.983   .     S
O37    Zn43    1.953   .     S
O37    C48     1.303   .     S
O38    Zn44    1.951   .     S
O39    Zn43    1.983   .     S
O40    Zn44    1.965   .     S
O40    C94     1.285   1_455 S
O41    Zn43    1.951   .     S
O42    Zn44    1.953   .     S
O42    C95     1.301   1_455 S
C45    O80     1.298   .     A
C45    C47     1.405   .     S
C46    C54     1.397   .     A
C46    C48     1.482   .     S
C46    C58     1.389   .     A
C47    C137    1.346   .     S
C47    H208    1.088   .     S
C48    O82     1.312   .     A
C49    C50     1.406   .     S
C49    C355    1.346   1_545 S
C49    Cl329   1.783   1_545 S
C50    O83     1.291   .     A
C50    O128    1.285   .     S
C51    O85     1.298   .     A
C51    C53     1.449   .     S
C51    O130    1.301   .     S
C52    C60     1.401   .     A
C52    H72     1.083   .     S
C52    C460    1.390   .     S
C53    C64     1.398   .     A
C53    C63     1.394   .     A
C54    C55     1.397   .     A
C55    C453    1.403   .     S
C55    H471    1.083   .     S
C56    C58     1.396   .     A
C56    C453    1.429   .     S
C56    C455    1.420   .     S
C57    Cl66    1.764   .     S
C57    C451    1.403   1_554 S
C57    C452    1.429   1_554 S
C58    C62     1.388   .     A
C59    C63     1.381   .     A
C59    C452    1.420   1_554 S
C59    C456    1.427   1_554 S
C60    C61     1.394   .     A
C60    C455    1.427   .     S
C61    C62     1.379   .     A
C61    H71     1.075   .     S
C62    Cl67    1.759   .     S
C63    H73     1.075   .     S
C64    C448    1.390   1_554 S
C64    H112    1.083   .     S
Cl65   C181    1.783   .     S
H69    N77     1.029   .     S
H70    N78     1.016   .     S
H74    C98     1.076   .     S
H75    C451    1.083   1_554 S
H76    C311    1.088   1_545 S
N77    N78     1.278   .     D
N77    Zn88    2.031   .     S
N78    Zn87    2.031   .     S
O79    Zn87    1.965   .     S
O79    C89     1.278   .     S
O80    Zn88    1.983   .     S
O81    Zn87    1.953   .     S
O81    C92     1.303   .     S
O82    Zn88    1.951   .     S
O83    Zn87    1.983   .     S
O84    Zn88    1.965   .     S
O85    Zn87    1.951   .     S
O86    Zn88    1.953   .     S
C89    O124    1.298   .     A
C89    C91     1.405   .     S
C90    C98     1.397   .     A
C90    C92     1.482   .     S
C90    C102    1.389   .     A
C91    C181    1.346   .     S
C91    H252    1.088   .     S
C92    O126    1.312   .     A
C93    C94     1.406   .     S
C93    C267    1.346   1_645 S
C93    Cl373   1.783   1_545 S
C94    O127    1.291   .     A
C94    O40     1.285   1_655 S
C95    O129    1.298   .     A
C95    C97     1.449   .     S
C95    O42     1.301   1_655 S
C96    C104    1.401   .     A
C96    H116    1.083   .     S
C96    C504    1.390   .     S
C97    C108    1.398   .     A
C97    C107    1.394   .     A
C98    C99     1.397   .     A
C99    C497    1.403   .     S
C99    H515    1.083   .     S
C100   C102    1.396   .     A
C100   C497    1.429   .     S
C100   C499    1.420   .     S
C101   Cl110   1.764   .     S
C101   C495    1.403   1_554 S
C101   C496    1.429   1_554 S
C102   C106    1.388   .     A
C103   C107    1.381   .     A
C103   C496    1.420   1_554 S
C103   C500    1.427   1_554 S
C104   C105    1.394   .     A
C104   C499    1.427   .     S
C105   C106    1.379   .     A
C105   H115    1.075   .     S
C106   Cl111   1.759   .     S
C107   H117    1.075   .     S
C108   C492    1.390   1_554 S
C108   H24     1.083   1_655 S
Cl109  C225    1.783   .     S
H113   N121    1.029   .     S
H114   N122    1.016   .     S
H118   C10     1.076   1_655 S
H119   C495    1.083   1_554 S
H120   C355    1.088   1_545 S
N121   N122    1.278   .     D
N121   Zn132   2.031   .     S
N122   Zn131   2.031   .     S
O123   Zn131   1.965   .     S
O123   C1      1.278   1_655 S
O124   Zn132   1.983   .     S
O125   Zn131   1.953   .     S
O125   C4      1.303   1_655 S
O126   Zn132   1.951   .     S
O127   Zn131   1.983   .     S
O128   Zn132   1.965   .     S
O129   Zn131   1.951   .     S
O130   Zn132   1.953   .     S
C133   O168    1.298   .     A
C133   C135    1.405   .     S
C133   O255    1.278   1_455 S
C134   C142    1.397   .     A
C134   C136    1.482   .     S
C134   C146    1.389   .     A
C135   C357    1.346   1_455 S
C135   H296    1.088   .     S
C136   O170    1.312   .     A
C136   O257    1.303   1_455 S
C137   C138    1.406   .     S
C138   O171    1.291   .     A
C138   O216    1.285   .     S
C139   O173    1.298   .     A
C139   C141    1.449   .     S
C139   O218    1.301   .     S
C140   C148    1.401   .     A
C140   H160    1.083   .     S
C140   C548    1.390   .     S
C141   C152    1.398   .     A
C141   C151    1.394   .     A
C142   C143    1.397   .     A
C142   H250    1.076   1_455 S
C143   C541    1.403   .     S
C143   H559    1.083   .     S
C144   C146    1.396   .     A
C144   C541    1.429   .     S
C144   C543    1.420   .     S
C145   Cl154   1.764   .     S
C145   C539    1.403   1_554 S
C145   C540    1.429   1_554 S
C146   C150    1.388   .     A
C147   C151    1.381   .     A
C147   C540    1.420   1_554 S
C147   C544    1.427   1_554 S
C148   C149    1.394   .     A
C148   C543    1.427   .     S
C149   C150    1.379   .     A
C149   H159    1.075   .     S
C150   Cl155   1.759   .     S
C151   H161    1.075   .     S
C152   C536    1.390   1_554 S
C152   H200    1.083   .     S
Cl153  C269    1.783   .     S
H156   C240    1.083   1_455 S
H157   N165    1.029   .     S
H158   N166    1.016   .     S
H162   C186    1.076   .     S
H163   C539    1.083   1_554 S
N165   N166    1.278   .     D
N165   Zn176   2.031   .     S
N166   Zn175   2.031   .     S
O167   Zn175   1.965   .     S
O167   C177    1.278   .     S
O168   Zn176   1.983   .     S
O169   Zn175   1.953   .     S
O169   C180    1.303   .     S
O170   Zn176   1.951   .     S
O171   Zn175   1.983   .     S
O172   Zn176   1.965   .     S
O172   C226    1.285   1_455 S
O173   Zn175   1.951   .     S
O174   Zn176   1.953   .     S
O174   C227    1.301   1_455 S
C177   O212    1.298   .     A
C177   C179    1.405   .     S
C178   C186    1.397   .     A
C178   C180    1.482   .     S
C178   C190    1.389   .     A
C179   C269    1.346   .     S
C179   H340    1.088   .     S
C180   O214    1.312   .     A
C181   C182    1.406   .     S
C182   O215    1.291   .     A
C182   O260    1.285   .     S
C183   O217    1.298   .     A
C183   C185    1.449   .     S
C183   O262    1.301   .     S
C184   C192    1.401   .     A
C184   H204    1.083   .     S
C184   C592    1.390   .     S
C185   C196    1.398   .     A
C185   C195    1.394   .     A
C186   C187    1.397   .     A
C187   C585    1.403   .     S
C187   H603    1.083   .     S
C188   C190    1.396   .     A
C188   C585    1.429   .     S
C188   C587    1.420   .     S
C189   Cl198   1.764   .     S
C189   C583    1.403   1_554 S
C189   C584    1.429   1_554 S
C190   C194    1.388   .     A
C191   C195    1.381   .     A
C191   C584    1.420   1_554 S
C191   C588    1.427   1_554 S
C192   C193    1.394   .     A
C192   C587    1.427   .     S
C193   C194    1.379   .     A
C193   H203    1.075   .     S
C194   Cl199   1.759   .     S
C195   H205    1.075   .     S
C196   C580    1.390   1_554 S
C196   H244    1.083   .     S
Cl197  C313    1.783   .     S
H201   N209    1.029   .     S
H202   N210    1.016   .     S
H206   C230    1.076   .     S
H207   C583    1.083   1_554 S
N209   N210    1.278   .     D
N209   Zn220   2.031   .     S
N210   Zn219   2.031   .     S
O211   Zn219   1.965   .     S
O211   C221    1.278   .     S
O212   Zn220   1.983   .     S
O213   Zn219   1.953   .     S
O213   C224    1.303   .     S
O214   Zn220   1.951   .     S
O215   Zn219   1.983   .     S
O216   Zn220   1.965   .     S
O217   Zn219   1.951   .     S
O218   Zn220   1.953   .     S
C221   O256    1.298   .     A
C221   C223    1.405   .     S
C222   C230    1.397   .     A
C222   C224    1.482   .     S
C222   C234    1.389   .     A
C223   C313    1.346   .     S
C223   H384    1.088   .     S
C224   O258    1.312   .     A
C225   C226    1.406   .     S
C225   C3      1.346   1_655 S
C226   O259    1.291   .     A
C226   O172    1.285   1_655 S
C227   O261    1.298   .     A
C227   C229    1.449   .     S
C227   O174    1.301   1_655 S
C228   C236    1.401   .     A
C228   H248    1.083   .     S
C228   C636    1.390   .     S
C229   C240    1.398   .     A
C229   C239    1.394   .     A
C230   C231    1.397   .     A
C231   C629    1.403   .     S
C231   H647    1.083   .     S
C232   C234    1.396   .     A
C232   C629    1.429   .     S
C232   C631    1.420   .     S
C233   Cl242   1.764   .     S
C233   C627    1.403   1_554 S
C233   C628    1.429   1_554 S
C234   C238    1.388   .     A
C235   C239    1.381   .     A
C235   C628    1.420   1_554 S
C235   C632    1.427   1_554 S
C236   C237    1.394   .     A
C236   C631    1.427   .     S
C237   C238    1.379   .     A
C237   H247    1.075   .     S
C238   Cl243   1.759   .     S
C239   H249    1.075   .     S
C240   C624    1.390   1_554 S
C240   H156    1.083   1_655 S
Cl241  C357    1.783   .     S
H245   N253    1.029   .     S
H246   N254    1.016   .     S
H250   C142    1.076   1_655 S
H251   C627    1.083   1_554 S
N253   N254    1.278   .     D
N253   Zn264   2.031   .     S
N254   Zn263   2.031   .     S
O255   Zn263   1.965   .     S
O255   C133    1.278   1_655 S
O256   Zn264   1.983   .     S
O257   Zn263   1.953   .     S
O257   C136    1.303   1_655 S
O258   Zn264   1.951   .     S
O259   Zn263   1.983   .     S
O260   Zn264   1.965   .     S
O261   Zn263   1.951   .     S
O262   Zn264   1.953   .     S
C265   O300    1.298   .     A
C265   C267    1.405   .     S
C265   O387    1.278   1_455 S
C266   C274    1.397   .     A
C266   C268    1.482   .     S
C266   C278    1.389   .     A
C267   C93     1.346   1_465 S
C267   H32     1.088   1_565 S
C268   O302    1.312   .     A
C268   O389    1.303   1_455 S
C269   C270    1.406   .     S
C270   O303    1.291   .     A
C270   O348    1.285   .     S
C271   O305    1.298   .     A
C271   C273    1.449   .     S
C271   O350    1.301   .     S
C272   C280    1.401   .     A
C272   H292    1.083   .     S
C272   C680    1.390   .     S
C273   C284    1.398   .     A
C273   C283    1.394   .     A
C274   C275    1.397   .     A
C274   H382    1.076   1_455 S
C275   C673    1.403   .     S
C275   H691    1.083   .     S
C276   C278    1.396   .     A
C276   C673    1.429   .     S
C276   C675    1.420   .     S
C277   Cl286   1.764   .     S
C277   C671    1.403   1_554 S
C277   C672    1.429   1_554 S
C278   C282    1.388   .     A
C279   C283    1.381   .     A
C279   C672    1.420   1_554 S
C279   C676    1.427   1_554 S
C280   C281    1.394   .     A
C280   C675    1.427   .     S
C281   C282    1.379   .     A
C281   H291    1.075   .     S
C282   Cl287   1.759   .     S
C283   H293    1.075   .     S
C284   C668    1.390   1_554 S
C284   H332    1.083   .     S
Cl285  C5      1.783   1_565 S
H288   C372    1.083   1_455 S
H289   N297    1.029   .     S
H290   N298    1.016   .     S
H294   C318    1.076   .     S
H295   C671    1.083   1_554 S
N297   N298    1.278   .     D
N297   Zn308   2.031   .     S
N298   Zn307   2.031   .     S
O299   Zn307   1.965   .     S
O299   C309    1.278   .     S
O300   Zn308   1.983   .     S
O301   Zn307   1.953   .     S
O301   C312    1.303   .     S
O302   Zn308   1.951   .     S
O303   Zn307   1.983   .     S
O304   Zn308   1.965   .     S
O304   C358    1.285   1_455 S
O305   Zn307   1.951   .     S
O306   Zn308   1.953   .     S
O306   C359    1.301   1_455 S
C309   O344    1.298   .     A
C309   C311    1.405   .     S
C310   C318    1.397   .     A
C310   C312    1.482   .     S
C310   C322    1.389   .     A
C311   C5      1.346   1_565 S
C311   H76     1.088   1_565 S
C312   O346    1.312   .     A
C313   C314    1.406   .     S
C314   O347    1.291   .     A
C314   O392    1.285   .     S
C315   O349    1.298   .     A
C315   C317    1.449   .     S
C315   O394    1.301   .     S
C316   C324    1.401   .     A
C316   H336    1.083   .     S
C316   C724    1.390   .     S
C317   C328    1.398   .     A
C317   C327    1.394   .     A
C318   C319    1.397   .     A
C319   C717    1.403   .     S
C319   H735    1.083   .     S
C320   C322    1.396   .     A
C320   C717    1.429   .     S
C320   C719    1.420   .     S
C321   Cl330   1.764   .     S
C321   C715    1.403   1_554 S
C321   C716    1.429   1_554 S
C322   C326    1.388   .     A
C323   C327    1.381   .     A
C323   C716    1.420   1_554 S
C323   C720    1.427   1_554 S
C324   C325    1.394   .     A
C324   C719    1.427   .     S
C325   C326    1.379   .     A
C325   H335    1.075   .     S
C326   Cl331   1.759   .     S
C327   H337    1.075   .     S
C328   C712    1.390   1_554 S
C328   H376    1.083   .     S
Cl329  C49     1.783   1_565 S
H333   N341    1.029   .     S
H334   N342    1.016   .     S
H338   C362    1.076   .     S
H339   C715    1.083   1_554 S
N341   N342    1.278   .     D
N341   Zn352   2.031   .     S
N342   Zn351   2.031   .     S
O343   Zn351   1.965   .     S
O343   C353    1.278   .     S
O344   Zn352   1.983   .     S
O345   Zn351   1.953   .     S
O345   C356    1.303   .     S
O346   Zn352   1.951   .     S
O347   Zn351   1.983   .     S
O348   Zn352   1.965   .     S
O349   Zn351   1.951   .     S
O350   Zn352   1.953   .     S
C353   O388    1.298   .     A
C353   C355    1.405   .     S
C354   C362    1.397   .     A
C354   C356    1.482   .     S
C354   C366    1.389   .     A
C355   C49     1.346   1_565 S
C355   H120    1.088   1_565 S
C356   O390    1.312   .     A
C357   C358    1.406   .     S
C357   C135    1.346   1_655 S
C358   O391    1.291   .     A
C358   O304    1.285   1_655 S
C359   O393    1.298   .     A
C359   C361    1.449   .     S
C359   O306    1.301   1_655 S
C360   C368    1.401   .     A
C360   H380    1.083   .     S
C360   C768    1.390   .     S
C361   C372    1.398   .     A
C361   C371    1.394   .     A
C362   C363    1.397   .     A
C363   C761    1.403   .     S
C363   H779    1.083   .     S
C364   C366    1.396   .     A
C364   C761    1.429   .     S
C364   C763    1.420   .     S
C365   Cl374   1.764   .     S
C365   C759    1.403   1_554 S
C365   C760    1.429   1_554 S
C366   C370    1.388   .     A
C367   C371    1.381   .     A
C367   C760    1.420   1_554 S
C367   C764    1.427   1_554 S
C368   C369    1.394   .     A
C368   C763    1.427   .     S
C369   C370    1.379   .     A
C369   H379    1.075   .     S
C370   Cl375   1.759   .     S
C371   H381    1.075   .     S
C372   C756    1.390   1_554 S
C372   H288    1.083   1_655 S
Cl373  C93     1.783   1_565 S
H377   N385    1.029   .     S
H378   N386    1.016   .     S
H382   C274    1.076   1_655 S
H383   C759    1.083   1_554 S
N385   N386    1.278   .     D
N385   Zn396   2.031   .     S
N386   Zn395   2.031   .     S
O387   Zn395   1.965   .     S
O387   C265    1.278   1_655 S
O388   Zn396   1.983   .     S
O389   Zn395   1.953   .     S
O389   C268    1.303   1_655 S
O390   Zn396   1.951   .     S
O391   Zn395   1.983   .     S
O392   Zn396   1.965   .     S
O393   Zn395   1.951   .     S
O394   Zn396   1.953   .     S
C397   O432    1.298   .     A
C397   C399    1.405   .     S
C397   O519    1.278   1_455 S
C398   C406    1.397   .     A
C398   C400    1.482   .     S
C398   C410    1.389   .     A
C399   C621    1.346   1_455 S
C399   H560    1.088   .     S
C400   O434    1.312   .     A
C400   O521    1.303   1_455 S
C401   C402    1.406   .     S
C401   C707    1.346   1_545 S
C401   Cl681   1.783   1_545 S
C402   O435    1.291   .     A
C402   O480    1.285   .     S
C403   O437    1.298   .     A
C403   C405    1.449   .     S
C403   O482    1.301   .     S
C404   C412    1.401   .     A
C404   H424    1.083   .     S
C404   C20     1.390   1_556 S
C405   C416    1.398   .     A
C405   C415    1.394   .     A
C406   C407    1.397   .     A
C406   H514    1.076   1_455 S
C407   C13     1.403   1_556 S
C407   H31     1.083   1_556 S
C408   C410    1.396   .     A
C408   C13     1.429   1_556 S
C408   C15     1.420   1_556 S
C409   Cl418   1.764   .     S
C410   C414    1.388   .     A
C411   C415    1.381   .     A
C412   C413    1.394   .     A
C412   C15     1.427   1_556 S
C413   C414    1.379   .     A
C413   H423    1.075   .     S
C414   Cl419   1.759   .     S
C415   H425    1.075   .     S
C416   H464    1.083   .     S
Cl417  C533    1.783   .     S
H420   C504    1.083   1_455 S
H421   N429    1.029   .     S
H422   N430    1.016   .     S
H426   C450    1.076   .     S
H428   C663    1.088   1_545 S
N429   N430    1.278   .     D
N429   Zn440   2.031   .     S
N430   Zn439   2.031   .     S
O431   Zn439   1.965   .     S
O431   C441    1.278   .     S
O432   Zn440   1.983   .     S
O433   Zn439   1.953   .     S
O433   C444    1.303   .     S
O434   Zn440   1.951   .     S
O435   Zn439   1.983   .     S
O436   Zn440   1.965   .     S
O436   C490    1.285   1_455 S
O437   Zn439   1.951   .     S
O438   Zn440   1.953   .     S
O438   C491    1.301   1_455 S
C441   O476    1.298   .     A
C441   C443    1.405   .     S
C442   C450    1.397   .     A
C442   C444    1.482   .     S
C442   C454    1.389   .     A
C443   C533    1.346   .     S
C443   H604    1.088   .     S
C444   O478    1.312   .     A
C445   C446    1.406   .     S
C445   C751    1.346   1_545 S
C445   Cl725   1.783   1_545 S
C446   O479    1.291   .     A
C446   O524    1.285   .     S
C447   O481    1.298   .     A
C447   C449    1.449   .     S
C447   O526    1.301   .     S
C448   C456    1.401   .     A
C448   H468    1.083   .     S
C448   C64     1.390   1_556 S
C449   C460    1.398   .     A
C449   C459    1.394   .     A
C450   C451    1.397   .     A
C451   C57     1.403   1_556 S
C451   H75     1.083   1_556 S
C452   C454    1.396   .     A
C452   C57     1.429   1_556 S
C452   C59     1.420   1_556 S
C453   Cl462   1.764   .     S
C454   C458    1.388   .     A
C455   C459    1.381   .     A
C456   C457    1.394   .     A
C456   C59     1.427   1_556 S
C457   C458    1.379   .     A
C457   H467    1.075   .     S
C458   Cl463   1.759   .     S
C459   H469    1.075   .     S
C460   H508    1.083   .     S
Cl461  C577    1.783   .     S
H465   N473    1.029   .     S
H466   N474    1.016   .     S
H470   C494    1.076   .     S
H472   C707    1.088   1_545 S
N473   N474    1.278   .     D
N473   Zn484   2.031   .     S
N474   Zn483   2.031   .     S
O475   Zn483   1.965   .     S
O475   C485    1.278   .     S
O476   Zn484   1.983   .     S
O477   Zn483   1.953   .     S
O477   C488    1.303   .     S
O478   Zn484   1.951   .     S
O479   Zn483   1.983   .     S
O480   Zn484   1.965   .     S
O481   Zn483   1.951   .     S
O482   Zn484   1.953   .     S
C485   O520    1.298   .     A
C485   C487    1.405   .     S
C486   C494    1.397   .     A
C486   C488    1.482   .     S
C486   C498    1.389   .     A
C487   C577    1.346   .     S
C487   H648    1.088   .     S
C488   O522    1.312   .     A
C489   C490    1.406   .     S
C489   C663    1.346   1_645 S
C489   Cl769   1.783   1_545 S
C490   O523    1.291   .     A
C490   O436    1.285   1_655 S
C491   O525    1.298   .     A
C491   C493    1.449   .     S
C491   O438    1.301   1_655 S
C492   C500    1.401   .     A
C492   H512    1.083   .     S
C492   C108    1.390   1_556 S
C493   C504    1.398   .     A
C493   C503    1.394   .     A
C494   C495    1.397   .     A
C495   C101    1.403   1_556 S
C495   H119    1.083   1_556 S
C496   C498    1.396   .     A
C496   C101    1.429   1_556 S
C496   C103    1.420   1_556 S
C497   Cl506   1.764   .     S
C498   C502    1.388   .     A
C499   C503    1.381   .     A
C500   C501    1.394   .     A
C500   C103    1.427   1_556 S
C501   C502    1.379   .     A
C501   H511    1.075   .     S
C502   Cl507   1.759   .     S
C503   H513    1.075   .     S
C504   H420    1.083   1_655 S
Cl505  C621    1.783   .     S
H509   N517    1.029   .     S
H510   N518    1.016   .     S
H514   C406    1.076   1_655 S
H516   C751    1.088   1_545 S
N517   N518    1.278   .     D
N517   Zn528   2.031   .     S
N518   Zn527   2.031   .     S
O519   Zn527   1.965   .     S
O519   C397    1.278   1_655 S
O520   Zn528   1.983   .     S
O521   Zn527   1.953   .     S
O521   C400    1.303   1_655 S
O522   Zn528   1.951   .     S
O523   Zn527   1.983   .     S
O524   Zn528   1.965   .     S
O525   Zn527   1.951   .     S
O526   Zn528   1.953   .     S
C529   O564    1.298   .     A
C529   C531    1.405   .     S
C529   O651    1.278   1_455 S
C530   C538    1.397   .     A
C530   C532    1.482   .     S
C530   C542    1.389   .     A
C531   C753    1.346   1_455 S
C531   H692    1.088   .     S
C532   O566    1.312   .     A
C532   O653    1.303   1_455 S
C533   C534    1.406   .     S
C534   O567    1.291   .     A
C534   O612    1.285   .     S
C535   O569    1.298   .     A
C535   C537    1.449   .     S
C535   O614    1.301   .     S
C536   C544    1.401   .     A
C536   H556    1.083   .     S
C536   C152    1.390   1_556 S
C537   C548    1.398   .     A
C537   C547    1.394   .     A
C538   C539    1.397   .     A
C538   H646    1.076   1_455 S
C539   C145    1.403   1_556 S
C539   H163    1.083   1_556 S
C540   C542    1.396   .     A
C540   C145    1.429   1_556 S
C540   C147    1.420   1_556 S
C541   Cl550   1.764   .     S
C542   C546    1.388   .     A
C543   C547    1.381   .     A
C544   C545    1.394   .     A
C544   C147    1.427   1_556 S
C545   C546    1.379   .     A
C545   H555    1.075   .     S
C546   Cl551   1.759   .     S
C547   H557    1.075   .     S
C548   H596    1.083   .     S
Cl549  C665    1.783   .     S
H552   C636    1.083   1_455 S
H553   N561    1.029   .     S
H554   N562    1.016   .     S
H558   C582    1.076   .     S
N561   N562    1.278   .     D
N561   Zn572   2.031   .     S
N562   Zn571   2.031   .     S
O563   Zn571   1.965   .     S
O563   C573    1.278   .     S
O564   Zn572   1.983   .     S
O565   Zn571   1.953   .     S
O565   C576    1.303   .     S
O566   Zn572   1.951   .     S
O567   Zn571   1.983   .     S
O568   Zn572   1.965   .     S
O568   C622    1.285   1_455 S
O569   Zn571   1.951   .     S
O570   Zn572   1.953   .     S
O570   C623    1.301   1_455 S
C573   O608    1.298   .     A
C573   C575    1.405   .     S
C574   C582    1.397   .     A
C574   C576    1.482   .     S
C574   C586    1.389   .     A
C575   C665    1.346   .     S
C575   H736    1.088   .     S
C576   O610    1.312   .     A
C577   C578    1.406   .     S
C578   O611    1.291   .     A
C578   O656    1.285   .     S
C579   O613    1.298   .     A
C579   C581    1.449   .     S
C579   O658    1.301   .     S
C580   C588    1.401   .     A
C580   H600    1.083   .     S
C580   C196    1.390   1_556 S
C581   C592    1.398   .     A
C581   C591    1.394   .     A
C582   C583    1.397   .     A
C583   C189    1.403   1_556 S
C583   H207    1.083   1_556 S
C584   C586    1.396   .     A
C584   C189    1.429   1_556 S
C584   C191    1.420   1_556 S
C585   Cl594   1.764   .     S
C586   C590    1.388   .     A
C587   C591    1.381   .     A
C588   C589    1.394   .     A
C588   C191    1.427   1_556 S
C589   C590    1.379   .     A
C589   H599    1.075   .     S
C590   Cl595   1.759   .     S
C591   H601    1.075   .     S
C592   H640    1.083   .     S
Cl593  C709    1.783   .     S
H597   N605    1.029   .     S
H598   N606    1.016   .     S
H602   C626    1.076   .     S
N605   N606    1.278   .     D
N605   Zn616   2.031   .     S
N606   Zn615   2.031   .     S
O607   Zn615   1.965   .     S
O607   C617    1.278   .     S
O608   Zn616   1.983   .     S
O609   Zn615   1.953   .     S
O609   C620    1.303   .     S
O610   Zn616   1.951   .     S
O611   Zn615   1.983   .     S
O612   Zn616   1.965   .     S
O613   Zn615   1.951   .     S
O614   Zn616   1.953   .     S
C617   O652    1.298   .     A
C617   C619    1.405   .     S
C618   C626    1.397   .     A
C618   C620    1.482   .     S
C618   C630    1.389   .     A
C619   C709    1.346   .     S
C619   H780    1.088   .     S
C620   O654    1.312   .     A
C621   C622    1.406   .     S
C621   C399    1.346   1_655 S
C622   O655    1.291   .     A
C622   O568    1.285   1_655 S
C623   O657    1.298   .     A
C623   C625    1.449   .     S
C623   O570    1.301   1_655 S
C624   C632    1.401   .     A
C624   H644    1.083   .     S
C624   C240    1.390   1_556 S
C625   C636    1.398   .     A
C625   C635    1.394   .     A
C626   C627    1.397   .     A
C627   C233    1.403   1_556 S
C627   H251    1.083   1_556 S
C628   C630    1.396   .     A
C628   C233    1.429   1_556 S
C628   C235    1.420   1_556 S
C629   Cl638   1.764   .     S
C630   C634    1.388   .     A
C631   C635    1.381   .     A
C632   C633    1.394   .     A
C632   C235    1.427   1_556 S
C633   C634    1.379   .     A
C633   H643    1.075   .     S
C634   Cl639   1.759   .     S
C635   H645    1.075   .     S
C636   H552    1.083   1_655 S
Cl637  C753    1.783   .     S
H641   N649    1.029   .     S
H642   N650    1.016   .     S
H646   C538    1.076   1_655 S
N649   N650    1.278   .     D
N649   Zn660   2.031   .     S
N650   Zn659   2.031   .     S
O651   Zn659   1.965   .     S
O651   C529    1.278   1_655 S
O652   Zn660   1.983   .     S
O653   Zn659   1.953   .     S
O653   C532    1.303   1_655 S
O654   Zn660   1.951   .     S
O655   Zn659   1.983   .     S
O656   Zn660   1.965   .     S
O657   Zn659   1.951   .     S
O658   Zn660   1.953   .     S
C661   O696    1.298   .     A
C661   C663    1.405   .     S
C661   O783    1.278   1_455 S
C662   C670    1.397   .     A
C662   C664    1.482   .     S
C662   C674    1.389   .     A
C663   C489    1.346   1_465 S
C663   H428    1.088   1_565 S
C664   O698    1.312   .     A
C664   O785    1.303   1_455 S
C665   C666    1.406   .     S
C666   O699    1.291   .     A
C666   O744    1.285   .     S
C667   O701    1.298   .     A
C667   C669    1.449   .     S
C667   O746    1.301   .     S
C668   C676    1.401   .     A
C668   H688    1.083   .     S
C668   C284    1.390   1_556 S
C669   C680    1.398   .     A
C669   C679    1.394   .     A
C670   C671    1.397   .     A
C670   H778    1.076   1_455 S
C671   C277    1.403   1_556 S
C671   H295    1.083   1_556 S
C672   C674    1.396   .     A
C672   C277    1.429   1_556 S
C672   C279    1.420   1_556 S
C673   Cl682   1.764   .     S
C674   C678    1.388   .     A
C675   C679    1.381   .     A
C676   C677    1.394   .     A
C676   C279    1.427   1_556 S
C677   C678    1.379   .     A
C677   H687    1.075   .     S
C678   Cl683   1.759   .     S
C679   H689    1.075   .     S
C680   H728    1.083   .     S
Cl681  C401    1.783   1_565 S
H684   C768    1.083   1_455 S
H685   N693    1.029   .     S
H686   N694    1.016   .     S
H690   C714    1.076   .     S
N693   N694    1.278   .     D
N693   Zn704   2.031   .     S
N694   Zn703   2.031   .     S
O695   Zn703   1.965   .     S
O695   C705    1.278   .     S
O696   Zn704   1.983   .     S
O697   Zn703   1.953   .     S
O697   C708    1.303   .     S
O698   Zn704   1.951   .     S
O699   Zn703   1.983   .     S
O700   Zn704   1.965   .     S
O700   C754    1.285   1_455 S
O701   Zn703   1.951   .     S
O702   Zn704   1.953   .     S
O702   C755    1.301   1_455 S
C705   O740    1.298   .     A
C705   C707    1.405   .     S
C706   C714    1.397   .     A
C706   C708    1.482   .     S
C706   C718    1.389   .     A
C707   C401    1.346   1_565 S
C707   H472    1.088   1_565 S
C708   O742    1.312   .     A
C709   C710    1.406   .     S
C710   O743    1.291   .     A
C710   O788    1.285   .     S
C711   O745    1.298   .     A
C711   C713    1.449   .     S
C711   O790    1.301   .     S
C712   C720    1.401   .     A
C712   H732    1.083   .     S
C712   C328    1.390   1_556 S
C713   C724    1.398   .     A
C713   C723    1.394   .     A
C714   C715    1.397   .     A
C715   C321    1.403   1_556 S
C715   H339    1.083   1_556 S
C716   C718    1.396   .     A
C716   C321    1.429   1_556 S
C716   C323    1.420   1_556 S
C717   Cl726   1.764   .     S
C718   C722    1.388   .     A
C719   C723    1.381   .     A
C720   C721    1.394   .     A
C720   C323    1.427   1_556 S
C721   C722    1.379   .     A
C721   H731    1.075   .     S
C722   Cl727   1.759   .     S
C723   H733    1.075   .     S
C724   H772    1.083   .     S
Cl725  C445    1.783   1_565 S
H729   N737    1.029   .     S
H730   N738    1.016   .     S
H734   C758    1.076   .     S
N737   N738    1.278   .     D
N737   Zn748   2.031   .     S
N738   Zn747   2.031   .     S
O739   Zn747   1.965   .     S
O739   C749    1.278   .     S
O740   Zn748   1.983   .     S
O741   Zn747   1.953   .     S
O741   C752    1.303   .     S
O742   Zn748   1.951   .     S
O743   Zn747   1.983   .     S
O744   Zn748   1.965   .     S
O745   Zn747   1.951   .     S
O746   Zn748   1.953   .     S
C749   O784    1.298   .     A
C749   C751    1.405   .     S
C750   C758    1.397   .     A
C750   C752    1.482   .     S
C750   C762    1.389   .     A
C751   C445    1.346   1_565 S
C751   H516    1.088   1_565 S
C752   O786    1.312   .     A
C753   C754    1.406   .     S
C753   C531    1.346   1_655 S
C754   O787    1.291   .     A
C754   O700    1.285   1_655 S
C755   O789    1.298   .     A
C755   C757    1.449   .     S
C755   O702    1.301   1_655 S
C756   C764    1.401   .     A
C756   H776    1.083   .     S
C756   C372    1.390   1_556 S
C757   C768    1.398   .     A
C757   C767    1.394   .     A
C758   C759    1.397   .     A
C759   C365    1.403   1_556 S
C759   H383    1.083   1_556 S
C760   C762    1.396   .     A
C760   C365    1.429   1_556 S
C760   C367    1.420   1_556 S
C761   Cl770   1.764   .     S
C762   C766    1.388   .     A
C763   C767    1.381   .     A
C764   C765    1.394   .     A
C764   C367    1.427   1_556 S
C765   C766    1.379   .     A
C765   H775    1.075   .     S
C766   Cl771   1.759   .     S
C767   H777    1.075   .     S
C768   H684    1.083   1_655 S
Cl769  C489    1.783   1_565 S
H773   N781    1.029   .     S
H774   N782    1.016   .     S
H778   C670    1.076   1_655 S
N781   N782    1.278   .     D
N781   Zn792   2.031   .     S
N782   Zn791   2.031   .     S
O783   Zn791   1.965   .     S
O783   C661    1.278   1_655 S
O784   Zn792   1.983   .     S
O785   Zn791   1.953   .     S
O785   C664    1.303   1_655 S
O786   Zn792   1.951   .     S
O787   Zn791   1.983   .     S
O788   Zn792   1.965   .     S
O789   Zn791   1.951   .     S
O790   Zn792   1.953   .     S
