data_str_m3_o10_o18_pcu_sym.131
_audit_creation_date              2020-01-03
_audit_creation_method            'Materials Studio'
_symmetry_space_group_name_H-M    'P1'
_symmetry_Int_Tables_number       1
_symmetry_cell_setting            triclinic
loop_
_symmetry_equiv_pos_as_xyz
  x,y,z
_cell_length_a                    23.7912
_cell_length_b                    25.7402
_cell_length_c                    27.3386
_cell_angle_alpha                 95.4670
_cell_angle_beta                  92.6414
_cell_angle_gamma                 93.4056
loop_
_atom_site_label
_atom_site_type_symbol
_atom_site_fract_x
_atom_site_fract_y
_atom_site_fract_z
_atom_site_U_iso_or_equiv
_atom_site_adp_type
_atom_site_occupancy
C1     C     0.01446   0.26456   0.24878   0.00000  Uiso   1.00
C2     C     0.31252   0.16242   0.15884   0.00000  Uiso   1.00
C3     C     0.03054   0.17362   0.39430   0.00000  Uiso   1.00
C4     C     0.30134   0.15383   0.10594   0.00000  Uiso   1.00
C5     C     0.01449   0.21256   0.47576   0.00000  Uiso   1.00
C6     C     0.30932   0.10094   0.02924   0.00000  Uiso   1.00
C7     C     0.33019   0.20196   0.42636   0.00000  Uiso   1.00
C8     C     0.33061   0.11820   0.07667   0.00000  Uiso   1.00
C9     C     0.07879   0.15234   0.41224   0.00000  Uiso   1.00
C10    C     0.25310   0.17418   0.08700   0.00000  Uiso   1.00
C11    C     0.09821   0.16326   0.46131   0.00000  Uiso   1.00
C12    C     0.31886   0.06875   0.25141   0.00000  Uiso   1.00
C13    C     0.22752   0.15331   0.04183   0.00000  Uiso   1.00
C14    C     0.06594   0.19516   0.49296   0.00000  Uiso   1.00
C15    C     0.25728   0.11718   0.01212   0.00000  Uiso   1.00
C16    C     0.15069   0.14645   0.47859   0.00000  Uiso   1.00
C17    C     0.17278   0.16629   0.02623   0.00000  Uiso   1.00
C18    C     0.02142   0.32296   0.15190   0.00000  Uiso   1.00
C19    C     0.30987   0.00744   0.34778   0.00000  Uiso   1.00
C20    C     0.13088   0.09855   0.16208   0.00000  Uiso   1.00
C21    C     0.18925   0.23090   0.33946   0.00000  Uiso   1.00
C22    C     0.13866   0.19698   0.05726   0.00000  Uiso   1.00
C23    C     0.18185   0.11067   0.44978   0.00000  Uiso   1.00
C24    C     0.08598   0.21047   0.04096   0.00000  Uiso   1.00
C25    C     0.23414   0.09650   0.46637   0.00000  Uiso   1.00
C26    C     0.01839   0.31731   0.23937   0.00000  Uiso   1.00
C27    C     0.31473   0.01591   0.26075   0.00000  Uiso   1.00
C28    C     0.02071   0.17039   0.34117   0.00000  Uiso   1.00
H29    H     0.06136   0.23413   0.06582   0.00000  Uiso   1.00
H30    H     0.16636   0.09116   0.41477   0.00000  Uiso   1.00
H31    H     0.09015   0.31511   0.19921   0.00000  Uiso   1.00
H32    H     0.04949   0.00170   0.12310   0.00000  Uiso   1.00
H33    H     0.31732   0.01345   0.15142   0.00000  Uiso   1.00
H34    H     0.00776   0.28094   0.14298   0.00000  Uiso   1.00
H35    H     0.24235   0.01845   0.30026   0.00000  Uiso   1.00
H36    H     0.28106   0.32775   0.37565   0.00000  Uiso   1.00
H37    H     0.32405   0.04911   0.35831   0.00000  Uiso   1.00
H38    H     0.01356   0.31641   0.34782   0.00000  Uiso   1.00
H39    H     0.20465   0.10722   0.20316   0.00000  Uiso   1.00
H40    H     0.25627   0.06861   0.44343   0.00000  Uiso   1.00
H41    H     0.14884   0.06601   0.13945   0.00000  Uiso   1.00
H42    H     0.13229   0.13365   0.14144   0.00000  Uiso   1.00
H43    H     0.08703   0.08604   0.16841   0.00000  Uiso   1.00
H44    H     0.17271   0.25739   0.27162   0.00000  Uiso   1.00
H45    H     0.16677   0.26174   0.36029   0.00000  Uiso   1.00
H46    H     0.23471   0.24327   0.34088   0.00000  Uiso   1.00
H47    H     0.18297   0.19398   0.35708   0.00000  Uiso   1.00
H48    H     0.23497   0.20457   0.10984   0.00000  Uiso   1.00
H49    H     0.10268   0.13045   0.38596   0.00000  Uiso   1.00
H50    H     0.03491   0.10210   0.09099   0.00000  Uiso   1.00
H51    H     0.29218   0.21817   0.41287   0.00000  Uiso   1.00
H52    H     0.32250   0.23613   0.00003   0.00000  Uiso   1.00
H53    H     0.33211   0.07311   0.00686   0.00000  Uiso   1.00
H54    H     0.15063   0.21050   0.09496   0.00000  Uiso   1.00
N55    N     0.14695   0.15216   0.23740   0.00000  Uiso   1.00
N56    N     0.18638   0.18117   0.26261   0.00000  Uiso   1.00
N57    N     0.05143   0.33115   0.19960   0.00000  Uiso   1.00
N58    N     0.28060   0.00158   0.29975   0.00000  Uiso   1.00
N59    N     0.16302   0.10933   0.20823   0.00000  Uiso   1.00
N60    N     0.16705   0.22387   0.28915   0.00000  Uiso   1.00
O61    O     0.29719   0.24631   0.25310   0.00000  Uiso   1.00
O62    O     0.03614   0.08702   0.24691   0.00000  Uiso   1.00
O63    O     0.05822   0.23702   0.24502   0.00000  Uiso   1.00
O64    O     0.27512   0.09632   0.25499   0.00000  Uiso   1.00
O65    O     0.30328   0.17397   0.32247   0.00000  Uiso   1.00
O66    O     0.03005   0.15937   0.17753   0.00000  Uiso   1.00
O67    O     0.06431   0.16467   0.31439   0.00000  Uiso   1.00
O68    O     0.26902   0.16866   0.18561   0.00000  Uiso   1.00
Zn69   Zn    0.27033   0.17287   0.25540   0.00000  Uiso   1.00
Zn70   Zn    0.06300   0.16046   0.24461   0.00000  Uiso   1.00
C71    C     0.34779   0.26456   0.24878   0.00000  Uiso   1.00
C72    C     0.64585   0.16242   0.15884   0.00000  Uiso   1.00
C73    C     0.36387   0.17362   0.39430   0.00000  Uiso   1.00
C74    C     0.63467   0.15383   0.10594   0.00000  Uiso   1.00
C75    C     0.34782   0.21256   0.47576   0.00000  Uiso   1.00
C76    C     0.64265   0.10094   0.02924   0.00000  Uiso   1.00
C77    C     0.66352   0.20196   0.42636   0.00000  Uiso   1.00
C78    C     0.66394   0.11820   0.07667   0.00000  Uiso   1.00
C79    C     0.41213   0.15234   0.41224   0.00000  Uiso   1.00
C80    C     0.58643   0.17418   0.08700   0.00000  Uiso   1.00
C81    C     0.43155   0.16326   0.46131   0.00000  Uiso   1.00
C82    C     0.65219   0.06875   0.25141   0.00000  Uiso   1.00
C83    C     0.56086   0.15331   0.04183   0.00000  Uiso   1.00
C84    C     0.39927   0.19516   0.49296   0.00000  Uiso   1.00
C85    C     0.59062   0.11718   0.01212   0.00000  Uiso   1.00
C86    C     0.48402   0.14645   0.47859   0.00000  Uiso   1.00
C87    C     0.50611   0.16629   0.02623   0.00000  Uiso   1.00
C88    C     0.35475   0.32296   0.15190   0.00000  Uiso   1.00
C89    C     0.64320   0.00744   0.34778   0.00000  Uiso   1.00
C90    C     0.46421   0.09855   0.16208   0.00000  Uiso   1.00
C91    C     0.52258   0.23090   0.33946   0.00000  Uiso   1.00
C92    C     0.47199   0.19698   0.05726   0.00000  Uiso   1.00
C93    C     0.51519   0.11067   0.44978   0.00000  Uiso   1.00
C94    C     0.41932   0.21047   0.04096   0.00000  Uiso   1.00
C95    C     0.56747   0.09650   0.46637   0.00000  Uiso   1.00
C96    C     0.35172   0.31731   0.23937   0.00000  Uiso   1.00
C97    C     0.64807   0.01591   0.26075   0.00000  Uiso   1.00
C98    C     0.35404   0.17039   0.34117   0.00000  Uiso   1.00
H99    H     0.39470   0.23413   0.06582   0.00000  Uiso   1.00
H100   H     0.49969   0.09116   0.41477   0.00000  Uiso   1.00
H101   H     0.42349   0.31511   0.19921   0.00000  Uiso   1.00
H102   H     0.38282   0.00170   0.12310   0.00000  Uiso   1.00
H103   H     0.65066   0.01345   0.15142   0.00000  Uiso   1.00
H104   H     0.34109   0.28094   0.14298   0.00000  Uiso   1.00
H105   H     0.57568   0.01845   0.30026   0.00000  Uiso   1.00
H106   H     0.61440   0.32775   0.37565   0.00000  Uiso   1.00
H107   H     0.65738   0.04911   0.35831   0.00000  Uiso   1.00
H108   H     0.34689   0.31641   0.34782   0.00000  Uiso   1.00
H109   H     0.53798   0.10722   0.20316   0.00000  Uiso   1.00
H110   H     0.58960   0.06861   0.44343   0.00000  Uiso   1.00
H111   H     0.48217   0.06601   0.13945   0.00000  Uiso   1.00
H112   H     0.46563   0.13365   0.14144   0.00000  Uiso   1.00
H113   H     0.42036   0.08604   0.16841   0.00000  Uiso   1.00
H114   H     0.50604   0.25739   0.27162   0.00000  Uiso   1.00
H115   H     0.50011   0.26174   0.36029   0.00000  Uiso   1.00
H116   H     0.56805   0.24327   0.34088   0.00000  Uiso   1.00
H117   H     0.51631   0.19398   0.35708   0.00000  Uiso   1.00
H118   H     0.56830   0.20457   0.10984   0.00000  Uiso   1.00
H119   H     0.43601   0.13045   0.38596   0.00000  Uiso   1.00
H120   H     0.36824   0.10210   0.09099   0.00000  Uiso   1.00
H121   H     0.62551   0.21817   0.41287   0.00000  Uiso   1.00
H122   H     0.65584   0.23613   0.00003   0.00000  Uiso   1.00
H123   H     0.66545   0.07311   0.00686   0.00000  Uiso   1.00
H124   H     0.48397   0.21050   0.09496   0.00000  Uiso   1.00
N125   N     0.48029   0.15216   0.23740   0.00000  Uiso   1.00
N126   N     0.51971   0.18117   0.26261   0.00000  Uiso   1.00
N127   N     0.38477   0.33115   0.19960   0.00000  Uiso   1.00
N128   N     0.61394   0.00158   0.29975   0.00000  Uiso   1.00
N129   N     0.49636   0.10933   0.20823   0.00000  Uiso   1.00
N130   N     0.50039   0.22387   0.28915   0.00000  Uiso   1.00
O131   O     0.63052   0.24631   0.25310   0.00000  Uiso   1.00
O132   O     0.36948   0.08702   0.24691   0.00000  Uiso   1.00
O133   O     0.39155   0.23702   0.24502   0.00000  Uiso   1.00
O134   O     0.60845   0.09632   0.25499   0.00000  Uiso   1.00
O135   O     0.63662   0.17397   0.32247   0.00000  Uiso   1.00
O136   O     0.36338   0.15937   0.17753   0.00000  Uiso   1.00
O137   O     0.39764   0.16467   0.31439   0.00000  Uiso   1.00
O138   O     0.60236   0.16866   0.18561   0.00000  Uiso   1.00
Zn139  Zn    0.60366   0.17287   0.25540   0.00000  Uiso   1.00
Zn140  Zn    0.39634   0.16046   0.24461   0.00000  Uiso   1.00
C141   C     0.68113   0.26456   0.24878   0.00000  Uiso   1.00
C142   C     0.97918   0.16242   0.15884   0.00000  Uiso   1.00
C143   C     0.69720   0.17362   0.39430   0.00000  Uiso   1.00
C144   C     0.96800   0.15383   0.10594   0.00000  Uiso   1.00
C145   C     0.68116   0.21256   0.47576   0.00000  Uiso   1.00
C146   C     0.97599   0.10094   0.02924   0.00000  Uiso   1.00
C147   C     0.99686   0.20196   0.42636   0.00000  Uiso   1.00
C148   C     0.99728   0.11820   0.07667   0.00000  Uiso   1.00
C149   C     0.74546   0.15234   0.41224   0.00000  Uiso   1.00
C150   C     0.91976   0.17418   0.08700   0.00000  Uiso   1.00
C151   C     0.76488   0.16326   0.46131   0.00000  Uiso   1.00
C152   C     0.98553   0.06875   0.25141   0.00000  Uiso   1.00
C153   C     0.89419   0.15331   0.04183   0.00000  Uiso   1.00
C154   C     0.73260   0.19516   0.49296   0.00000  Uiso   1.00
C155   C     0.92395   0.11718   0.01212   0.00000  Uiso   1.00
C156   C     0.81735   0.14645   0.47859   0.00000  Uiso   1.00
C157   C     0.83945   0.16629   0.02623   0.00000  Uiso   1.00
C158   C     0.68809   0.32296   0.15190   0.00000  Uiso   1.00
C159   C     0.97654   0.00744   0.34778   0.00000  Uiso   1.00
C160   C     0.79755   0.09855   0.16208   0.00000  Uiso   1.00
C161   C     0.85592   0.23090   0.33946   0.00000  Uiso   1.00
C162   C     0.80532   0.19698   0.05726   0.00000  Uiso   1.00
C163   C     0.84852   0.11067   0.44978   0.00000  Uiso   1.00
C164   C     0.75265   0.21047   0.04096   0.00000  Uiso   1.00
C165   C     0.90080   0.09650   0.46637   0.00000  Uiso   1.00
C166   C     0.68506   0.31731   0.23937   0.00000  Uiso   1.00
C167   C     0.98140   0.01591   0.26075   0.00000  Uiso   1.00
C168   C     0.68738   0.17039   0.34117   0.00000  Uiso   1.00
H169   H     0.72803   0.23413   0.06582   0.00000  Uiso   1.00
H170   H     0.83302   0.09116   0.41477   0.00000  Uiso   1.00
H171   H     0.75682   0.31511   0.19921   0.00000  Uiso   1.00
H172   H     0.71616   0.00170   0.12310   0.00000  Uiso   1.00
H173   H     0.98399   0.01345   0.15142   0.00000  Uiso   1.00
H174   H     0.67443   0.28094   0.14298   0.00000  Uiso   1.00
H175   H     0.90902   0.01845   0.30026   0.00000  Uiso   1.00
H176   H     0.94773   0.32775   0.37565   0.00000  Uiso   1.00
H177   H     0.99071   0.04911   0.35831   0.00000  Uiso   1.00
H178   H     0.68023   0.31641   0.34782   0.00000  Uiso   1.00
H179   H     0.87132   0.10722   0.20316   0.00000  Uiso   1.00
H180   H     0.92294   0.06861   0.44343   0.00000  Uiso   1.00
H181   H     0.81550   0.06601   0.13945   0.00000  Uiso   1.00
H182   H     0.79896   0.13365   0.14144   0.00000  Uiso   1.00
H183   H     0.75370   0.08604   0.16841   0.00000  Uiso   1.00
H184   H     0.83938   0.25739   0.27162   0.00000  Uiso   1.00
H185   H     0.83344   0.26174   0.36029   0.00000  Uiso   1.00
H186   H     0.90138   0.24327   0.34088   0.00000  Uiso   1.00
H187   H     0.84964   0.19398   0.35708   0.00000  Uiso   1.00
H188   H     0.90163   0.20457   0.10984   0.00000  Uiso   1.00
H189   H     0.76934   0.13045   0.38596   0.00000  Uiso   1.00
H190   H     0.70158   0.10210   0.09099   0.00000  Uiso   1.00
H191   H     0.95884   0.21817   0.41287   0.00000  Uiso   1.00
H192   H     0.98917   0.23613   0.00003   0.00000  Uiso   1.00
H193   H     0.99878   0.07311   0.00686   0.00000  Uiso   1.00
H194   H     0.81730   0.21050   0.09496   0.00000  Uiso   1.00
N195   N     0.81362   0.15216   0.23740   0.00000  Uiso   1.00
N196   N     0.85305   0.18117   0.26261   0.00000  Uiso   1.00
N197   N     0.71810   0.33115   0.19960   0.00000  Uiso   1.00
N198   N     0.94727   0.00158   0.29975   0.00000  Uiso   1.00
N199   N     0.82969   0.10933   0.20823   0.00000  Uiso   1.00
N200   N     0.83372   0.22387   0.28915   0.00000  Uiso   1.00
O201   O     0.96386   0.24631   0.25310   0.00000  Uiso   1.00
O202   O     0.70281   0.08702   0.24691   0.00000  Uiso   1.00
O203   O     0.72488   0.23702   0.24502   0.00000  Uiso   1.00
O204   O     0.94178   0.09632   0.25499   0.00000  Uiso   1.00
O205   O     0.96995   0.17397   0.32247   0.00000  Uiso   1.00
O206   O     0.69672   0.15937   0.17753   0.00000  Uiso   1.00
O207   O     0.73098   0.16467   0.31439   0.00000  Uiso   1.00
O208   O     0.93569   0.16866   0.18561   0.00000  Uiso   1.00
Zn209  Zn    0.93700   0.17287   0.25540   0.00000  Uiso   1.00
Zn210  Zn    0.72967   0.16046   0.24461   0.00000  Uiso   1.00
C211   C     0.01446   0.59789   0.24878   0.00000  Uiso   1.00
C212   C     0.31252   0.49575   0.15884   0.00000  Uiso   1.00
C213   C     0.03054   0.50695   0.39430   0.00000  Uiso   1.00
C214   C     0.30134   0.48717   0.10594   0.00000  Uiso   1.00
C215   C     0.01449   0.54589   0.47576   0.00000  Uiso   1.00
C216   C     0.30932   0.43427   0.02924   0.00000  Uiso   1.00
C217   C     0.33019   0.53529   0.42636   0.00000  Uiso   1.00
C218   C     0.33061   0.45154   0.07667   0.00000  Uiso   1.00
C219   C     0.07879   0.48568   0.41224   0.00000  Uiso   1.00
C220   C     0.25310   0.50751   0.08700   0.00000  Uiso   1.00
C221   C     0.09821   0.49659   0.46131   0.00000  Uiso   1.00
C222   C     0.31886   0.40209   0.25141   0.00000  Uiso   1.00
C223   C     0.22752   0.48664   0.04183   0.00000  Uiso   1.00
C224   C     0.06594   0.52849   0.49296   0.00000  Uiso   1.00
C225   C     0.25728   0.45051   0.01212   0.00000  Uiso   1.00
C226   C     0.15069   0.47978   0.47859   0.00000  Uiso   1.00
C227   C     0.17278   0.49962   0.02623   0.00000  Uiso   1.00
C228   C     0.02142   0.65630   0.15190   0.00000  Uiso   1.00
C229   C     0.30987   0.34077   0.34778   0.00000  Uiso   1.00
C230   C     0.13088   0.43188   0.16208   0.00000  Uiso   1.00
C231   C     0.18925   0.56423   0.33946   0.00000  Uiso   1.00
C232   C     0.13866   0.53031   0.05726   0.00000  Uiso   1.00
C233   C     0.18185   0.44401   0.44978   0.00000  Uiso   1.00
C234   C     0.08598   0.54381   0.04096   0.00000  Uiso   1.00
C235   C     0.23414   0.42984   0.46637   0.00000  Uiso   1.00
C236   C     0.01839   0.65064   0.23937   0.00000  Uiso   1.00
C237   C     0.31473   0.34924   0.26075   0.00000  Uiso   1.00
C238   C     0.02071   0.50373   0.34117   0.00000  Uiso   1.00
H239   H     0.06136   0.56747   0.06582   0.00000  Uiso   1.00
H240   H     0.16636   0.42449   0.41477   0.00000  Uiso   1.00
H241   H     0.09015   0.64845   0.19921   0.00000  Uiso   1.00
H242   H     0.04949   0.33503   0.12310   0.00000  Uiso   1.00
H243   H     0.31732   0.34679   0.15142   0.00000  Uiso   1.00
H244   H     0.00776   0.61427   0.14298   0.00000  Uiso   1.00
H245   H     0.24235   0.35179   0.30026   0.00000  Uiso   1.00
H246   H     0.28106   0.66108   0.37565   0.00000  Uiso   1.00
H247   H     0.32405   0.38244   0.35831   0.00000  Uiso   1.00
H248   H     0.01356   0.64975   0.34782   0.00000  Uiso   1.00
H249   H     0.20465   0.44056   0.20316   0.00000  Uiso   1.00
H250   H     0.25627   0.40195   0.44343   0.00000  Uiso   1.00
H251   H     0.14884   0.39935   0.13945   0.00000  Uiso   1.00
H252   H     0.13229   0.46699   0.14144   0.00000  Uiso   1.00
H253   H     0.08703   0.41938   0.16841   0.00000  Uiso   1.00
H254   H     0.17271   0.59072   0.27162   0.00000  Uiso   1.00
H255   H     0.16677   0.59507   0.36029   0.00000  Uiso   1.00
H256   H     0.23471   0.57660   0.34088   0.00000  Uiso   1.00
H257   H     0.18297   0.52731   0.35708   0.00000  Uiso   1.00
H258   H     0.23497   0.53790   0.10984   0.00000  Uiso   1.00
H259   H     0.10268   0.46378   0.38596   0.00000  Uiso   1.00
H260   H     0.03491   0.43544   0.09099   0.00000  Uiso   1.00
H261   H     0.29218   0.55150   0.41287   0.00000  Uiso   1.00
H262   H     0.32250   0.56947   0.00003   0.00000  Uiso   1.00
H263   H     0.33211   0.40644   0.00686   0.00000  Uiso   1.00
H264   H     0.15063   0.54384   0.09496   0.00000  Uiso   1.00
N265   N     0.14695   0.48550   0.23740   0.00000  Uiso   1.00
N266   N     0.18638   0.51450   0.26261   0.00000  Uiso   1.00
N267   N     0.05143   0.66448   0.19960   0.00000  Uiso   1.00
N268   N     0.28060   0.33491   0.29975   0.00000  Uiso   1.00
N269   N     0.16302   0.44266   0.20823   0.00000  Uiso   1.00
N270   N     0.16705   0.55720   0.28915   0.00000  Uiso   1.00
O271   O     0.29719   0.57964   0.25310   0.00000  Uiso   1.00
O272   O     0.03614   0.42036   0.24691   0.00000  Uiso   1.00
O273   O     0.05822   0.57035   0.24502   0.00000  Uiso   1.00
O274   O     0.27512   0.42965   0.25499   0.00000  Uiso   1.00
O275   O     0.30328   0.50730   0.32247   0.00000  Uiso   1.00
O276   O     0.03005   0.49270   0.17753   0.00000  Uiso   1.00
O277   O     0.06431   0.49801   0.31439   0.00000  Uiso   1.00
O278   O     0.26902   0.50199   0.18561   0.00000  Uiso   1.00
Zn279  Zn    0.27033   0.50621   0.25540   0.00000  Uiso   1.00
Zn280  Zn    0.06300   0.49379   0.24461   0.00000  Uiso   1.00
C281   C     0.34779   0.59789   0.24878   0.00000  Uiso   1.00
C282   C     0.64585   0.49575   0.15884   0.00000  Uiso   1.00
C283   C     0.36387   0.50695   0.39430   0.00000  Uiso   1.00
C284   C     0.63467   0.48717   0.10594   0.00000  Uiso   1.00
C285   C     0.34782   0.54589   0.47576   0.00000  Uiso   1.00
C286   C     0.64265   0.43427   0.02924   0.00000  Uiso   1.00
C287   C     0.66352   0.53529   0.42636   0.00000  Uiso   1.00
C288   C     0.66394   0.45154   0.07667   0.00000  Uiso   1.00
C289   C     0.41213   0.48568   0.41224   0.00000  Uiso   1.00
C290   C     0.58643   0.50751   0.08700   0.00000  Uiso   1.00
C291   C     0.43155   0.49659   0.46131   0.00000  Uiso   1.00
C292   C     0.65219   0.40209   0.25141   0.00000  Uiso   1.00
C293   C     0.56086   0.48664   0.04183   0.00000  Uiso   1.00
C294   C     0.39927   0.52849   0.49296   0.00000  Uiso   1.00
C295   C     0.59062   0.45051   0.01212   0.00000  Uiso   1.00
C296   C     0.48402   0.47978   0.47859   0.00000  Uiso   1.00
C297   C     0.50611   0.49962   0.02623   0.00000  Uiso   1.00
C298   C     0.35475   0.65630   0.15190   0.00000  Uiso   1.00
C299   C     0.64320   0.34077   0.34778   0.00000  Uiso   1.00
C300   C     0.46421   0.43188   0.16208   0.00000  Uiso   1.00
C301   C     0.52258   0.56423   0.33946   0.00000  Uiso   1.00
C302   C     0.47199   0.53031   0.05726   0.00000  Uiso   1.00
C303   C     0.51519   0.44401   0.44978   0.00000  Uiso   1.00
C304   C     0.41932   0.54381   0.04096   0.00000  Uiso   1.00
C305   C     0.56747   0.42984   0.46637   0.00000  Uiso   1.00
C306   C     0.35172   0.65064   0.23937   0.00000  Uiso   1.00
C307   C     0.64807   0.34924   0.26075   0.00000  Uiso   1.00
C308   C     0.35404   0.50373   0.34117   0.00000  Uiso   1.00
H309   H     0.39470   0.56747   0.06582   0.00000  Uiso   1.00
H310   H     0.49969   0.42449   0.41477   0.00000  Uiso   1.00
H311   H     0.42349   0.64845   0.19921   0.00000  Uiso   1.00
H312   H     0.38282   0.33503   0.12310   0.00000  Uiso   1.00
H313   H     0.65066   0.34679   0.15142   0.00000  Uiso   1.00
H314   H     0.34109   0.61427   0.14298   0.00000  Uiso   1.00
H315   H     0.57568   0.35179   0.30026   0.00000  Uiso   1.00
H316   H     0.61440   0.66108   0.37565   0.00000  Uiso   1.00
H317   H     0.65738   0.38244   0.35831   0.00000  Uiso   1.00
H318   H     0.34689   0.64975   0.34782   0.00000  Uiso   1.00
H319   H     0.53798   0.44056   0.20316   0.00000  Uiso   1.00
H320   H     0.58960   0.40195   0.44343   0.00000  Uiso   1.00
H321   H     0.48217   0.39935   0.13945   0.00000  Uiso   1.00
H322   H     0.46563   0.46699   0.14144   0.00000  Uiso   1.00
H323   H     0.42036   0.41938   0.16841   0.00000  Uiso   1.00
H324   H     0.50604   0.59072   0.27162   0.00000  Uiso   1.00
H325   H     0.50011   0.59507   0.36029   0.00000  Uiso   1.00
H326   H     0.56805   0.57660   0.34088   0.00000  Uiso   1.00
H327   H     0.51631   0.52731   0.35708   0.00000  Uiso   1.00
H328   H     0.56830   0.53790   0.10984   0.00000  Uiso   1.00
H329   H     0.43601   0.46378   0.38596   0.00000  Uiso   1.00
H330   H     0.36824   0.43544   0.09099   0.00000  Uiso   1.00
H331   H     0.62551   0.55150   0.41287   0.00000  Uiso   1.00
H332   H     0.65584   0.56947   0.00003   0.00000  Uiso   1.00
H333   H     0.66545   0.40644   0.00686   0.00000  Uiso   1.00
H334   H     0.48397   0.54384   0.09496   0.00000  Uiso   1.00
N335   N     0.48029   0.48550   0.23740   0.00000  Uiso   1.00
N336   N     0.51971   0.51450   0.26261   0.00000  Uiso   1.00
N337   N     0.38477   0.66448   0.19960   0.00000  Uiso   1.00
N338   N     0.61394   0.33491   0.29975   0.00000  Uiso   1.00
N339   N     0.49636   0.44266   0.20823   0.00000  Uiso   1.00
N340   N     0.50039   0.55720   0.28915   0.00000  Uiso   1.00
O341   O     0.63052   0.57964   0.25310   0.00000  Uiso   1.00
O342   O     0.36948   0.42036   0.24691   0.00000  Uiso   1.00
O343   O     0.39155   0.57035   0.24502   0.00000  Uiso   1.00
O344   O     0.60845   0.42965   0.25499   0.00000  Uiso   1.00
O345   O     0.63662   0.50730   0.32247   0.00000  Uiso   1.00
O346   O     0.36338   0.49270   0.17753   0.00000  Uiso   1.00
O347   O     0.39764   0.49801   0.31439   0.00000  Uiso   1.00
O348   O     0.60236   0.50199   0.18561   0.00000  Uiso   1.00
Zn349  Zn    0.60366   0.50621   0.25540   0.00000  Uiso   1.00
Zn350  Zn    0.39634   0.49379   0.24461   0.00000  Uiso   1.00
C351   C     0.68113   0.59789   0.24878   0.00000  Uiso   1.00
C352   C     0.97918   0.49575   0.15884   0.00000  Uiso   1.00
C353   C     0.69720   0.50695   0.39430   0.00000  Uiso   1.00
C354   C     0.96800   0.48717   0.10594   0.00000  Uiso   1.00
C355   C     0.68116   0.54589   0.47576   0.00000  Uiso   1.00
C356   C     0.97599   0.43427   0.02924   0.00000  Uiso   1.00
C357   C     0.99686   0.53529   0.42636   0.00000  Uiso   1.00
C358   C     0.99728   0.45154   0.07667   0.00000  Uiso   1.00
C359   C     0.74546   0.48568   0.41224   0.00000  Uiso   1.00
C360   C     0.91976   0.50751   0.08700   0.00000  Uiso   1.00
C361   C     0.76488   0.49659   0.46131   0.00000  Uiso   1.00
C362   C     0.98553   0.40209   0.25141   0.00000  Uiso   1.00
C363   C     0.89419   0.48664   0.04183   0.00000  Uiso   1.00
C364   C     0.73260   0.52849   0.49296   0.00000  Uiso   1.00
C365   C     0.92395   0.45051   0.01212   0.00000  Uiso   1.00
C366   C     0.81735   0.47978   0.47859   0.00000  Uiso   1.00
C367   C     0.83945   0.49962   0.02623   0.00000  Uiso   1.00
C368   C     0.68809   0.65630   0.15190   0.00000  Uiso   1.00
C369   C     0.97654   0.34077   0.34778   0.00000  Uiso   1.00
C370   C     0.79755   0.43188   0.16208   0.00000  Uiso   1.00
C371   C     0.85592   0.56423   0.33946   0.00000  Uiso   1.00
C372   C     0.80532   0.53031   0.05726   0.00000  Uiso   1.00
C373   C     0.84852   0.44401   0.44978   0.00000  Uiso   1.00
C374   C     0.75265   0.54381   0.04096   0.00000  Uiso   1.00
C375   C     0.90080   0.42984   0.46637   0.00000  Uiso   1.00
C376   C     0.68506   0.65064   0.23937   0.00000  Uiso   1.00
C377   C     0.98140   0.34924   0.26075   0.00000  Uiso   1.00
C378   C     0.68738   0.50373   0.34117   0.00000  Uiso   1.00
H379   H     0.72803   0.56747   0.06582   0.00000  Uiso   1.00
H380   H     0.83302   0.42449   0.41477   0.00000  Uiso   1.00
H381   H     0.75682   0.64845   0.19921   0.00000  Uiso   1.00
H382   H     0.71616   0.33503   0.12310   0.00000  Uiso   1.00
H383   H     0.98399   0.34679   0.15142   0.00000  Uiso   1.00
H384   H     0.67443   0.61427   0.14298   0.00000  Uiso   1.00
H385   H     0.90902   0.35179   0.30026   0.00000  Uiso   1.00
H386   H     0.94773   0.66108   0.37565   0.00000  Uiso   1.00
H387   H     0.99071   0.38244   0.35831   0.00000  Uiso   1.00
H388   H     0.68023   0.64975   0.34782   0.00000  Uiso   1.00
H389   H     0.87132   0.44056   0.20316   0.00000  Uiso   1.00
H390   H     0.92294   0.40195   0.44343   0.00000  Uiso   1.00
H391   H     0.81550   0.39935   0.13945   0.00000  Uiso   1.00
H392   H     0.79896   0.46699   0.14144   0.00000  Uiso   1.00
H393   H     0.75370   0.41938   0.16841   0.00000  Uiso   1.00
H394   H     0.83938   0.59072   0.27162   0.00000  Uiso   1.00
H395   H     0.83344   0.59507   0.36029   0.00000  Uiso   1.00
H396   H     0.90138   0.57660   0.34088   0.00000  Uiso   1.00
H397   H     0.84964   0.52731   0.35708   0.00000  Uiso   1.00
H398   H     0.90163   0.53790   0.10984   0.00000  Uiso   1.00
H399   H     0.76934   0.46378   0.38596   0.00000  Uiso   1.00
H400   H     0.70158   0.43544   0.09099   0.00000  Uiso   1.00
H401   H     0.95884   0.55150   0.41287   0.00000  Uiso   1.00
H402   H     0.98917   0.56947   0.00003   0.00000  Uiso   1.00
H403   H     0.99878   0.40644   0.00686   0.00000  Uiso   1.00
H404   H     0.81730   0.54384   0.09496   0.00000  Uiso   1.00
N405   N     0.81362   0.48550   0.23740   0.00000  Uiso   1.00
N406   N     0.85305   0.51450   0.26261   0.00000  Uiso   1.00
N407   N     0.71810   0.66448   0.19960   0.00000  Uiso   1.00
N408   N     0.94727   0.33491   0.29975   0.00000  Uiso   1.00
N409   N     0.82969   0.44266   0.20823   0.00000  Uiso   1.00
N410   N     0.83372   0.55720   0.28915   0.00000  Uiso   1.00
O411   O     0.96386   0.57964   0.25310   0.00000  Uiso   1.00
O412   O     0.70281   0.42036   0.24691   0.00000  Uiso   1.00
O413   O     0.72488   0.57035   0.24502   0.00000  Uiso   1.00
O414   O     0.94178   0.42965   0.25499   0.00000  Uiso   1.00
O415   O     0.96995   0.50730   0.32247   0.00000  Uiso   1.00
O416   O     0.69672   0.49270   0.17753   0.00000  Uiso   1.00
O417   O     0.73098   0.49801   0.31439   0.00000  Uiso   1.00
O418   O     0.93569   0.50199   0.18561   0.00000  Uiso   1.00
Zn419  Zn    0.93700   0.50621   0.25540   0.00000  Uiso   1.00
Zn420  Zn    0.72967   0.49379   0.24461   0.00000  Uiso   1.00
C421   C     0.01446   0.93123   0.24878   0.00000  Uiso   1.00
C422   C     0.31252   0.82908   0.15884   0.00000  Uiso   1.00
C423   C     0.03054   0.84028   0.39430   0.00000  Uiso   1.00
C424   C     0.30134   0.82050   0.10594   0.00000  Uiso   1.00
C425   C     0.01449   0.87923   0.47576   0.00000  Uiso   1.00
C426   C     0.30932   0.76760   0.02924   0.00000  Uiso   1.00
C427   C     0.33019   0.86862   0.42636   0.00000  Uiso   1.00
C428   C     0.33061   0.78487   0.07667   0.00000  Uiso   1.00
C429   C     0.07879   0.81901   0.41224   0.00000  Uiso   1.00
C430   C     0.25310   0.84084   0.08700   0.00000  Uiso   1.00
C431   C     0.09821   0.82993   0.46131   0.00000  Uiso   1.00
C432   C     0.31886   0.73542   0.25141   0.00000  Uiso   1.00
C433   C     0.22752   0.81998   0.04183   0.00000  Uiso   1.00
C434   C     0.06594   0.86182   0.49296   0.00000  Uiso   1.00
C435   C     0.25728   0.78384   0.01212   0.00000  Uiso   1.00
C436   C     0.15069   0.81311   0.47859   0.00000  Uiso   1.00
C437   C     0.17278   0.83296   0.02623   0.00000  Uiso   1.00
C438   C     0.02142   0.98963   0.15190   0.00000  Uiso   1.00
C439   C     0.30987   0.67410   0.34778   0.00000  Uiso   1.00
C440   C     0.13088   0.76521   0.16208   0.00000  Uiso   1.00
C441   C     0.18925   0.89757   0.33946   0.00000  Uiso   1.00
C442   C     0.13866   0.86364   0.05726   0.00000  Uiso   1.00
C443   C     0.18185   0.77734   0.44978   0.00000  Uiso   1.00
C444   C     0.08598   0.87714   0.04096   0.00000  Uiso   1.00
C445   C     0.23414   0.76317   0.46637   0.00000  Uiso   1.00
C446   C     0.01839   0.98397   0.23937   0.00000  Uiso   1.00
C447   C     0.31473   0.68257   0.26075   0.00000  Uiso   1.00
C448   C     0.02071   0.83706   0.34117   0.00000  Uiso   1.00
H449   H     0.06136   0.90080   0.06582   0.00000  Uiso   1.00
H450   H     0.16636   0.75783   0.41477   0.00000  Uiso   1.00
H451   H     0.09015   0.98178   0.19921   0.00000  Uiso   1.00
H452   H     0.04949   0.66836   0.12310   0.00000  Uiso   1.00
H453   H     0.31732   0.68012   0.15142   0.00000  Uiso   1.00
H454   H     0.00776   0.94760   0.14298   0.00000  Uiso   1.00
H455   H     0.24235   0.68512   0.30026   0.00000  Uiso   1.00
H456   H     0.28106   0.99442   0.37565   0.00000  Uiso   1.00
H457   H     0.32405   0.71577   0.35831   0.00000  Uiso   1.00
H458   H     0.01356   0.98308   0.34782   0.00000  Uiso   1.00
H459   H     0.20465   0.77389   0.20316   0.00000  Uiso   1.00
H460   H     0.25627   0.73528   0.44343   0.00000  Uiso   1.00
H461   H     0.14884   0.73268   0.13945   0.00000  Uiso   1.00
H462   H     0.13229   0.80032   0.14144   0.00000  Uiso   1.00
H463   H     0.08703   0.75271   0.16841   0.00000  Uiso   1.00
H464   H     0.17271   0.92406   0.27162   0.00000  Uiso   1.00
H465   H     0.16677   0.92840   0.36029   0.00000  Uiso   1.00
H466   H     0.23471   0.90993   0.34088   0.00000  Uiso   1.00
H467   H     0.18297   0.86064   0.35708   0.00000  Uiso   1.00
H468   H     0.23497   0.87124   0.10984   0.00000  Uiso   1.00
H469   H     0.10268   0.79711   0.38596   0.00000  Uiso   1.00
H470   H     0.03491   0.76877   0.09099   0.00000  Uiso   1.00
H471   H     0.29218   0.88483   0.41287   0.00000  Uiso   1.00
H472   H     0.32250   0.90280   0.00003   0.00000  Uiso   1.00
H473   H     0.33211   0.73978   0.00686   0.00000  Uiso   1.00
H474   H     0.15063   0.87717   0.09496   0.00000  Uiso   1.00
N475   N     0.14695   0.81883   0.23740   0.00000  Uiso   1.00
N476   N     0.18638   0.84784   0.26261   0.00000  Uiso   1.00
N477   N     0.05143   0.99781   0.19960   0.00000  Uiso   1.00
N478   N     0.28060   0.66824   0.29975   0.00000  Uiso   1.00
N479   N     0.16302   0.77600   0.20823   0.00000  Uiso   1.00
N480   N     0.16705   0.89054   0.28915   0.00000  Uiso   1.00
O481   O     0.29719   0.91298   0.25310   0.00000  Uiso   1.00
O482   O     0.03614   0.75369   0.24691   0.00000  Uiso   1.00
O483   O     0.05822   0.90368   0.24502   0.00000  Uiso   1.00
O484   O     0.27512   0.76298   0.25499   0.00000  Uiso   1.00
O485   O     0.30328   0.84063   0.32247   0.00000  Uiso   1.00
O486   O     0.03005   0.82603   0.17753   0.00000  Uiso   1.00
O487   O     0.06431   0.83134   0.31439   0.00000  Uiso   1.00
O488   O     0.26902   0.83533   0.18561   0.00000  Uiso   1.00
Zn489  Zn    0.27033   0.83954   0.25540   0.00000  Uiso   1.00
Zn490  Zn    0.06300   0.82713   0.24461   0.00000  Uiso   1.00
C491   C     0.34779   0.93123   0.24878   0.00000  Uiso   1.00
C492   C     0.64585   0.82908   0.15884   0.00000  Uiso   1.00
C493   C     0.36387   0.84028   0.39430   0.00000  Uiso   1.00
C494   C     0.63467   0.82050   0.10594   0.00000  Uiso   1.00
C495   C     0.34782   0.87923   0.47576   0.00000  Uiso   1.00
C496   C     0.64265   0.76760   0.02924   0.00000  Uiso   1.00
C497   C     0.66352   0.86862   0.42636   0.00000  Uiso   1.00
C498   C     0.66394   0.78487   0.07667   0.00000  Uiso   1.00
C499   C     0.41213   0.81901   0.41224   0.00000  Uiso   1.00
C500   C     0.58643   0.84084   0.08700   0.00000  Uiso   1.00
C501   C     0.43155   0.82993   0.46131   0.00000  Uiso   1.00
C502   C     0.65219   0.73542   0.25141   0.00000  Uiso   1.00
C503   C     0.56086   0.81998   0.04183   0.00000  Uiso   1.00
C504   C     0.39927   0.86182   0.49296   0.00000  Uiso   1.00
C505   C     0.59062   0.78384   0.01212   0.00000  Uiso   1.00
C506   C     0.48402   0.81311   0.47859   0.00000  Uiso   1.00
C507   C     0.50611   0.83296   0.02623   0.00000  Uiso   1.00
C508   C     0.35475   0.98963   0.15190   0.00000  Uiso   1.00
C509   C     0.64320   0.67410   0.34778   0.00000  Uiso   1.00
C510   C     0.46421   0.76521   0.16208   0.00000  Uiso   1.00
C511   C     0.52258   0.89757   0.33946   0.00000  Uiso   1.00
C512   C     0.47199   0.86364   0.05726   0.00000  Uiso   1.00
C513   C     0.51519   0.77734   0.44978   0.00000  Uiso   1.00
C514   C     0.41932   0.87714   0.04096   0.00000  Uiso   1.00
C515   C     0.56747   0.76317   0.46637   0.00000  Uiso   1.00
C516   C     0.35172   0.98397   0.23937   0.00000  Uiso   1.00
C517   C     0.64807   0.68257   0.26075   0.00000  Uiso   1.00
C518   C     0.35404   0.83706   0.34117   0.00000  Uiso   1.00
H519   H     0.39470   0.90080   0.06582   0.00000  Uiso   1.00
H520   H     0.49969   0.75783   0.41477   0.00000  Uiso   1.00
H521   H     0.42349   0.98178   0.19921   0.00000  Uiso   1.00
H522   H     0.38282   0.66836   0.12310   0.00000  Uiso   1.00
H523   H     0.65066   0.68012   0.15142   0.00000  Uiso   1.00
H524   H     0.34109   0.94760   0.14298   0.00000  Uiso   1.00
H525   H     0.57568   0.68512   0.30026   0.00000  Uiso   1.00
H526   H     0.61440   0.99442   0.37565   0.00000  Uiso   1.00
H527   H     0.65738   0.71577   0.35831   0.00000  Uiso   1.00
H528   H     0.34689   0.98308   0.34782   0.00000  Uiso   1.00
H529   H     0.53798   0.77389   0.20316   0.00000  Uiso   1.00
H530   H     0.58960   0.73528   0.44343   0.00000  Uiso   1.00
H531   H     0.48217   0.73268   0.13945   0.00000  Uiso   1.00
H532   H     0.46563   0.80032   0.14144   0.00000  Uiso   1.00
H533   H     0.42036   0.75271   0.16841   0.00000  Uiso   1.00
H534   H     0.50604   0.92406   0.27162   0.00000  Uiso   1.00
H535   H     0.50011   0.92840   0.36029   0.00000  Uiso   1.00
H536   H     0.56805   0.90993   0.34088   0.00000  Uiso   1.00
H537   H     0.51631   0.86064   0.35708   0.00000  Uiso   1.00
H538   H     0.56830   0.87124   0.10984   0.00000  Uiso   1.00
H539   H     0.43601   0.79711   0.38596   0.00000  Uiso   1.00
H540   H     0.36824   0.76877   0.09099   0.00000  Uiso   1.00
H541   H     0.62551   0.88483   0.41287   0.00000  Uiso   1.00
H542   H     0.65584   0.90280   0.00003   0.00000  Uiso   1.00
H543   H     0.66545   0.73978   0.00686   0.00000  Uiso   1.00
H544   H     0.48397   0.87717   0.09496   0.00000  Uiso   1.00
N545   N     0.48029   0.81883   0.23740   0.00000  Uiso   1.00
N546   N     0.51971   0.84784   0.26261   0.00000  Uiso   1.00
N547   N     0.38477   0.99781   0.19960   0.00000  Uiso   1.00
N548   N     0.61394   0.66824   0.29975   0.00000  Uiso   1.00
N549   N     0.49636   0.77600   0.20823   0.00000  Uiso   1.00
N550   N     0.50039   0.89054   0.28915   0.00000  Uiso   1.00
O551   O     0.63052   0.91298   0.25310   0.00000  Uiso   1.00
O552   O     0.36948   0.75369   0.24691   0.00000  Uiso   1.00
O553   O     0.39155   0.90368   0.24502   0.00000  Uiso   1.00
O554   O     0.60845   0.76298   0.25499   0.00000  Uiso   1.00
O555   O     0.63662   0.84063   0.32247   0.00000  Uiso   1.00
O556   O     0.36338   0.82603   0.17753   0.00000  Uiso   1.00
O557   O     0.39764   0.83134   0.31439   0.00000  Uiso   1.00
O558   O     0.60236   0.83533   0.18561   0.00000  Uiso   1.00
Zn559  Zn    0.60366   0.83954   0.25540   0.00000  Uiso   1.00
Zn560  Zn    0.39634   0.82713   0.24461   0.00000  Uiso   1.00
C561   C     0.68113   0.93123   0.24878   0.00000  Uiso   1.00
C562   C     0.97918   0.82908   0.15884   0.00000  Uiso   1.00
C563   C     0.69720   0.84028   0.39430   0.00000  Uiso   1.00
C564   C     0.96800   0.82050   0.10594   0.00000  Uiso   1.00
C565   C     0.68116   0.87923   0.47576   0.00000  Uiso   1.00
C566   C     0.97599   0.76760   0.02924   0.00000  Uiso   1.00
C567   C     0.99686   0.86862   0.42636   0.00000  Uiso   1.00
C568   C     0.99728   0.78487   0.07667   0.00000  Uiso   1.00
C569   C     0.74546   0.81901   0.41224   0.00000  Uiso   1.00
C570   C     0.91976   0.84084   0.08700   0.00000  Uiso   1.00
C571   C     0.76488   0.82993   0.46131   0.00000  Uiso   1.00
C572   C     0.98553   0.73542   0.25141   0.00000  Uiso   1.00
C573   C     0.89419   0.81998   0.04183   0.00000  Uiso   1.00
C574   C     0.73260   0.86182   0.49296   0.00000  Uiso   1.00
C575   C     0.92395   0.78384   0.01212   0.00000  Uiso   1.00
C576   C     0.81735   0.81311   0.47859   0.00000  Uiso   1.00
C577   C     0.83945   0.83296   0.02623   0.00000  Uiso   1.00
C578   C     0.68809   0.98963   0.15190   0.00000  Uiso   1.00
C579   C     0.97654   0.67410   0.34778   0.00000  Uiso   1.00
C580   C     0.79755   0.76521   0.16208   0.00000  Uiso   1.00
C581   C     0.85592   0.89757   0.33946   0.00000  Uiso   1.00
C582   C     0.80532   0.86364   0.05726   0.00000  Uiso   1.00
C583   C     0.84852   0.77734   0.44978   0.00000  Uiso   1.00
C584   C     0.75265   0.87714   0.04096   0.00000  Uiso   1.00
C585   C     0.90080   0.76317   0.46637   0.00000  Uiso   1.00
C586   C     0.68506   0.98397   0.23937   0.00000  Uiso   1.00
C587   C     0.98140   0.68257   0.26075   0.00000  Uiso   1.00
C588   C     0.68738   0.83706   0.34117   0.00000  Uiso   1.00
H589   H     0.72803   0.90080   0.06582   0.00000  Uiso   1.00
H590   H     0.83302   0.75783   0.41477   0.00000  Uiso   1.00
H591   H     0.75682   0.98178   0.19921   0.00000  Uiso   1.00
H592   H     0.71616   0.66836   0.12310   0.00000  Uiso   1.00
H593   H     0.98399   0.68012   0.15142   0.00000  Uiso   1.00
H594   H     0.67443   0.94760   0.14298   0.00000  Uiso   1.00
H595   H     0.90902   0.68512   0.30026   0.00000  Uiso   1.00
H596   H     0.94773   0.99442   0.37565   0.00000  Uiso   1.00
H597   H     0.99071   0.71577   0.35831   0.00000  Uiso   1.00
H598   H     0.68023   0.98308   0.34782   0.00000  Uiso   1.00
H599   H     0.87132   0.77389   0.20316   0.00000  Uiso   1.00
H600   H     0.92294   0.73528   0.44343   0.00000  Uiso   1.00
H601   H     0.81550   0.73268   0.13945   0.00000  Uiso   1.00
H602   H     0.79896   0.80032   0.14144   0.00000  Uiso   1.00
H603   H     0.75370   0.75271   0.16841   0.00000  Uiso   1.00
H604   H     0.83938   0.92406   0.27162   0.00000  Uiso   1.00
H605   H     0.83344   0.92840   0.36029   0.00000  Uiso   1.00
H606   H     0.90138   0.90993   0.34088   0.00000  Uiso   1.00
H607   H     0.84964   0.86064   0.35708   0.00000  Uiso   1.00
H608   H     0.90163   0.87124   0.10984   0.00000  Uiso   1.00
H609   H     0.76934   0.79711   0.38596   0.00000  Uiso   1.00
H610   H     0.70158   0.76877   0.09099   0.00000  Uiso   1.00
H611   H     0.95884   0.88483   0.41287   0.00000  Uiso   1.00
H612   H     0.98917   0.90280   0.00003   0.00000  Uiso   1.00
H613   H     0.99878   0.73978   0.00686   0.00000  Uiso   1.00
H614   H     0.81730   0.87717   0.09496   0.00000  Uiso   1.00
N615   N     0.81362   0.81883   0.23740   0.00000  Uiso   1.00
N616   N     0.85305   0.84784   0.26261   0.00000  Uiso   1.00
N617   N     0.71810   0.99781   0.19960   0.00000  Uiso   1.00
N618   N     0.94727   0.66824   0.29975   0.00000  Uiso   1.00
N619   N     0.82969   0.77600   0.20823   0.00000  Uiso   1.00
N620   N     0.83372   0.89054   0.28915   0.00000  Uiso   1.00
O621   O     0.96386   0.91298   0.25310   0.00000  Uiso   1.00
O622   O     0.70281   0.75369   0.24691   0.00000  Uiso   1.00
O623   O     0.72488   0.90368   0.24502   0.00000  Uiso   1.00
O624   O     0.94178   0.76298   0.25499   0.00000  Uiso   1.00
O625   O     0.96995   0.84063   0.32247   0.00000  Uiso   1.00
O626   O     0.69672   0.82603   0.17753   0.00000  Uiso   1.00
O627   O     0.73098   0.83134   0.31439   0.00000  Uiso   1.00
O628   O     0.93569   0.83533   0.18561   0.00000  Uiso   1.00
Zn629  Zn    0.93700   0.83954   0.25540   0.00000  Uiso   1.00
Zn630  Zn    0.72967   0.82713   0.24461   0.00000  Uiso   1.00
C631   C     0.01446   0.26456   0.74878   0.00000  Uiso   1.00
C632   C     0.31252   0.16242   0.65884   0.00000  Uiso   1.00
C633   C     0.03054   0.17362   0.89430   0.00000  Uiso   1.00
C634   C     0.30134   0.15383   0.60594   0.00000  Uiso   1.00
C635   C     0.01449   0.21256   0.97576   0.00000  Uiso   1.00
C636   C     0.30932   0.10094   0.52924   0.00000  Uiso   1.00
C637   C     0.33019   0.20196   0.92636   0.00000  Uiso   1.00
C638   C     0.33061   0.11820   0.57667   0.00000  Uiso   1.00
C639   C     0.07879   0.15234   0.91224   0.00000  Uiso   1.00
C640   C     0.25310   0.17418   0.58700   0.00000  Uiso   1.00
C641   C     0.09821   0.16326   0.96131   0.00000  Uiso   1.00
C642   C     0.31886   0.06875   0.75141   0.00000  Uiso   1.00
C643   C     0.22752   0.15331   0.54183   0.00000  Uiso   1.00
C644   C     0.06594   0.19516   0.99296   0.00000  Uiso   1.00
C645   C     0.25728   0.11718   0.51212   0.00000  Uiso   1.00
C646   C     0.15069   0.14645   0.97859   0.00000  Uiso   1.00
C647   C     0.17278   0.16629   0.52623   0.00000  Uiso   1.00
C648   C     0.02142   0.32296   0.65190   0.00000  Uiso   1.00
C649   C     0.30987   0.00744   0.84778   0.00000  Uiso   1.00
C650   C     0.13088   0.09855   0.66208   0.00000  Uiso   1.00
C651   C     0.18925   0.23090   0.83946   0.00000  Uiso   1.00
C652   C     0.13866   0.19698   0.55726   0.00000  Uiso   1.00
C653   C     0.18185   0.11067   0.94978   0.00000  Uiso   1.00
C654   C     0.08598   0.21047   0.54096   0.00000  Uiso   1.00
C655   C     0.23414   0.09650   0.96637   0.00000  Uiso   1.00
C656   C     0.01839   0.31731   0.73937   0.00000  Uiso   1.00
C657   C     0.31473   0.01591   0.76075   0.00000  Uiso   1.00
C658   C     0.02071   0.17039   0.84117   0.00000  Uiso   1.00
H659   H     0.06136   0.23413   0.56582   0.00000  Uiso   1.00
H660   H     0.16636   0.09116   0.91477   0.00000  Uiso   1.00
H661   H     0.09015   0.31511   0.69921   0.00000  Uiso   1.00
H662   H     0.04949   0.00170   0.62310   0.00000  Uiso   1.00
H663   H     0.31732   0.01345   0.65142   0.00000  Uiso   1.00
H664   H     0.00776   0.28094   0.64298   0.00000  Uiso   1.00
H665   H     0.24235   0.01845   0.80026   0.00000  Uiso   1.00
H666   H     0.28106   0.32775   0.87565   0.00000  Uiso   1.00
H667   H     0.32405   0.04911   0.85831   0.00000  Uiso   1.00
H668   H     0.01356   0.31641   0.84782   0.00000  Uiso   1.00
H669   H     0.20465   0.10722   0.70316   0.00000  Uiso   1.00
H670   H     0.25627   0.06861   0.94343   0.00000  Uiso   1.00
H671   H     0.14884   0.06601   0.63945   0.00000  Uiso   1.00
H672   H     0.13229   0.13365   0.64144   0.00000  Uiso   1.00
H673   H     0.08703   0.08604   0.66841   0.00000  Uiso   1.00
H674   H     0.17271   0.25739   0.77162   0.00000  Uiso   1.00
H675   H     0.16677   0.26174   0.86029   0.00000  Uiso   1.00
H676   H     0.23471   0.24327   0.84088   0.00000  Uiso   1.00
H677   H     0.18297   0.19398   0.85708   0.00000  Uiso   1.00
H678   H     0.23497   0.20457   0.60984   0.00000  Uiso   1.00
H679   H     0.10268   0.13045   0.88596   0.00000  Uiso   1.00
H680   H     0.03491   0.10210   0.59099   0.00000  Uiso   1.00
H681   H     0.29218   0.21817   0.91287   0.00000  Uiso   1.00
H682   H     0.32250   0.23613   0.50003   0.00000  Uiso   1.00
H683   H     0.33211   0.07311   0.50686   0.00000  Uiso   1.00
H684   H     0.15063   0.21050   0.59496   0.00000  Uiso   1.00
N685   N     0.14695   0.15216   0.73740   0.00000  Uiso   1.00
N686   N     0.18638   0.18117   0.76261   0.00000  Uiso   1.00
N687   N     0.05143   0.33115   0.69960   0.00000  Uiso   1.00
N688   N     0.28060   0.00158   0.79975   0.00000  Uiso   1.00
N689   N     0.16302   0.10933   0.70823   0.00000  Uiso   1.00
N690   N     0.16705   0.22387   0.78915   0.00000  Uiso   1.00
O691   O     0.29719   0.24631   0.75310   0.00000  Uiso   1.00
O692   O     0.03614   0.08702   0.74691   0.00000  Uiso   1.00
O693   O     0.05822   0.23702   0.74502   0.00000  Uiso   1.00
O694   O     0.27512   0.09632   0.75499   0.00000  Uiso   1.00
O695   O     0.30328   0.17397   0.82247   0.00000  Uiso   1.00
O696   O     0.03005   0.15937   0.67753   0.00000  Uiso   1.00
O697   O     0.06431   0.16467   0.81439   0.00000  Uiso   1.00
O698   O     0.26902   0.16866   0.68561   0.00000  Uiso   1.00
Zn699  Zn    0.27033   0.17287   0.75540   0.00000  Uiso   1.00
Zn700  Zn    0.06300   0.16046   0.74461   0.00000  Uiso   1.00
C701   C     0.34779   0.26456   0.74878   0.00000  Uiso   1.00
C702   C     0.64585   0.16242   0.65884   0.00000  Uiso   1.00
C703   C     0.36387   0.17362   0.89430   0.00000  Uiso   1.00
C704   C     0.63467   0.15383   0.60594   0.00000  Uiso   1.00
C705   C     0.34782   0.21256   0.97576   0.00000  Uiso   1.00
C706   C     0.64265   0.10094   0.52924   0.00000  Uiso   1.00
C707   C     0.66352   0.20196   0.92636   0.00000  Uiso   1.00
C708   C     0.66394   0.11820   0.57667   0.00000  Uiso   1.00
C709   C     0.41213   0.15234   0.91224   0.00000  Uiso   1.00
C710   C     0.58643   0.17418   0.58700   0.00000  Uiso   1.00
C711   C     0.43155   0.16326   0.96131   0.00000  Uiso   1.00
C712   C     0.65219   0.06875   0.75141   0.00000  Uiso   1.00
C713   C     0.56086   0.15331   0.54183   0.00000  Uiso   1.00
C714   C     0.39927   0.19516   0.99296   0.00000  Uiso   1.00
C715   C     0.59062   0.11718   0.51212   0.00000  Uiso   1.00
C716   C     0.48402   0.14645   0.97859   0.00000  Uiso   1.00
C717   C     0.50611   0.16629   0.52623   0.00000  Uiso   1.00
C718   C     0.35475   0.32296   0.65190   0.00000  Uiso   1.00
C719   C     0.64320   0.00744   0.84778   0.00000  Uiso   1.00
C720   C     0.46421   0.09855   0.66208   0.00000  Uiso   1.00
C721   C     0.52258   0.23090   0.83946   0.00000  Uiso   1.00
C722   C     0.47199   0.19698   0.55726   0.00000  Uiso   1.00
C723   C     0.51519   0.11067   0.94978   0.00000  Uiso   1.00
C724   C     0.41932   0.21047   0.54096   0.00000  Uiso   1.00
C725   C     0.56747   0.09650   0.96637   0.00000  Uiso   1.00
C726   C     0.35172   0.31731   0.73937   0.00000  Uiso   1.00
C727   C     0.64807   0.01591   0.76075   0.00000  Uiso   1.00
C728   C     0.35404   0.17039   0.84117   0.00000  Uiso   1.00
H729   H     0.39470   0.23413   0.56582   0.00000  Uiso   1.00
H730   H     0.49969   0.09116   0.91477   0.00000  Uiso   1.00
H731   H     0.42349   0.31511   0.69921   0.00000  Uiso   1.00
H732   H     0.38282   0.00170   0.62310   0.00000  Uiso   1.00
H733   H     0.65066   0.01345   0.65142   0.00000  Uiso   1.00
H734   H     0.34109   0.28094   0.64298   0.00000  Uiso   1.00
H735   H     0.57568   0.01845   0.80026   0.00000  Uiso   1.00
H736   H     0.61440   0.32775   0.87565   0.00000  Uiso   1.00
H737   H     0.65738   0.04911   0.85831   0.00000  Uiso   1.00
H738   H     0.34689   0.31641   0.84782   0.00000  Uiso   1.00
H739   H     0.53798   0.10722   0.70316   0.00000  Uiso   1.00
H740   H     0.58960   0.06861   0.94343   0.00000  Uiso   1.00
H741   H     0.48217   0.06601   0.63945   0.00000  Uiso   1.00
H742   H     0.46563   0.13365   0.64144   0.00000  Uiso   1.00
H743   H     0.42036   0.08604   0.66841   0.00000  Uiso   1.00
H744   H     0.50604   0.25739   0.77162   0.00000  Uiso   1.00
H745   H     0.50011   0.26174   0.86029   0.00000  Uiso   1.00
H746   H     0.56805   0.24327   0.84088   0.00000  Uiso   1.00
H747   H     0.51631   0.19398   0.85708   0.00000  Uiso   1.00
H748   H     0.56830   0.20457   0.60984   0.00000  Uiso   1.00
H749   H     0.43601   0.13045   0.88596   0.00000  Uiso   1.00
H750   H     0.36824   0.10210   0.59099   0.00000  Uiso   1.00
H751   H     0.62551   0.21817   0.91287   0.00000  Uiso   1.00
H752   H     0.65584   0.23613   0.50003   0.00000  Uiso   1.00
H753   H     0.66545   0.07311   0.50686   0.00000  Uiso   1.00
H754   H     0.48397   0.21050   0.59496   0.00000  Uiso   1.00
N755   N     0.48029   0.15216   0.73740   0.00000  Uiso   1.00
N756   N     0.51971   0.18117   0.76261   0.00000  Uiso   1.00
N757   N     0.38477   0.33115   0.69960   0.00000  Uiso   1.00
N758   N     0.61394   0.00158   0.79975   0.00000  Uiso   1.00
N759   N     0.49636   0.10933   0.70823   0.00000  Uiso   1.00
N760   N     0.50039   0.22387   0.78915   0.00000  Uiso   1.00
O761   O     0.63052   0.24631   0.75310   0.00000  Uiso   1.00
O762   O     0.36948   0.08702   0.74691   0.00000  Uiso   1.00
O763   O     0.39155   0.23702   0.74502   0.00000  Uiso   1.00
O764   O     0.60845   0.09632   0.75499   0.00000  Uiso   1.00
O765   O     0.63662   0.17397   0.82247   0.00000  Uiso   1.00
O766   O     0.36338   0.15937   0.67753   0.00000  Uiso   1.00
O767   O     0.39764   0.16467   0.81439   0.00000  Uiso   1.00
O768   O     0.60236   0.16866   0.68561   0.00000  Uiso   1.00
Zn769  Zn    0.60366   0.17287   0.75540   0.00000  Uiso   1.00
Zn770  Zn    0.39634   0.16046   0.74461   0.00000  Uiso   1.00
C771   C     0.68113   0.26456   0.74878   0.00000  Uiso   1.00
C772   C     0.97918   0.16242   0.65884   0.00000  Uiso   1.00
C773   C     0.69720   0.17362   0.89430   0.00000  Uiso   1.00
C774   C     0.96800   0.15383   0.60594   0.00000  Uiso   1.00
C775   C     0.68116   0.21256   0.97576   0.00000  Uiso   1.00
C776   C     0.97599   0.10094   0.52924   0.00000  Uiso   1.00
C777   C     0.99686   0.20196   0.92636   0.00000  Uiso   1.00
C778   C     0.99728   0.11820   0.57667   0.00000  Uiso   1.00
C779   C     0.74546   0.15234   0.91224   0.00000  Uiso   1.00
C780   C     0.91976   0.17418   0.58700   0.00000  Uiso   1.00
C781   C     0.76488   0.16326   0.96131   0.00000  Uiso   1.00
C782   C     0.98553   0.06875   0.75141   0.00000  Uiso   1.00
C783   C     0.89419   0.15331   0.54183   0.00000  Uiso   1.00
C784   C     0.73260   0.19516   0.99296   0.00000  Uiso   1.00
C785   C     0.92395   0.11718   0.51212   0.00000  Uiso   1.00
C786   C     0.81735   0.14645   0.97859   0.00000  Uiso   1.00
C787   C     0.83945   0.16629   0.52623   0.00000  Uiso   1.00
C788   C     0.68809   0.32296   0.65190   0.00000  Uiso   1.00
C789   C     0.97654   0.00744   0.84778   0.00000  Uiso   1.00
C790   C     0.79755   0.09855   0.66208   0.00000  Uiso   1.00
C791   C     0.85592   0.23090   0.83946   0.00000  Uiso   1.00
C792   C     0.80532   0.19698   0.55726   0.00000  Uiso   1.00
C793   C     0.84852   0.11067   0.94978   0.00000  Uiso   1.00
C794   C     0.75265   0.21047   0.54096   0.00000  Uiso   1.00
C795   C     0.90080   0.09650   0.96637   0.00000  Uiso   1.00
C796   C     0.68506   0.31731   0.73937   0.00000  Uiso   1.00
C797   C     0.98140   0.01591   0.76075   0.00000  Uiso   1.00
C798   C     0.68738   0.17039   0.84117   0.00000  Uiso   1.00
H799   H     0.72803   0.23413   0.56582   0.00000  Uiso   1.00
H800   H     0.83302   0.09116   0.91477   0.00000  Uiso   1.00
H801   H     0.75682   0.31511   0.69921   0.00000  Uiso   1.00
H802   H     0.71616   0.00170   0.62310   0.00000  Uiso   1.00
H803   H     0.98399   0.01345   0.65142   0.00000  Uiso   1.00
H804   H     0.67443   0.28094   0.64298   0.00000  Uiso   1.00
H805   H     0.90902   0.01845   0.80026   0.00000  Uiso   1.00
H806   H     0.94773   0.32775   0.87565   0.00000  Uiso   1.00
H807   H     0.99071   0.04911   0.85831   0.00000  Uiso   1.00
H808   H     0.68023   0.31641   0.84782   0.00000  Uiso   1.00
H809   H     0.87132   0.10722   0.70316   0.00000  Uiso   1.00
H810   H     0.92294   0.06861   0.94343   0.00000  Uiso   1.00
H811   H     0.81550   0.06601   0.63945   0.00000  Uiso   1.00
H812   H     0.79896   0.13365   0.64144   0.00000  Uiso   1.00
H813   H     0.75370   0.08604   0.66841   0.00000  Uiso   1.00
H814   H     0.83938   0.25739   0.77162   0.00000  Uiso   1.00
H815   H     0.83344   0.26174   0.86029   0.00000  Uiso   1.00
H816   H     0.90138   0.24327   0.84088   0.00000  Uiso   1.00
H817   H     0.84964   0.19398   0.85708   0.00000  Uiso   1.00
H818   H     0.90163   0.20457   0.60984   0.00000  Uiso   1.00
H819   H     0.76934   0.13045   0.88596   0.00000  Uiso   1.00
H820   H     0.70158   0.10210   0.59099   0.00000  Uiso   1.00
H821   H     0.95884   0.21817   0.91287   0.00000  Uiso   1.00
H822   H     0.98917   0.23613   0.50003   0.00000  Uiso   1.00
H823   H     0.99878   0.07311   0.50686   0.00000  Uiso   1.00
H824   H     0.81730   0.21050   0.59496   0.00000  Uiso   1.00
N825   N     0.81362   0.15216   0.73740   0.00000  Uiso   1.00
N826   N     0.85305   0.18117   0.76261   0.00000  Uiso   1.00
N827   N     0.71810   0.33115   0.69960   0.00000  Uiso   1.00
N828   N     0.94727   0.00158   0.79975   0.00000  Uiso   1.00
N829   N     0.82969   0.10933   0.70823   0.00000  Uiso   1.00
N830   N     0.83372   0.22387   0.78915   0.00000  Uiso   1.00
O831   O     0.96386   0.24631   0.75310   0.00000  Uiso   1.00
O832   O     0.70281   0.08702   0.74691   0.00000  Uiso   1.00
O833   O     0.72488   0.23702   0.74502   0.00000  Uiso   1.00
O834   O     0.94178   0.09632   0.75499   0.00000  Uiso   1.00
O835   O     0.96995   0.17397   0.82247   0.00000  Uiso   1.00
O836   O     0.69672   0.15937   0.67753   0.00000  Uiso   1.00
O837   O     0.73098   0.16467   0.81439   0.00000  Uiso   1.00
O838   O     0.93569   0.16866   0.68561   0.00000  Uiso   1.00
Zn839  Zn    0.93700   0.17287   0.75540   0.00000  Uiso   1.00
Zn840  Zn    0.72967   0.16046   0.74461   0.00000  Uiso   1.00
C841   C     0.01446   0.59789   0.74878   0.00000  Uiso   1.00
C842   C     0.31252   0.49575   0.65884   0.00000  Uiso   1.00
C843   C     0.03054   0.50695   0.89430   0.00000  Uiso   1.00
C844   C     0.30134   0.48717   0.60594   0.00000  Uiso   1.00
C845   C     0.01449   0.54589   0.97576   0.00000  Uiso   1.00
C846   C     0.30932   0.43427   0.52924   0.00000  Uiso   1.00
C847   C     0.33019   0.53529   0.92636   0.00000  Uiso   1.00
C848   C     0.33061   0.45154   0.57667   0.00000  Uiso   1.00
C849   C     0.07879   0.48568   0.91224   0.00000  Uiso   1.00
C850   C     0.25310   0.50751   0.58700   0.00000  Uiso   1.00
C851   C     0.09821   0.49659   0.96131   0.00000  Uiso   1.00
C852   C     0.31886   0.40209   0.75141   0.00000  Uiso   1.00
C853   C     0.22752   0.48664   0.54183   0.00000  Uiso   1.00
C854   C     0.06594   0.52849   0.99296   0.00000  Uiso   1.00
C855   C     0.25728   0.45051   0.51212   0.00000  Uiso   1.00
C856   C     0.15069   0.47978   0.97859   0.00000  Uiso   1.00
C857   C     0.17278   0.49962   0.52623   0.00000  Uiso   1.00
C858   C     0.02142   0.65630   0.65190   0.00000  Uiso   1.00
C859   C     0.30987   0.34077   0.84778   0.00000  Uiso   1.00
C860   C     0.13088   0.43188   0.66208   0.00000  Uiso   1.00
C861   C     0.18925   0.56423   0.83946   0.00000  Uiso   1.00
C862   C     0.13866   0.53031   0.55726   0.00000  Uiso   1.00
C863   C     0.18185   0.44401   0.94978   0.00000  Uiso   1.00
C864   C     0.08598   0.54381   0.54096   0.00000  Uiso   1.00
C865   C     0.23414   0.42984   0.96637   0.00000  Uiso   1.00
C866   C     0.01839   0.65064   0.73937   0.00000  Uiso   1.00
C867   C     0.31473   0.34924   0.76075   0.00000  Uiso   1.00
C868   C     0.02071   0.50373   0.84117   0.00000  Uiso   1.00
H869   H     0.06136   0.56747   0.56582   0.00000  Uiso   1.00
H870   H     0.16636   0.42449   0.91477   0.00000  Uiso   1.00
H871   H     0.09015   0.64845   0.69921   0.00000  Uiso   1.00
H872   H     0.04949   0.33503   0.62310   0.00000  Uiso   1.00
H873   H     0.31732   0.34679   0.65142   0.00000  Uiso   1.00
H874   H     0.00776   0.61427   0.64298   0.00000  Uiso   1.00
H875   H     0.24235   0.35179   0.80026   0.00000  Uiso   1.00
H876   H     0.28106   0.66108   0.87565   0.00000  Uiso   1.00
H877   H     0.32405   0.38244   0.85831   0.00000  Uiso   1.00
H878   H     0.01356   0.64975   0.84782   0.00000  Uiso   1.00
H879   H     0.20465   0.44056   0.70316   0.00000  Uiso   1.00
H880   H     0.25627   0.40195   0.94343   0.00000  Uiso   1.00
H881   H     0.14884   0.39935   0.63945   0.00000  Uiso   1.00
H882   H     0.13229   0.46699   0.64144   0.00000  Uiso   1.00
H883   H     0.08703   0.41938   0.66841   0.00000  Uiso   1.00
H884   H     0.17271   0.59072   0.77162   0.00000  Uiso   1.00
H885   H     0.16677   0.59507   0.86029   0.00000  Uiso   1.00
H886   H     0.23471   0.57660   0.84088   0.00000  Uiso   1.00
H887   H     0.18297   0.52731   0.85708   0.00000  Uiso   1.00
H888   H     0.23497   0.53790   0.60984   0.00000  Uiso   1.00
H889   H     0.10268   0.46378   0.88596   0.00000  Uiso   1.00
H890   H     0.03491   0.43544   0.59099   0.00000  Uiso   1.00
H891   H     0.29218   0.55150   0.91287   0.00000  Uiso   1.00
H892   H     0.32250   0.56947   0.50003   0.00000  Uiso   1.00
H893   H     0.33211   0.40644   0.50686   0.00000  Uiso   1.00
H894   H     0.15063   0.54384   0.59496   0.00000  Uiso   1.00
N895   N     0.14695   0.48550   0.73740   0.00000  Uiso   1.00
N896   N     0.18638   0.51450   0.76261   0.00000  Uiso   1.00
N897   N     0.05143   0.66448   0.69960   0.00000  Uiso   1.00
N898   N     0.28060   0.33491   0.79975   0.00000  Uiso   1.00
N899   N     0.16302   0.44266   0.70823   0.00000  Uiso   1.00
N900   N     0.16705   0.55720   0.78915   0.00000  Uiso   1.00
O901   O     0.29719   0.57964   0.75310   0.00000  Uiso   1.00
O902   O     0.03614   0.42036   0.74691   0.00000  Uiso   1.00
O903   O     0.05822   0.57035   0.74502   0.00000  Uiso   1.00
O904   O     0.27512   0.42965   0.75499   0.00000  Uiso   1.00
O905   O     0.30328   0.50730   0.82247   0.00000  Uiso   1.00
O906   O     0.03005   0.49270   0.67753   0.00000  Uiso   1.00
O907   O     0.06431   0.49801   0.81439   0.00000  Uiso   1.00
O908   O     0.26902   0.50199   0.68561   0.00000  Uiso   1.00
Zn909  Zn    0.27033   0.50621   0.75540   0.00000  Uiso   1.00
Zn910  Zn    0.06300   0.49379   0.74461   0.00000  Uiso   1.00
C911   C     0.34779   0.59789   0.74878   0.00000  Uiso   1.00
C912   C     0.64585   0.49575   0.65884   0.00000  Uiso   1.00
C913   C     0.36387   0.50695   0.89430   0.00000  Uiso   1.00
C914   C     0.63467   0.48717   0.60594   0.00000  Uiso   1.00
C915   C     0.34782   0.54589   0.97576   0.00000  Uiso   1.00
C916   C     0.64265   0.43427   0.52924   0.00000  Uiso   1.00
C917   C     0.66352   0.53529   0.92636   0.00000  Uiso   1.00
C918   C     0.66394   0.45154   0.57667   0.00000  Uiso   1.00
C919   C     0.41213   0.48568   0.91224   0.00000  Uiso   1.00
C920   C     0.58643   0.50751   0.58700   0.00000  Uiso   1.00
C921   C     0.43155   0.49659   0.96131   0.00000  Uiso   1.00
C922   C     0.65219   0.40209   0.75141   0.00000  Uiso   1.00
C923   C     0.56086   0.48664   0.54183   0.00000  Uiso   1.00
C924   C     0.39927   0.52849   0.99296   0.00000  Uiso   1.00
C925   C     0.59062   0.45051   0.51212   0.00000  Uiso   1.00
C926   C     0.48402   0.47978   0.97859   0.00000  Uiso   1.00
C927   C     0.50611   0.49962   0.52623   0.00000  Uiso   1.00
C928   C     0.35475   0.65630   0.65190   0.00000  Uiso   1.00
C929   C     0.64320   0.34077   0.84778   0.00000  Uiso   1.00
C930   C     0.46421   0.43188   0.66208   0.00000  Uiso   1.00
C931   C     0.52258   0.56423   0.83946   0.00000  Uiso   1.00
C932   C     0.47199   0.53031   0.55726   0.00000  Uiso   1.00
C933   C     0.51519   0.44401   0.94978   0.00000  Uiso   1.00
C934   C     0.41932   0.54381   0.54096   0.00000  Uiso   1.00
C935   C     0.56747   0.42984   0.96637   0.00000  Uiso   1.00
C936   C     0.35172   0.65064   0.73937   0.00000  Uiso   1.00
C937   C     0.64807   0.34924   0.76075   0.00000  Uiso   1.00
C938   C     0.35404   0.50373   0.84117   0.00000  Uiso   1.00
H939   H     0.39470   0.56747   0.56582   0.00000  Uiso   1.00
H940   H     0.49969   0.42449   0.91477   0.00000  Uiso   1.00
H941   H     0.42349   0.64845   0.69921   0.00000  Uiso   1.00
H942   H     0.38282   0.33503   0.62310   0.00000  Uiso   1.00
H943   H     0.65066   0.34679   0.65142   0.00000  Uiso   1.00
H944   H     0.34109   0.61427   0.64298   0.00000  Uiso   1.00
H945   H     0.57568   0.35179   0.80026   0.00000  Uiso   1.00
H946   H     0.61440   0.66108   0.87565   0.00000  Uiso   1.00
H947   H     0.65738   0.38244   0.85831   0.00000  Uiso   1.00
H948   H     0.34689   0.64975   0.84782   0.00000  Uiso   1.00
H949   H     0.53798   0.44056   0.70316   0.00000  Uiso   1.00
H950   H     0.58960   0.40195   0.94343   0.00000  Uiso   1.00
H951   H     0.48217   0.39935   0.63945   0.00000  Uiso   1.00
H952   H     0.46563   0.46699   0.64144   0.00000  Uiso   1.00
H953   H     0.42036   0.41938   0.66841   0.00000  Uiso   1.00
H954   H     0.50604   0.59072   0.77162   0.00000  Uiso   1.00
H955   H     0.50011   0.59507   0.86029   0.00000  Uiso   1.00
H956   H     0.56805   0.57660   0.84088   0.00000  Uiso   1.00
H957   H     0.51631   0.52731   0.85708   0.00000  Uiso   1.00
H958   H     0.56830   0.53790   0.60984   0.00000  Uiso   1.00
H959   H     0.43601   0.46378   0.88596   0.00000  Uiso   1.00
H960   H     0.36824   0.43544   0.59099   0.00000  Uiso   1.00
H961   H     0.62551   0.55150   0.91287   0.00000  Uiso   1.00
H962   H     0.65584   0.56947   0.50003   0.00000  Uiso   1.00
H963   H     0.66545   0.40644   0.50686   0.00000  Uiso   1.00
H964   H     0.48397   0.54384   0.59496   0.00000  Uiso   1.00
N965   N     0.48029   0.48550   0.73740   0.00000  Uiso   1.00
N966   N     0.51971   0.51450   0.76261   0.00000  Uiso   1.00
N967   N     0.38477   0.66448   0.69960   0.00000  Uiso   1.00
N968   N     0.61394   0.33491   0.79975   0.00000  Uiso   1.00
N969   N     0.49636   0.44266   0.70823   0.00000  Uiso   1.00
N970   N     0.50039   0.55720   0.78915   0.00000  Uiso   1.00
O971   O     0.63052   0.57964   0.75310   0.00000  Uiso   1.00
O972   O     0.36948   0.42036   0.74691   0.00000  Uiso   1.00
O973   O     0.39155   0.57035   0.74502   0.00000  Uiso   1.00
O974   O     0.60845   0.42965   0.75499   0.00000  Uiso   1.00
O975   O     0.63662   0.50730   0.82247   0.00000  Uiso   1.00
O976   O     0.36338   0.49270   0.67753   0.00000  Uiso   1.00
O977   O     0.39764   0.49801   0.81439   0.00000  Uiso   1.00
O978   O     0.60236   0.50199   0.68561   0.00000  Uiso   1.00
Zn979  Zn    0.60366   0.50621   0.75540   0.00000  Uiso   1.00
Zn980  Zn    0.39634   0.49379   0.74461   0.00000  Uiso   1.00
C981   C     0.68113   0.59789   0.74878   0.00000  Uiso   1.00
C982   C     0.97918   0.49575   0.65884   0.00000  Uiso   1.00
C983   C     0.69720   0.50695   0.89430   0.00000  Uiso   1.00
C984   C     0.96800   0.48717   0.60594   0.00000  Uiso   1.00
C985   C     0.68116   0.54589   0.97576   0.00000  Uiso   1.00
C986   C     0.97599   0.43427   0.52924   0.00000  Uiso   1.00
C987   C     0.99686   0.53529   0.92636   0.00000  Uiso   1.00
C988   C     0.99728   0.45154   0.57667   0.00000  Uiso   1.00
C989   C     0.74546   0.48568   0.91224   0.00000  Uiso   1.00
C990   C     0.91976   0.50751   0.58700   0.00000  Uiso   1.00
C991   C     0.76488   0.49659   0.96131   0.00000  Uiso   1.00
C992   C     0.98553   0.40209   0.75141   0.00000  Uiso   1.00
C993   C     0.89419   0.48664   0.54183   0.00000  Uiso   1.00
C994   C     0.73260   0.52849   0.99296   0.00000  Uiso   1.00
C995   C     0.92395   0.45051   0.51212   0.00000  Uiso   1.00
C996   C     0.81735   0.47978   0.97859   0.00000  Uiso   1.00
C997   C     0.83945   0.49962   0.52623   0.00000  Uiso   1.00
C998   C     0.68809   0.65630   0.65190   0.00000  Uiso   1.00
C999   C     0.97654   0.34077   0.84778   0.00000  Uiso   1.00
C1000  C     0.79755   0.43188   0.66208   0.00000  Uiso   1.00
C1001  C     0.85592   0.56423   0.83946   0.00000  Uiso   1.00
C1002  C     0.80532   0.53031   0.55726   0.00000  Uiso   1.00
C1003  C     0.84852   0.44401   0.94978   0.00000  Uiso   1.00
C1004  C     0.75265   0.54381   0.54096   0.00000  Uiso   1.00
C1005  C     0.90080   0.42984   0.96637   0.00000  Uiso   1.00
C1006  C     0.68506   0.65064   0.73937   0.00000  Uiso   1.00
C1007  C     0.98140   0.34924   0.76075   0.00000  Uiso   1.00
C1008  C     0.68738   0.50373   0.84117   0.00000  Uiso   1.00
H1009  H     0.72803   0.56747   0.56582   0.00000  Uiso   1.00
H1010  H     0.83302   0.42449   0.91477   0.00000  Uiso   1.00
H1011  H     0.75682   0.64845   0.69921   0.00000  Uiso   1.00
H1012  H     0.71616   0.33503   0.62310   0.00000  Uiso   1.00
H1013  H     0.98399   0.34679   0.65142   0.00000  Uiso   1.00
H1014  H     0.67443   0.61427   0.64298   0.00000  Uiso   1.00
H1015  H     0.90902   0.35179   0.80026   0.00000  Uiso   1.00
H1016  H     0.94773   0.66108   0.87565   0.00000  Uiso   1.00
H1017  H     0.99071   0.38244   0.85831   0.00000  Uiso   1.00
H1018  H     0.68023   0.64975   0.84782   0.00000  Uiso   1.00
H1019  H     0.87132   0.44056   0.70316   0.00000  Uiso   1.00
H1020  H     0.92294   0.40195   0.94343   0.00000  Uiso   1.00
H1021  H     0.81550   0.39935   0.63945   0.00000  Uiso   1.00
H1022  H     0.79896   0.46699   0.64144   0.00000  Uiso   1.00
H1023  H     0.75370   0.41938   0.66841   0.00000  Uiso   1.00
H1024  H     0.83938   0.59072   0.77162   0.00000  Uiso   1.00
H1025  H     0.83344   0.59507   0.86029   0.00000  Uiso   1.00
H1026  H     0.90138   0.57660   0.84088   0.00000  Uiso   1.00
H1027  H     0.84964   0.52731   0.85708   0.00000  Uiso   1.00
H1028  H     0.90163   0.53790   0.60984   0.00000  Uiso   1.00
H1029  H     0.76934   0.46378   0.88596   0.00000  Uiso   1.00
H1030  H     0.70158   0.43544   0.59099   0.00000  Uiso   1.00
H1031  H     0.95884   0.55150   0.91287   0.00000  Uiso   1.00
H1032  H     0.98917   0.56947   0.50003   0.00000  Uiso   1.00
H1033  H     0.99878   0.40644   0.50686   0.00000  Uiso   1.00
H1034  H     0.81730   0.54384   0.59496   0.00000  Uiso   1.00
N1035  N     0.81362   0.48550   0.73740   0.00000  Uiso   1.00
N1036  N     0.85305   0.51450   0.76261   0.00000  Uiso   1.00
N1037  N     0.71810   0.66448   0.69960   0.00000  Uiso   1.00
N1038  N     0.94727   0.33491   0.79975   0.00000  Uiso   1.00
N1039  N     0.82969   0.44266   0.70823   0.00000  Uiso   1.00
N1040  N     0.83372   0.55720   0.78915   0.00000  Uiso   1.00
O1041  O     0.96386   0.57964   0.75310   0.00000  Uiso   1.00
O1042  O     0.70281   0.42036   0.74691   0.00000  Uiso   1.00
O1043  O     0.72488   0.57035   0.74502   0.00000  Uiso   1.00
O1044  O     0.94178   0.42965   0.75499   0.00000  Uiso   1.00
O1045  O     0.96995   0.50730   0.82247   0.00000  Uiso   1.00
O1046  O     0.69672   0.49270   0.67753   0.00000  Uiso   1.00
O1047  O     0.73098   0.49801   0.81439   0.00000  Uiso   1.00
O1048  O     0.93569   0.50199   0.68561   0.00000  Uiso   1.00
Zn1049 Zn    0.93700   0.50621   0.75540   0.00000  Uiso   1.00
Zn1050 Zn    0.72967   0.49379   0.74461   0.00000  Uiso   1.00
C1051  C     0.01446   0.93123   0.74878   0.00000  Uiso   1.00
C1052  C     0.31252   0.82908   0.65884   0.00000  Uiso   1.00
C1053  C     0.03054   0.84028   0.89430   0.00000  Uiso   1.00
C1054  C     0.30134   0.82050   0.60594   0.00000  Uiso   1.00
C1055  C     0.01449   0.87923   0.97576   0.00000  Uiso   1.00
C1056  C     0.30932   0.76760   0.52924   0.00000  Uiso   1.00
C1057  C     0.33019   0.86862   0.92636   0.00000  Uiso   1.00
C1058  C     0.33061   0.78487   0.57667   0.00000  Uiso   1.00
C1059  C     0.07879   0.81901   0.91224   0.00000  Uiso   1.00
C1060  C     0.25310   0.84084   0.58700   0.00000  Uiso   1.00
C1061  C     0.09821   0.82993   0.96131   0.00000  Uiso   1.00
C1062  C     0.31886   0.73542   0.75141   0.00000  Uiso   1.00
C1063  C     0.22752   0.81998   0.54183   0.00000  Uiso   1.00
C1064  C     0.06594   0.86182   0.99296   0.00000  Uiso   1.00
C1065  C     0.25728   0.78384   0.51212   0.00000  Uiso   1.00
C1066  C     0.15069   0.81311   0.97859   0.00000  Uiso   1.00
C1067  C     0.17278   0.83296   0.52623   0.00000  Uiso   1.00
C1068  C     0.02142   0.98963   0.65190   0.00000  Uiso   1.00
C1069  C     0.30987   0.67410   0.84778   0.00000  Uiso   1.00
C1070  C     0.13088   0.76521   0.66208   0.00000  Uiso   1.00
C1071  C     0.18925   0.89757   0.83946   0.00000  Uiso   1.00
C1072  C     0.13866   0.86364   0.55726   0.00000  Uiso   1.00
C1073  C     0.18185   0.77734   0.94978   0.00000  Uiso   1.00
C1074  C     0.08598   0.87714   0.54096   0.00000  Uiso   1.00
C1075  C     0.23414   0.76317   0.96637   0.00000  Uiso   1.00
C1076  C     0.01839   0.98397   0.73937   0.00000  Uiso   1.00
C1077  C     0.31473   0.68257   0.76075   0.00000  Uiso   1.00
C1078  C     0.02071   0.83706   0.84117   0.00000  Uiso   1.00
H1079  H     0.06136   0.90080   0.56582   0.00000  Uiso   1.00
H1080  H     0.16636   0.75783   0.91477   0.00000  Uiso   1.00
H1081  H     0.09015   0.98178   0.69921   0.00000  Uiso   1.00
H1082  H     0.04949   0.66836   0.62310   0.00000  Uiso   1.00
H1083  H     0.31732   0.68012   0.65142   0.00000  Uiso   1.00
H1084  H     0.00776   0.94760   0.64298   0.00000  Uiso   1.00
H1085  H     0.24235   0.68512   0.80026   0.00000  Uiso   1.00
H1086  H     0.28106   0.99442   0.87565   0.00000  Uiso   1.00
H1087  H     0.32405   0.71577   0.85831   0.00000  Uiso   1.00
H1088  H     0.01356   0.98308   0.84782   0.00000  Uiso   1.00
H1089  H     0.20465   0.77389   0.70316   0.00000  Uiso   1.00
H1090  H     0.25627   0.73528   0.94343   0.00000  Uiso   1.00
H1091  H     0.14884   0.73268   0.63945   0.00000  Uiso   1.00
H1092  H     0.13229   0.80032   0.64144   0.00000  Uiso   1.00
H1093  H     0.08703   0.75271   0.66841   0.00000  Uiso   1.00
H1094  H     0.17271   0.92406   0.77162   0.00000  Uiso   1.00
H1095  H     0.16677   0.92840   0.86029   0.00000  Uiso   1.00
H1096  H     0.23471   0.90993   0.84088   0.00000  Uiso   1.00
H1097  H     0.18297   0.86064   0.85708   0.00000  Uiso   1.00
H1098  H     0.23497   0.87124   0.60984   0.00000  Uiso   1.00
H1099  H     0.10268   0.79711   0.88596   0.00000  Uiso   1.00
H1100  H     0.03491   0.76877   0.59099   0.00000  Uiso   1.00
H1101  H     0.29218   0.88483   0.91287   0.00000  Uiso   1.00
H1102  H     0.32250   0.90280   0.50003   0.00000  Uiso   1.00
H1103  H     0.33211   0.73978   0.50686   0.00000  Uiso   1.00
H1104  H     0.15063   0.87717   0.59496   0.00000  Uiso   1.00
N1105  N     0.14695   0.81883   0.73740   0.00000  Uiso   1.00
N1106  N     0.18638   0.84784   0.76261   0.00000  Uiso   1.00
N1107  N     0.05143   0.99781   0.69960   0.00000  Uiso   1.00
N1108  N     0.28060   0.66824   0.79975   0.00000  Uiso   1.00
N1109  N     0.16302   0.77600   0.70823   0.00000  Uiso   1.00
N1110  N     0.16705   0.89054   0.78915   0.00000  Uiso   1.00
O1111  O     0.29719   0.91298   0.75310   0.00000  Uiso   1.00
O1112  O     0.03614   0.75369   0.74691   0.00000  Uiso   1.00
O1113  O     0.05822   0.90368   0.74502   0.00000  Uiso   1.00
O1114  O     0.27512   0.76298   0.75499   0.00000  Uiso   1.00
O1115  O     0.30328   0.84063   0.82247   0.00000  Uiso   1.00
O1116  O     0.03005   0.82603   0.67753   0.00000  Uiso   1.00
O1117  O     0.06431   0.83134   0.81439   0.00000  Uiso   1.00
O1118  O     0.26902   0.83533   0.68561   0.00000  Uiso   1.00
Zn1119 Zn    0.27033   0.83954   0.75540   0.00000  Uiso   1.00
Zn1120 Zn    0.06300   0.82713   0.74461   0.00000  Uiso   1.00
C1121  C     0.34779   0.93123   0.74878   0.00000  Uiso   1.00
C1122  C     0.64585   0.82908   0.65884   0.00000  Uiso   1.00
C1123  C     0.36387   0.84028   0.89430   0.00000  Uiso   1.00
C1124  C     0.63467   0.82050   0.60594   0.00000  Uiso   1.00
C1125  C     0.34782   0.87923   0.97576   0.00000  Uiso   1.00
C1126  C     0.64265   0.76760   0.52924   0.00000  Uiso   1.00
C1127  C     0.66352   0.86862   0.92636   0.00000  Uiso   1.00
C1128  C     0.66394   0.78487   0.57667   0.00000  Uiso   1.00
C1129  C     0.41213   0.81901   0.91224   0.00000  Uiso   1.00
C1130  C     0.58643   0.84084   0.58700   0.00000  Uiso   1.00
C1131  C     0.43155   0.82993   0.96131   0.00000  Uiso   1.00
C1132  C     0.65219   0.73542   0.75141   0.00000  Uiso   1.00
C1133  C     0.56086   0.81998   0.54183   0.00000  Uiso   1.00
C1134  C     0.39927   0.86182   0.99296   0.00000  Uiso   1.00
C1135  C     0.59062   0.78384   0.51212   0.00000  Uiso   1.00
C1136  C     0.48402   0.81311   0.97859   0.00000  Uiso   1.00
C1137  C     0.50611   0.83296   0.52623   0.00000  Uiso   1.00
C1138  C     0.35475   0.98963   0.65190   0.00000  Uiso   1.00
C1139  C     0.64320   0.67410   0.84778   0.00000  Uiso   1.00
C1140  C     0.46421   0.76521   0.66208   0.00000  Uiso   1.00
C1141  C     0.52258   0.89757   0.83946   0.00000  Uiso   1.00
C1142  C     0.47199   0.86364   0.55726   0.00000  Uiso   1.00
C1143  C     0.51519   0.77734   0.94978   0.00000  Uiso   1.00
C1144  C     0.41932   0.87714   0.54096   0.00000  Uiso   1.00
C1145  C     0.56747   0.76317   0.96637   0.00000  Uiso   1.00
C1146  C     0.35172   0.98397   0.73937   0.00000  Uiso   1.00
C1147  C     0.64807   0.68257   0.76075   0.00000  Uiso   1.00
C1148  C     0.35404   0.83706   0.84117   0.00000  Uiso   1.00
H1149  H     0.39470   0.90080   0.56582   0.00000  Uiso   1.00
H1150  H     0.49969   0.75783   0.91477   0.00000  Uiso   1.00
H1151  H     0.42349   0.98178   0.69921   0.00000  Uiso   1.00
H1152  H     0.38282   0.66836   0.62310   0.00000  Uiso   1.00
H1153  H     0.65066   0.68012   0.65142   0.00000  Uiso   1.00
H1154  H     0.34109   0.94760   0.64298   0.00000  Uiso   1.00
H1155  H     0.57568   0.68512   0.80026   0.00000  Uiso   1.00
H1156  H     0.61440   0.99442   0.87565   0.00000  Uiso   1.00
H1157  H     0.65738   0.71577   0.85831   0.00000  Uiso   1.00
H1158  H     0.34689   0.98308   0.84782   0.00000  Uiso   1.00
H1159  H     0.53798   0.77389   0.70316   0.00000  Uiso   1.00
H1160  H     0.58960   0.73528   0.94343   0.00000  Uiso   1.00
H1161  H     0.48217   0.73268   0.63945   0.00000  Uiso   1.00
H1162  H     0.46563   0.80032   0.64144   0.00000  Uiso   1.00
H1163  H     0.42036   0.75271   0.66841   0.00000  Uiso   1.00
H1164  H     0.50604   0.92406   0.77162   0.00000  Uiso   1.00
H1165  H     0.50011   0.92840   0.86029   0.00000  Uiso   1.00
H1166  H     0.56805   0.90993   0.84088   0.00000  Uiso   1.00
H1167  H     0.51631   0.86064   0.85708   0.00000  Uiso   1.00
H1168  H     0.56830   0.87124   0.60984   0.00000  Uiso   1.00
H1169  H     0.43601   0.79711   0.88596   0.00000  Uiso   1.00
H1170  H     0.36824   0.76877   0.59099   0.00000  Uiso   1.00
H1171  H     0.62551   0.88483   0.91287   0.00000  Uiso   1.00
H1172  H     0.65584   0.90280   0.50003   0.00000  Uiso   1.00
H1173  H     0.66545   0.73978   0.50686   0.00000  Uiso   1.00
H1174  H     0.48397   0.87717   0.59496   0.00000  Uiso   1.00
N1175  N     0.48029   0.81883   0.73740   0.00000  Uiso   1.00
N1176  N     0.51971   0.84784   0.76261   0.00000  Uiso   1.00
N1177  N     0.38477   0.99781   0.69960   0.00000  Uiso   1.00
N1178  N     0.61394   0.66824   0.79975   0.00000  Uiso   1.00
N1179  N     0.49636   0.77600   0.70823   0.00000  Uiso   1.00
N1180  N     0.50039   0.89054   0.78915   0.00000  Uiso   1.00
O1181  O     0.63052   0.91298   0.75310   0.00000  Uiso   1.00
O1182  O     0.36948   0.75369   0.74691   0.00000  Uiso   1.00
O1183  O     0.39155   0.90368   0.74502   0.00000  Uiso   1.00
O1184  O     0.60845   0.76298   0.75499   0.00000  Uiso   1.00
O1185  O     0.63662   0.84063   0.82247   0.00000  Uiso   1.00
O1186  O     0.36338   0.82603   0.67753   0.00000  Uiso   1.00
O1187  O     0.39764   0.83134   0.81439   0.00000  Uiso   1.00
O1188  O     0.60236   0.83533   0.68561   0.00000  Uiso   1.00
Zn1189 Zn    0.60366   0.83954   0.75540   0.00000  Uiso   1.00
Zn1190 Zn    0.39634   0.82713   0.74461   0.00000  Uiso   1.00
C1191  C     0.68113   0.93123   0.74878   0.00000  Uiso   1.00
C1192  C     0.97918   0.82908   0.65884   0.00000  Uiso   1.00
C1193  C     0.69720   0.84028   0.89430   0.00000  Uiso   1.00
C1194  C     0.96800   0.82050   0.60594   0.00000  Uiso   1.00
C1195  C     0.68116   0.87923   0.97576   0.00000  Uiso   1.00
C1196  C     0.97599   0.76760   0.52924   0.00000  Uiso   1.00
C1197  C     0.99686   0.86862   0.92636   0.00000  Uiso   1.00
C1198  C     0.99728   0.78487   0.57667   0.00000  Uiso   1.00
C1199  C     0.74546   0.81901   0.91224   0.00000  Uiso   1.00
C1200  C     0.91976   0.84084   0.58700   0.00000  Uiso   1.00
C1201  C     0.76488   0.82993   0.96131   0.00000  Uiso   1.00
C1202  C     0.98553   0.73542   0.75141   0.00000  Uiso   1.00
C1203  C     0.89419   0.81998   0.54183   0.00000  Uiso   1.00
C1204  C     0.73260   0.86182   0.99296   0.00000  Uiso   1.00
C1205  C     0.92395   0.78384   0.51212   0.00000  Uiso   1.00
C1206  C     0.81735   0.81311   0.97859   0.00000  Uiso   1.00
C1207  C     0.83945   0.83296   0.52623   0.00000  Uiso   1.00
C1208  C     0.68809   0.98963   0.65190   0.00000  Uiso   1.00
C1209  C     0.97654   0.67410   0.84778   0.00000  Uiso   1.00
C1210  C     0.79755   0.76521   0.66208   0.00000  Uiso   1.00
C1211  C     0.85592   0.89757   0.83946   0.00000  Uiso   1.00
C1212  C     0.80532   0.86364   0.55726   0.00000  Uiso   1.00
C1213  C     0.84852   0.77734   0.94978   0.00000  Uiso   1.00
C1214  C     0.75265   0.87714   0.54096   0.00000  Uiso   1.00
C1215  C     0.90080   0.76317   0.96637   0.00000  Uiso   1.00
C1216  C     0.68506   0.98397   0.73937   0.00000  Uiso   1.00
C1217  C     0.98140   0.68257   0.76075   0.00000  Uiso   1.00
C1218  C     0.68738   0.83706   0.84117   0.00000  Uiso   1.00
H1219  H     0.72803   0.90080   0.56582   0.00000  Uiso   1.00
H1220  H     0.83302   0.75783   0.91477   0.00000  Uiso   1.00
H1221  H     0.75682   0.98178   0.69921   0.00000  Uiso   1.00
H1222  H     0.71616   0.66836   0.62310   0.00000  Uiso   1.00
H1223  H     0.98399   0.68012   0.65142   0.00000  Uiso   1.00
H1224  H     0.67443   0.94760   0.64298   0.00000  Uiso   1.00
H1225  H     0.90902   0.68512   0.80026   0.00000  Uiso   1.00
H1226  H     0.94773   0.99442   0.87565   0.00000  Uiso   1.00
H1227  H     0.99071   0.71577   0.85831   0.00000  Uiso   1.00
H1228  H     0.68023   0.98308   0.84782   0.00000  Uiso   1.00
H1229  H     0.87132   0.77389   0.70316   0.00000  Uiso   1.00
H1230  H     0.92294   0.73528   0.94343   0.00000  Uiso   1.00
H1231  H     0.81550   0.73268   0.63945   0.00000  Uiso   1.00
H1232  H     0.79896   0.80032   0.64144   0.00000  Uiso   1.00
H1233  H     0.75370   0.75271   0.66841   0.00000  Uiso   1.00
H1234  H     0.83938   0.92406   0.77162   0.00000  Uiso   1.00
H1235  H     0.83344   0.92840   0.86029   0.00000  Uiso   1.00
H1236  H     0.90138   0.90993   0.84088   0.00000  Uiso   1.00
H1237  H     0.84964   0.86064   0.85708   0.00000  Uiso   1.00
H1238  H     0.90163   0.87124   0.60984   0.00000  Uiso   1.00
H1239  H     0.76934   0.79711   0.88596   0.00000  Uiso   1.00
H1240  H     0.70158   0.76877   0.59099   0.00000  Uiso   1.00
H1241  H     0.95884   0.88483   0.91287   0.00000  Uiso   1.00
H1242  H     0.98917   0.90280   0.50003   0.00000  Uiso   1.00
H1243  H     0.99878   0.73978   0.50686   0.00000  Uiso   1.00
H1244  H     0.81730   0.87717   0.59496   0.00000  Uiso   1.00
N1245  N     0.81362   0.81883   0.73740   0.00000  Uiso   1.00
N1246  N     0.85305   0.84784   0.76261   0.00000  Uiso   1.00
N1247  N     0.71810   0.99781   0.69960   0.00000  Uiso   1.00
N1248  N     0.94727   0.66824   0.79975   0.00000  Uiso   1.00
N1249  N     0.82969   0.77600   0.70823   0.00000  Uiso   1.00
N1250  N     0.83372   0.89054   0.78915   0.00000  Uiso   1.00
O1251  O     0.96386   0.91298   0.75310   0.00000  Uiso   1.00
O1252  O     0.70281   0.75369   0.74691   0.00000  Uiso   1.00
O1253  O     0.72488   0.90368   0.74502   0.00000  Uiso   1.00
O1254  O     0.94178   0.76298   0.75499   0.00000  Uiso   1.00
O1255  O     0.96995   0.84063   0.82247   0.00000  Uiso   1.00
O1256  O     0.69672   0.82603   0.67753   0.00000  Uiso   1.00
O1257  O     0.73098   0.83134   0.81439   0.00000  Uiso   1.00
O1258  O     0.93569   0.83533   0.68561   0.00000  Uiso   1.00
Zn1259 Zn    0.93700   0.83954   0.75540   0.00000  Uiso   1.00
Zn1260 Zn    0.72967   0.82713   0.74461   0.00000  Uiso   1.00
loop_
_geom_bond_atom_site_label_1
_geom_bond_atom_site_label_2
_geom_bond_distance
_geom_bond_site_symmetry_2
_ccdc_geom_bond_type
C1     O63     1.296   .     A
C1     C26     1.404   .     S
C1     O201    1.281   1_455 S
C2     C4      1.452   .     S
C2     O68     1.304   .     A
C2     O136    1.301   .     S
C3     C9      1.390   .     A
C3     C28     1.454   .     S
C3     C147    1.398   1_455 S
C4     C8      1.398   .     A
C4     C10     1.388   .     A
C5     C14     1.404   .     A
C5     C147    1.392   1_455 S
C5     H822    1.084   1_455 S
C6     H53     1.084   .     S
C6     C8      1.392   .     A
C6     C15     1.404   .     A
C7     H51     1.082   .     S
C7     C73     1.398   .     S
C7     C75     1.392   .     S
C8     H120    1.081   .     S
C9     C11     1.396   .     A
C9     H49     1.075   .     S
C10    H48     1.077   .     S
C10    C13     1.396   .     A
C11    C16     1.420   .     A
C11    C14     1.419   .     A
C12    O64     1.296   .     A
C12    C27     1.406   .     S
C12    O132    1.282   .     S
C13    C17     1.420   .     A
C13    C15     1.419   .     A
C14    C654    1.388   .     S
C15    C655    1.388   1_554 S
C16    C23     1.419   .     A
C16    C647    1.418   .     S
C17    C22     1.419   .     A
C17    C646    1.418   1_554 S
C18    N57     1.449   .     S
C18    H34     1.112   .     S
C18    H242    1.110   .     S
C18    H383    1.111   1_455 S
C19    N58     1.448   .     S
C19    H37     1.112   .     S
C19    H456    1.110   1_545 S
C19    H528    1.111   1_545 S
C20    H42     1.110   .     S
C20    N59     1.440   .     S
C20    H41     1.111   .     S
C20    H43     1.100   .     S
C21    N60     1.441   .     S
C21    H46     1.107   .     S
C21    H47     1.111   .     S
C21    H45     1.110   .     S
C22    C24     1.385   .     A
C22    H54     1.076   .     S
C23    C25     1.385   .     A
C23    H30     1.076   .     S
C24    H29     1.084   .     S
C24    C644    1.388   1_554 S
C25    H40     1.084   .     S
C25    C645    1.388   .     S
C26    N57     1.431   .     S
C26    C377    1.354   1_455 S
C27    N58     1.432   .     S
C27    C516    1.354   1_545 S
C28    O67     1.304   .     A
C28    O205    1.301   1_455 S
H31    N57     1.032   .     S
H32    C438    1.110   1_545 S
H33    C508    1.111   1_545 S
H35    N58     1.032   .     S
H36    C229    1.110   .     S
H38    C369    1.111   1_455 S
H39    N59     1.010   .     S
H44    N60     1.031   .     S
H50    C148    1.081   1_455 S
H52    C705    1.084   1_554 S
N55    N56     1.293   .     D
N55    N59     1.381   .     S
N55    Zn70    2.038   .     S
N56    Zn69    2.038   .     S
N56    N60     1.373   .     S
O61    Zn69    1.967   .     S
O61    C71     1.281   .     S
O62    Zn70    1.967   .     S
O62    C152    1.282   1_455 S
O63    Zn70    1.980   .     S
O64    Zn69    1.980   .     S
O65    Zn69    1.958   .     S
O65    C98     1.301   .     S
O66    Zn70    1.958   .     S
O66    C142    1.301   1_455 S
O67    Zn70    1.899   .     S
O68    Zn69    1.899   .     S
C71    O133    1.296   .     A
C71    C96     1.404   .     S
C72    C74     1.452   .     S
C72    O138    1.304   .     A
C72    O206    1.301   .     S
C73    C79     1.390   .     A
C73    C98     1.454   .     S
C74    C78     1.398   .     A
C74    C80     1.388   .     A
C75    C84     1.404   .     A
C75    H682    1.084   .     S
C76    H123    1.084   .     S
C76    C78     1.392   .     A
C76    C85     1.404   .     A
C77    H121    1.082   .     S
C77    C143    1.398   .     S
C77    C145    1.392   .     S
C78    H190    1.081   .     S
C79    C81     1.396   .     A
C79    H119    1.075   .     S
C80    H118    1.077   .     S
C80    C83     1.396   .     A
C81    C86     1.420   .     A
C81    C84     1.419   .     A
C82    O134    1.296   .     A
C82    C97     1.406   .     S
C82    O202    1.282   .     S
C83    C87     1.420   .     A
C83    C85     1.419   .     A
C84    C724    1.388   .     S
C85    C725    1.388   1_554 S
C86    C93     1.419   .     A
C86    C717    1.418   .     S
C87    C92     1.419   .     A
C87    C716    1.418   1_554 S
C88    N127    1.449   .     S
C88    H104    1.112   .     S
C88    H312    1.110   .     S
C88    H243    1.111   .     S
C89    N128    1.448   .     S
C89    H107    1.112   .     S
C89    H526    1.110   1_545 S
C89    H598    1.111   1_545 S
C90    H112    1.110   .     S
C90    N129    1.440   .     S
C90    H111    1.111   .     S
C90    H113    1.100   .     S
C91    N130    1.441   .     S
C91    H116    1.107   .     S
C91    H117    1.111   .     S
C91    H115    1.110   .     S
C92    C94     1.385   .     A
C92    H124    1.076   .     S
C93    C95     1.385   .     A
C93    H100    1.076   .     S
C94    H99     1.084   .     S
C94    C714    1.388   1_554 S
C95    H110    1.084   .     S
C95    C715    1.388   .     S
C96    N127    1.431   .     S
C96    C237    1.354   .     S
C97    N128    1.432   .     S
C97    C586    1.354   1_545 S
C98    O137    1.304   .     A
H101   N127    1.032   .     S
H102   C508    1.110   1_545 S
H103   C578    1.111   1_545 S
H105   N128    1.032   .     S
H106   C299    1.110   .     S
H108   C229    1.111   .     S
H109   N129    1.010   .     S
H114   N130    1.031   .     S
H122   C775    1.084   1_554 S
N125   N126    1.293   .     D
N125   N129    1.381   .     S
N125   Zn140   2.038   .     S
N126   Zn139   2.038   .     S
N126   N130    1.373   .     S
O131   Zn139   1.967   .     S
O131   C141    1.281   .     S
O132   Zn140   1.967   .     S
O133   Zn140   1.980   .     S
O134   Zn139   1.980   .     S
O135   Zn139   1.958   .     S
O135   C168    1.301   .     S
O136   Zn140   1.958   .     S
O137   Zn140   1.899   .     S
O138   Zn139   1.899   .     S
C141   O203    1.296   .     A
C141   C166    1.404   .     S
C142   C144    1.452   .     S
C142   O208    1.304   .     A
C142   O66     1.301   1_655 S
C143   C149    1.390   .     A
C143   C168    1.454   .     S
C144   C148    1.398   .     A
C144   C150    1.388   .     A
C145   C154    1.404   .     A
C145   H752    1.084   .     S
C146   H193    1.084   .     S
C146   C148    1.392   .     A
C146   C155    1.404   .     A
C147   H191    1.082   .     S
C147   C3      1.398   1_655 S
C147   C5      1.392   1_655 S
C148   H50     1.081   1_655 S
C149   C151    1.396   .     A
C149   H189    1.075   .     S
C150   H188    1.077   .     S
C150   C153    1.396   .     A
C151   C156    1.420   .     A
C151   C154    1.419   .     A
C152   O204    1.296   .     A
C152   C167    1.406   .     S
C152   O62     1.282   1_655 S
C153   C157    1.420   .     A
C153   C155    1.419   .     A
C154   C794    1.388   .     S
C155   C795    1.388   1_554 S
C156   C163    1.419   .     A
C156   C787    1.418   .     S
C157   C162    1.419   .     A
C157   C786    1.418   1_554 S
C158   N197    1.449   .     S
C158   H174    1.112   .     S
C158   H382    1.110   .     S
C158   H313    1.111   .     S
C159   N198    1.448   .     S
C159   H177    1.112   .     S
C159   H596    1.110   1_545 S
C159   H458    1.111   1_645 S
C160   H182    1.110   .     S
C160   N199    1.440   .     S
C160   H181    1.111   .     S
C160   H183    1.100   .     S
C161   N200    1.441   .     S
C161   H186    1.107   .     S
C161   H187    1.111   .     S
C161   H185    1.110   .     S
C162   C164    1.385   .     A
C162   H194    1.076   .     S
C163   C165    1.385   .     A
C163   H170    1.076   .     S
C164   H169    1.084   .     S
C164   C784    1.388   1_554 S
C165   H180    1.084   .     S
C165   C785    1.388   .     S
C166   N197    1.431   .     S
C166   C307    1.354   .     S
C167   N198    1.432   .     S
C167   C446    1.354   1_645 S
C168   O207    1.304   .     A
H171   N197    1.032   .     S
H172   C578    1.110   1_545 S
H173   C438    1.111   1_645 S
H175   N198    1.032   .     S
H176   C369    1.110   .     S
H178   C299    1.111   .     S
H179   N199    1.010   .     S
H184   N200    1.031   .     S
H192   C635    1.084   1_654 S
N195   N196    1.293   .     D
N195   N199    1.381   .     S
N195   Zn210   2.038   .     S
N196   Zn209   2.038   .     S
N196   N200    1.373   .     S
O201   Zn209   1.967   .     S
O201   C1      1.281   1_655 S
O202   Zn210   1.967   .     S
O203   Zn210   1.980   .     S
O204   Zn209   1.980   .     S
O205   Zn209   1.958   .     S
O205   C28     1.301   1_655 S
O206   Zn210   1.958   .     S
O207   Zn210   1.899   .     S
O208   Zn209   1.899   .     S
C211   O273    1.296   .     A
C211   C236    1.404   .     S
C211   O411    1.281   1_455 S
C212   C214    1.452   .     S
C212   O278    1.304   .     A
C212   O346    1.301   .     S
C213   C219    1.390   .     A
C213   C238    1.454   .     S
C213   C357    1.398   1_455 S
C214   C218    1.398   .     A
C214   C220    1.388   .     A
C215   C224    1.404   .     A
C215   C357    1.392   1_455 S
C215   H1032   1.084   1_455 S
C216   H263    1.084   .     S
C216   C218    1.392   .     A
C216   C225    1.404   .     A
C217   H261    1.082   .     S
C217   C283    1.398   .     S
C217   C285    1.392   .     S
C218   H330    1.081   .     S
C219   C221    1.396   .     A
C219   H259    1.075   .     S
C220   H258    1.077   .     S
C220   C223    1.396   .     A
C221   C226    1.420   .     A
C221   C224    1.419   .     A
C222   O274    1.296   .     A
C222   C237    1.406   .     S
C222   O342    1.282   .     S
C223   C227    1.420   .     A
C223   C225    1.419   .     A
C224   C864    1.388   .     S
C225   C865    1.388   1_554 S
C226   C233    1.419   .     A
C226   C857    1.418   .     S
C227   C232    1.419   .     A
C227   C856    1.418   1_554 S
C228   N267    1.449   .     S
C228   H244    1.112   .     S
C228   H452    1.110   .     S
C228   H593    1.111   1_455 S
C229   N268    1.448   .     S
C229   H247    1.112   .     S
C230   H252    1.110   .     S
C230   N269    1.440   .     S
C230   H251    1.111   .     S
C230   H253    1.100   .     S
C231   N270    1.441   .     S
C231   H256    1.107   .     S
C231   H257    1.111   .     S
C231   H255    1.110   .     S
C232   C234    1.385   .     A
C232   H264    1.076   .     S
C233   C235    1.385   .     A
C233   H240    1.076   .     S
C234   H239    1.084   .     S
C234   C854    1.388   1_554 S
C235   H250    1.084   .     S
C235   C855    1.388   .     S
C236   N267    1.431   .     S
C236   C587    1.354   1_455 S
C237   N268    1.432   .     S
C238   O277    1.304   .     A
C238   O415    1.301   1_455 S
H241   N267    1.032   .     S
H245   N268    1.032   .     S
H246   C439    1.110   .     S
H248   C579    1.111   1_455 S
H249   N269    1.010   .     S
H254   N270    1.031   .     S
H260   C358    1.081   1_455 S
H262   C915    1.084   1_554 S
N265   N266    1.293   .     D
N265   N269    1.381   .     S
N265   Zn280   2.038   .     S
N266   Zn279   2.038   .     S
N266   N270    1.373   .     S
O271   Zn279   1.967   .     S
O271   C281    1.281   .     S
O272   Zn280   1.967   .     S
O272   C362    1.282   1_455 S
O273   Zn280   1.980   .     S
O274   Zn279   1.980   .     S
O275   Zn279   1.958   .     S
O275   C308    1.301   .     S
O276   Zn280   1.958   .     S
O276   C352    1.301   1_455 S
O277   Zn280   1.899   .     S
O278   Zn279   1.899   .     S
C281   O343    1.296   .     A
C281   C306    1.404   .     S
C282   C284    1.452   .     S
C282   O348    1.304   .     A
C282   O416    1.301   .     S
C283   C289    1.390   .     A
C283   C308    1.454   .     S
C284   C288    1.398   .     A
C284   C290    1.388   .     A
C285   C294    1.404   .     A
C285   H892    1.084   .     S
C286   H333    1.084   .     S
C286   C288    1.392   .     A
C286   C295    1.404   .     A
C287   H331    1.082   .     S
C287   C353    1.398   .     S
C287   C355    1.392   .     S
C288   H400    1.081   .     S
C289   C291    1.396   .     A
C289   H329    1.075   .     S
C290   H328    1.077   .     S
C290   C293    1.396   .     A
C291   C296    1.420   .     A
C291   C294    1.419   .     A
C292   O344    1.296   .     A
C292   C307    1.406   .     S
C292   O412    1.282   .     S
C293   C297    1.420   .     A
C293   C295    1.419   .     A
C294   C934    1.388   .     S
C295   C935    1.388   1_554 S
C296   C303    1.419   .     A
C296   C927    1.418   .     S
C297   C302    1.419   .     A
C297   C926    1.418   1_554 S
C298   N337    1.449   .     S
C298   H314    1.112   .     S
C298   H522    1.110   .     S
C298   H453    1.111   .     S
C299   N338    1.448   .     S
C299   H317    1.112   .     S
C300   H322    1.110   .     S
C300   N339    1.440   .     S
C300   H321    1.111   .     S
C300   H323    1.100   .     S
C301   N340    1.441   .     S
C301   H326    1.107   .     S
C301   H327    1.111   .     S
C301   H325    1.110   .     S
C302   C304    1.385   .     A
C302   H334    1.076   .     S
C303   C305    1.385   .     A
C303   H310    1.076   .     S
C304   H309    1.084   .     S
C304   C924    1.388   1_554 S
C305   H320    1.084   .     S
C305   C925    1.388   .     S
C306   N337    1.431   .     S
C306   C447    1.354   .     S
C307   N338    1.432   .     S
C308   O347    1.304   .     A
H311   N337    1.032   .     S
H315   N338    1.032   .     S
H316   C509    1.110   .     S
H318   C439    1.111   .     S
H319   N339    1.010   .     S
H324   N340    1.031   .     S
H332   C985    1.084   1_554 S
N335   N336    1.293   .     D
N335   N339    1.381   .     S
N335   Zn350   2.038   .     S
N336   Zn349   2.038   .     S
N336   N340    1.373   .     S
O341   Zn349   1.967   .     S
O341   C351    1.281   .     S
O342   Zn350   1.967   .     S
O343   Zn350   1.980   .     S
O344   Zn349   1.980   .     S
O345   Zn349   1.958   .     S
O345   C378    1.301   .     S
O346   Zn350   1.958   .     S
O347   Zn350   1.899   .     S
O348   Zn349   1.899   .     S
C351   O413    1.296   .     A
C351   C376    1.404   .     S
C352   C354    1.452   .     S
C352   O418    1.304   .     A
C352   O276    1.301   1_655 S
C353   C359    1.390   .     A
C353   C378    1.454   .     S
C354   C358    1.398   .     A
C354   C360    1.388   .     A
C355   C364    1.404   .     A
C355   H962    1.084   .     S
C356   H403    1.084   .     S
C356   C358    1.392   .     A
C356   C365    1.404   .     A
C357   H401    1.082   .     S
C357   C213    1.398   1_655 S
C357   C215    1.392   1_655 S
C358   H260    1.081   1_655 S
C359   C361    1.396   .     A
C359   H399    1.075   .     S
C360   H398    1.077   .     S
C360   C363    1.396   .     A
C361   C366    1.420   .     A
C361   C364    1.419   .     A
C362   O414    1.296   .     A
C362   C377    1.406   .     S
C362   O272    1.282   1_655 S
C363   C367    1.420   .     A
C363   C365    1.419   .     A
C364   C1004   1.388   .     S
C365   C1005   1.388   1_554 S
C366   C373    1.419   .     A
C366   C997    1.418   .     S
C367   C372    1.419   .     A
C367   C996    1.418   1_554 S
C368   N407    1.449   .     S
C368   H384    1.112   .     S
C368   H592    1.110   .     S
C368   H523    1.111   .     S
C369   N408    1.448   .     S
C369   H387    1.112   .     S
C369   H38     1.111   1_655 S
C370   H392    1.110   .     S
C370   N409    1.440   .     S
C370   H391    1.111   .     S
C370   H393    1.100   .     S
C371   N410    1.441   .     S
C371   H396    1.107   .     S
C371   H397    1.111   .     S
C371   H395    1.110   .     S
C372   C374    1.385   .     A
C372   H404    1.076   .     S
C373   C375    1.385   .     A
C373   H380    1.076   .     S
C374   H379    1.084   .     S
C374   C994    1.388   1_554 S
C375   H390    1.084   .     S
C375   C995    1.388   .     S
C376   N407    1.431   .     S
C376   C517    1.354   .     S
C377   N408    1.432   .     S
C377   C26     1.354   1_655 S
C378   O417    1.304   .     A
H381   N407    1.032   .     S
H383   C18     1.111   1_655 S
H385   N408    1.032   .     S
H386   C579    1.110   .     S
H388   C509    1.111   .     S
H389   N409    1.010   .     S
H394   N410    1.031   .     S
H402   C845    1.084   1_654 S
N405   N406    1.293   .     D
N405   N409    1.381   .     S
N405   Zn420   2.038   .     S
N406   Zn419   2.038   .     S
N406   N410    1.373   .     S
O411   Zn419   1.967   .     S
O411   C211    1.281   1_655 S
O412   Zn420   1.967   .     S
O413   Zn420   1.980   .     S
O414   Zn419   1.980   .     S
O415   Zn419   1.958   .     S
O415   C238    1.301   1_655 S
O416   Zn420   1.958   .     S
O417   Zn420   1.899   .     S
O418   Zn419   1.899   .     S
C421   O483    1.296   .     A
C421   C446    1.404   .     S
C421   O621    1.281   1_455 S
C422   C424    1.452   .     S
C422   O488    1.304   .     A
C422   O556    1.301   .     S
C423   C429    1.390   .     A
C423   C448    1.454   .     S
C423   C567    1.398   1_455 S
C424   C428    1.398   .     A
C424   C430    1.388   .     A
C425   C434    1.404   .     A
C425   C567    1.392   1_455 S
C425   H1242   1.084   1_455 S
C426   H473    1.084   .     S
C426   C428    1.392   .     A
C426   C435    1.404   .     A
C427   H471    1.082   .     S
C427   C493    1.398   .     S
C427   C495    1.392   .     S
C428   H540    1.081   .     S
C429   C431    1.396   .     A
C429   H469    1.075   .     S
C430   H468    1.077   .     S
C430   C433    1.396   .     A
C431   C436    1.420   .     A
C431   C434    1.419   .     A
C432   O484    1.296   .     A
C432   C447    1.406   .     S
C432   O552    1.282   .     S
C433   C437    1.420   .     A
C433   C435    1.419   .     A
C434   C1074   1.388   .     S
C435   C1075   1.388   1_554 S
C436   C443    1.419   .     A
C436   C1067   1.418   .     S
C437   C442    1.419   .     A
C437   C1066   1.418   1_554 S
C438   N477    1.449   .     S
C438   H454    1.112   .     S
C438   H32     1.110   1_565 S
C438   H173    1.111   1_465 S
C439   N478    1.448   .     S
C439   H457    1.112   .     S
C440   H462    1.110   .     S
C440   N479    1.440   .     S
C440   H461    1.111   .     S
C440   H463    1.100   .     S
C441   N480    1.441   .     S
C441   H466    1.107   .     S
C441   H467    1.111   .     S
C441   H465    1.110   .     S
C442   C444    1.385   .     A
C442   H474    1.076   .     S
C443   C445    1.385   .     A
C443   H450    1.076   .     S
C444   H449    1.084   .     S
C444   C1064   1.388   1_554 S
C445   H460    1.084   .     S
C445   C1065   1.388   .     S
C446   N477    1.431   .     S
C446   C167    1.354   1_465 S
C447   N478    1.432   .     S
C448   O487    1.304   .     A
C448   O625    1.301   1_455 S
H451   N477    1.032   .     S
H455   N478    1.032   .     S
H456   C19     1.110   1_565 S
H458   C159    1.111   1_465 S
H459   N479    1.010   .     S
H464   N480    1.031   .     S
H470   C568    1.081   1_455 S
H472   C1125   1.084   1_554 S
N475   N476    1.293   .     D
N475   N479    1.381   .     S
N475   Zn490   2.038   .     S
N476   Zn489   2.038   .     S
N476   N480    1.373   .     S
O481   Zn489   1.967   .     S
O481   C491    1.281   .     S
O482   Zn490   1.967   .     S
O482   C572    1.282   1_455 S
O483   Zn490   1.980   .     S
O484   Zn489   1.980   .     S
O485   Zn489   1.958   .     S
O485   C518    1.301   .     S
O486   Zn490   1.958   .     S
O486   C562    1.301   1_455 S
O487   Zn490   1.899   .     S
O488   Zn489   1.899   .     S
C491   O553    1.296   .     A
C491   C516    1.404   .     S
C492   C494    1.452   .     S
C492   O558    1.304   .     A
C492   O626    1.301   .     S
C493   C499    1.390   .     A
C493   C518    1.454   .     S
C494   C498    1.398   .     A
C494   C500    1.388   .     A
C495   C504    1.404   .     A
C495   H1102   1.084   .     S
C496   H543    1.084   .     S
C496   C498    1.392   .     A
C496   C505    1.404   .     A
C497   H541    1.082   .     S
C497   C563    1.398   .     S
C497   C565    1.392   .     S
C498   H610    1.081   .     S
C499   C501    1.396   .     A
C499   H539    1.075   .     S
C500   H538    1.077   .     S
C500   C503    1.396   .     A
C501   C506    1.420   .     A
C501   C504    1.419   .     A
C502   O554    1.296   .     A
C502   C517    1.406   .     S
C502   O622    1.282   .     S
C503   C507    1.420   .     A
C503   C505    1.419   .     A
C504   C1144   1.388   .     S
C505   C1145   1.388   1_554 S
C506   C513    1.419   .     A
C506   C1137   1.418   .     S
C507   C512    1.419   .     A
C507   C1136   1.418   1_554 S
C508   N547    1.449   .     S
C508   H524    1.112   .     S
C508   H102    1.110   1_565 S
C508   H33     1.111   1_565 S
C509   N548    1.448   .     S
C509   H527    1.112   .     S
C510   H532    1.110   .     S
C510   N549    1.440   .     S
C510   H531    1.111   .     S
C510   H533    1.100   .     S
C511   N550    1.441   .     S
C511   H536    1.107   .     S
C511   H537    1.111   .     S
C511   H535    1.110   .     S
C512   C514    1.385   .     A
C512   H544    1.076   .     S
C513   C515    1.385   .     A
C513   H520    1.076   .     S
C514   H519    1.084   .     S
C514   C1134   1.388   1_554 S
C515   H530    1.084   .     S
C515   C1135   1.388   .     S
C516   N547    1.431   .     S
C516   C27     1.354   1_565 S
C517   N548    1.432   .     S
C518   O557    1.304   .     A
H521   N547    1.032   .     S
H525   N548    1.032   .     S
H526   C89     1.110   1_565 S
H528   C19     1.111   1_565 S
H529   N549    1.010   .     S
H534   N550    1.031   .     S
H542   C1195   1.084   1_554 S
N545   N546    1.293   .     D
N545   N549    1.381   .     S
N545   Zn560   2.038   .     S
N546   Zn559   2.038   .     S
N546   N550    1.373   .     S
O551   Zn559   1.967   .     S
O551   C561    1.281   .     S
O552   Zn560   1.967   .     S
O553   Zn560   1.980   .     S
O554   Zn559   1.980   .     S
O555   Zn559   1.958   .     S
O555   C588    1.301   .     S
O556   Zn560   1.958   .     S
O557   Zn560   1.899   .     S
O558   Zn559   1.899   .     S
C561   O623    1.296   .     A
C561   C586    1.404   .     S
C562   C564    1.452   .     S
C562   O628    1.304   .     A
C562   O486    1.301   1_655 S
C563   C569    1.390   .     A
C563   C588    1.454   .     S
C564   C568    1.398   .     A
C564   C570    1.388   .     A
C565   C574    1.404   .     A
C565   H1172   1.084   .     S
C566   H613    1.084   .     S
C566   C568    1.392   .     A
C566   C575    1.404   .     A
C567   H611    1.082   .     S
C567   C423    1.398   1_655 S
C567   C425    1.392   1_655 S
C568   H470    1.081   1_655 S
C569   C571    1.396   .     A
C569   H609    1.075   .     S
C570   H608    1.077   .     S
C570   C573    1.396   .     A
C571   C576    1.420   .     A
C571   C574    1.419   .     A
C572   O624    1.296   .     A
C572   C587    1.406   .     S
C572   O482    1.282   1_655 S
C573   C577    1.420   .     A
C573   C575    1.419   .     A
C574   C1214   1.388   .     S
C575   C1215   1.388   1_554 S
C576   C583    1.419   .     A
C576   C1207   1.418   .     S
C577   C582    1.419   .     A
C577   C1206   1.418   1_554 S
C578   N617    1.449   .     S
C578   H594    1.112   .     S
C578   H172    1.110   1_565 S
C578   H103    1.111   1_565 S
C579   N618    1.448   .     S
C579   H597    1.112   .     S
C579   H248    1.111   1_655 S
C580   H602    1.110   .     S
C580   N619    1.440   .     S
C580   H601    1.111   .     S
C580   H603    1.100   .     S
C581   N620    1.441   .     S
C581   H606    1.107   .     S
C581   H607    1.111   .     S
C581   H605    1.110   .     S
C582   C584    1.385   .     A
C582   H614    1.076   .     S
C583   C585    1.385   .     A
C583   H590    1.076   .     S
C584   H589    1.084   .     S
C584   C1204   1.388   1_554 S
C585   H600    1.084   .     S
C585   C1205   1.388   .     S
C586   N617    1.431   .     S
C586   C97     1.354   1_565 S
C587   N618    1.432   .     S
C587   C236    1.354   1_655 S
C588   O627    1.304   .     A
H591   N617    1.032   .     S
H593   C228    1.111   1_655 S
H595   N618    1.032   .     S
H596   C159    1.110   1_565 S
H598   C89     1.111   1_565 S
H599   N619    1.010   .     S
H604   N620    1.031   .     S
H612   C1055   1.084   1_654 S
N615   N616    1.293   .     D
N615   N619    1.381   .     S
N615   Zn630   2.038   .     S
N616   Zn629   2.038   .     S
N616   N620    1.373   .     S
O621   Zn629   1.967   .     S
O621   C421    1.281   1_655 S
O622   Zn630   1.967   .     S
O623   Zn630   1.980   .     S
O624   Zn629   1.980   .     S
O625   Zn629   1.958   .     S
O625   C448    1.301   1_655 S
O626   Zn630   1.958   .     S
O627   Zn630   1.899   .     S
O628   Zn629   1.899   .     S
C631   O693    1.296   .     A
C631   C656    1.404   .     S
C631   O831    1.281   1_455 S
C632   C634    1.452   .     S
C632   O698    1.304   .     A
C632   O766    1.301   .     S
C633   C639    1.390   .     A
C633   C658    1.454   .     S
C633   C777    1.398   1_455 S
C634   C638    1.398   .     A
C634   C640    1.388   .     A
C635   C644    1.404   .     A
C635   C777    1.392   1_455 S
C635   H192    1.084   1_456 S
C636   H683    1.084   .     S
C636   C638    1.392   .     A
C636   C645    1.404   .     A
C637   H681    1.082   .     S
C637   C703    1.398   .     S
C637   C705    1.392   .     S
C638   H750    1.081   .     S
C639   C641    1.396   .     A
C639   H679    1.075   .     S
C640   H678    1.077   .     S
C640   C643    1.396   .     A
C641   C646    1.420   .     A
C641   C644    1.419   .     A
C642   O694    1.296   .     A
C642   C657    1.406   .     S
C642   O762    1.282   .     S
C643   C647    1.420   .     A
C643   C645    1.419   .     A
C644   C24     1.388   1_556 S
C646   C653    1.419   .     A
C646   C17     1.418   1_556 S
C647   C652    1.419   .     A
C648   N687    1.449   .     S
C648   H664    1.112   .     S
C648   H872    1.110   .     S
C648   H1013   1.111   1_455 S
C649   N688    1.448   .     S
C649   H667    1.112   .     S
C649   H1086   1.110   1_545 S
C649   H1158   1.111   1_545 S
C650   H672    1.110   .     S
C650   N689    1.440   .     S
C650   H671    1.111   .     S
C650   H673    1.100   .     S
C651   N690    1.441   .     S
C651   H676    1.107   .     S
C651   H677    1.111   .     S
C651   H675    1.110   .     S
C652   C654    1.385   .     A
C652   H684    1.076   .     S
C653   C655    1.385   .     A
C653   H660    1.076   .     S
C654   H659    1.084   .     S
C655   H670    1.084   .     S
C655   C15     1.388   1_556 S
C656   N687    1.431   .     S
C656   C1007   1.354   1_455 S
C657   N688    1.432   .     S
C657   C1146   1.354   1_545 S
C658   O697    1.304   .     A
C658   O835    1.301   1_455 S
H661   N687    1.032   .     S
H662   C1068   1.110   1_545 S
H663   C1138   1.111   1_545 S
H665   N688    1.032   .     S
H666   C859    1.110   .     S
H668   C999    1.111   1_455 S
H669   N689    1.010   .     S
H674   N690    1.031   .     S
H680   C778    1.081   1_455 S
N685   N686    1.293   .     D
N685   N689    1.381   .     S
N685   Zn700   2.038   .     S
N686   Zn699   2.038   .     S
N686   N690    1.373   .     S
O691   Zn699   1.967   .     S
O691   C701    1.281   .     S
O692   Zn700   1.967   .     S
O692   C782    1.282   1_455 S
O693   Zn700   1.980   .     S
O694   Zn699   1.980   .     S
O695   Zn699   1.958   .     S
O695   C728    1.301   .     S
O696   Zn700   1.958   .     S
O696   C772    1.301   1_455 S
O697   Zn700   1.899   .     S
O698   Zn699   1.899   .     S
C701   O763    1.296   .     A
C701   C726    1.404   .     S
C702   C704    1.452   .     S
C702   O768    1.304   .     A
C702   O836    1.301   .     S
C703   C709    1.390   .     A
C703   C728    1.454   .     S
C704   C708    1.398   .     A
C704   C710    1.388   .     A
C705   C714    1.404   .     A
C705   H52     1.084   1_556 S
C706   H753    1.084   .     S
C706   C708    1.392   .     A
C706   C715    1.404   .     A
C707   H751    1.082   .     S
C707   C773    1.398   .     S
C707   C775    1.392   .     S
C708   H820    1.081   .     S
C709   C711    1.396   .     A
C709   H749    1.075   .     S
C710   H748    1.077   .     S
C710   C713    1.396   .     A
C711   C716    1.420   .     A
C711   C714    1.419   .     A
C712   O764    1.296   .     A
C712   C727    1.406   .     S
C712   O832    1.282   .     S
C713   C717    1.420   .     A
C713   C715    1.419   .     A
C714   C94     1.388   1_556 S
C716   C723    1.419   .     A
C716   C87     1.418   1_556 S
C717   C722    1.419   .     A
C718   N757    1.449   .     S
C718   H734    1.112   .     S
C718   H942    1.110   .     S
C718   H873    1.111   .     S
C719   N758    1.448   .     S
C719   H737    1.112   .     S
C719   H1156   1.110   1_545 S
C719   H1228   1.111   1_545 S
C720   H742    1.110   .     S
C720   N759    1.440   .     S
C720   H741    1.111   .     S
C720   H743    1.100   .     S
C721   N760    1.441   .     S
C721   H746    1.107   .     S
C721   H747    1.111   .     S
C721   H745    1.110   .     S
C722   C724    1.385   .     A
C722   H754    1.076   .     S
C723   C725    1.385   .     A
C723   H730    1.076   .     S
C724   H729    1.084   .     S
C725   H740    1.084   .     S
C725   C85     1.388   1_556 S
C726   N757    1.431   .     S
C726   C867    1.354   .     S
C727   N758    1.432   .     S
C727   C1216   1.354   1_545 S
C728   O767    1.304   .     A
H731   N757    1.032   .     S
H732   C1138   1.110   1_545 S
H733   C1208   1.111   1_545 S
H735   N758    1.032   .     S
H736   C929    1.110   .     S
H738   C859    1.111   .     S
H739   N759    1.010   .     S
H744   N760    1.031   .     S
N755   N756    1.293   .     D
N755   N759    1.381   .     S
N755   Zn770   2.038   .     S
N756   Zn769   2.038   .     S
N756   N760    1.373   .     S
O761   Zn769   1.967   .     S
O761   C771    1.281   .     S
O762   Zn770   1.967   .     S
O763   Zn770   1.980   .     S
O764   Zn769   1.980   .     S
O765   Zn769   1.958   .     S
O765   C798    1.301   .     S
O766   Zn770   1.958   .     S
O767   Zn770   1.899   .     S
O768   Zn769   1.899   .     S
C771   O833    1.296   .     A
C771   C796    1.404   .     S
C772   C774    1.452   .     S
C772   O838    1.304   .     A
C772   O696    1.301   1_655 S
C773   C779    1.390   .     A
C773   C798    1.454   .     S
C774   C778    1.398   .     A
C774   C780    1.388   .     A
C775   C784    1.404   .     A
C775   H122    1.084   1_556 S
C776   H823    1.084   .     S
C776   C778    1.392   .     A
C776   C785    1.404   .     A
C777   H821    1.082   .     S
C777   C633    1.398   1_655 S
C777   C635    1.392   1_655 S
C778   H680    1.081   1_655 S
C779   C781    1.396   .     A
C779   H819    1.075   .     S
C780   H818    1.077   .     S
C780   C783    1.396   .     A
C781   C786    1.420   .     A
C781   C784    1.419   .     A
C782   O834    1.296   .     A
C782   C797    1.406   .     S
C782   O692    1.282   1_655 S
C783   C787    1.420   .     A
C783   C785    1.419   .     A
C784   C164    1.388   1_556 S
C786   C793    1.419   .     A
C786   C157    1.418   1_556 S
C787   C792    1.419   .     A
C788   N827    1.449   .     S
C788   H804    1.112   .     S
C788   H1012   1.110   .     S
C788   H943    1.111   .     S
C789   N828    1.448   .     S
C789   H807    1.112   .     S
C789   H1226   1.110   1_545 S
C789   H1088   1.111   1_645 S
C790   H812    1.110   .     S
C790   N829    1.440   .     S
C790   H811    1.111   .     S
C790   H813    1.100   .     S
C791   N830    1.441   .     S
C791   H816    1.107   .     S
C791   H817    1.111   .     S
C791   H815    1.110   .     S
C792   C794    1.385   .     A
C792   H824    1.076   .     S
C793   C795    1.385   .     A
C793   H800    1.076   .     S
C794   H799    1.084   .     S
C795   H810    1.084   .     S
C795   C155    1.388   1_556 S
C796   N827    1.431   .     S
C796   C937    1.354   .     S
C797   N828    1.432   .     S
C797   C1076   1.354   1_645 S
C798   O837    1.304   .     A
H801   N827    1.032   .     S
H802   C1208   1.110   1_545 S
H803   C1068   1.111   1_645 S
H805   N828    1.032   .     S
H806   C999    1.110   .     S
H808   C929    1.111   .     S
H809   N829    1.010   .     S
H814   N830    1.031   .     S
H822   C5      1.084   1_655 S
N825   N826    1.293   .     D
N825   N829    1.381   .     S
N825   Zn840   2.038   .     S
N826   Zn839   2.038   .     S
N826   N830    1.373   .     S
O831   Zn839   1.967   .     S
O831   C631    1.281   1_655 S
O832   Zn840   1.967   .     S
O833   Zn840   1.980   .     S
O834   Zn839   1.980   .     S
O835   Zn839   1.958   .     S
O835   C658    1.301   1_655 S
O836   Zn840   1.958   .     S
O837   Zn840   1.899   .     S
O838   Zn839   1.899   .     S
C841   O903    1.296   .     A
C841   C866    1.404   .     S
C841   O1041   1.281   1_455 S
C842   C844    1.452   .     S
C842   O908    1.304   .     A
C842   O976    1.301   .     S
C843   C849    1.390   .     A
C843   C868    1.454   .     S
C843   C987    1.398   1_455 S
C844   C848    1.398   .     A
C844   C850    1.388   .     A
C845   C854    1.404   .     A
C845   C987    1.392   1_455 S
C845   H402    1.084   1_456 S
C846   H893    1.084   .     S
C846   C848    1.392   .     A
C846   C855    1.404   .     A
C847   H891    1.082   .     S
C847   C913    1.398   .     S
C847   C915    1.392   .     S
C848   H960    1.081   .     S
C849   C851    1.396   .     A
C849   H889    1.075   .     S
C850   H888    1.077   .     S
C850   C853    1.396   .     A
C851   C856    1.420   .     A
C851   C854    1.419   .     A
C852   O904    1.296   .     A
C852   C867    1.406   .     S
C852   O972    1.282   .     S
C853   C857    1.420   .     A
C853   C855    1.419   .     A
C854   C234    1.388   1_556 S
C856   C863    1.419   .     A
C856   C227    1.418   1_556 S
C857   C862    1.419   .     A
C858   N897    1.449   .     S
C858   H874    1.112   .     S
C858   H1082   1.110   .     S
C858   H1223   1.111   1_455 S
C859   N898    1.448   .     S
C859   H877    1.112   .     S
C860   H882    1.110   .     S
C860   N899    1.440   .     S
C860   H881    1.111   .     S
C860   H883    1.100   .     S
C861   N900    1.441   .     S
C861   H886    1.107   .     S
C861   H887    1.111   .     S
C861   H885    1.110   .     S
C862   C864    1.385   .     A
C862   H894    1.076   .     S
C863   C865    1.385   .     A
C863   H870    1.076   .     S
C864   H869    1.084   .     S
C865   H880    1.084   .     S
C865   C225    1.388   1_556 S
C866   N897    1.431   .     S
C866   C1217   1.354   1_455 S
C867   N898    1.432   .     S
C868   O907    1.304   .     A
C868   O1045   1.301   1_455 S
H871   N897    1.032   .     S
H875   N898    1.032   .     S
H876   C1069   1.110   .     S
H878   C1209   1.111   1_455 S
H879   N899    1.010   .     S
H884   N900    1.031   .     S
H890   C988    1.081   1_455 S
N895   N896    1.293   .     D
N895   N899    1.381   .     S
N895   Zn910   2.038   .     S
N896   Zn909   2.038   .     S
N896   N900    1.373   .     S
O901   Zn909   1.967   .     S
O901   C911    1.281   .     S
O902   Zn910   1.967   .     S
O902   C992    1.282   1_455 S
O903   Zn910   1.980   .     S
O904   Zn909   1.980   .     S
O905   Zn909   1.958   .     S
O905   C938    1.301   .     S
O906   Zn910   1.958   .     S
O906   C982    1.301   1_455 S
O907   Zn910   1.899   .     S
O908   Zn909   1.899   .     S
C911   O973    1.296   .     A
C911   C936    1.404   .     S
C912   C914    1.452   .     S
C912   O978    1.304   .     A
C912   O1046   1.301   .     S
C913   C919    1.390   .     A
C913   C938    1.454   .     S
C914   C918    1.398   .     A
C914   C920    1.388   .     A
C915   C924    1.404   .     A
C915   H262    1.084   1_556 S
C916   H963    1.084   .     S
C916   C918    1.392   .     A
C916   C925    1.404   .     A
C917   H961    1.082   .     S
C917   C983    1.398   .     S
C917   C985    1.392   .     S
C918   H1030   1.081   .     S
C919   C921    1.396   .     A
C919   H959    1.075   .     S
C920   H958    1.077   .     S
C920   C923    1.396   .     A
C921   C926    1.420   .     A
C921   C924    1.419   .     A
C922   O974    1.296   .     A
C922   C937    1.406   .     S
C922   O1042   1.282   .     S
C923   C927    1.420   .     A
C923   C925    1.419   .     A
C924   C304    1.388   1_556 S
C926   C933    1.419   .     A
C926   C297    1.418   1_556 S
C927   C932    1.419   .     A
C928   N967    1.449   .     S
C928   H944    1.112   .     S
C928   H1152   1.110   .     S
C928   H1083   1.111   .     S
C929   N968    1.448   .     S
C929   H947    1.112   .     S
C930   H952    1.110   .     S
C930   N969    1.440   .     S
C930   H951    1.111   .     S
C930   H953    1.100   .     S
C931   N970    1.441   .     S
C931   H956    1.107   .     S
C931   H957    1.111   .     S
C931   H955    1.110   .     S
C932   C934    1.385   .     A
C932   H964    1.076   .     S
C933   C935    1.385   .     A
C933   H940    1.076   .     S
C934   H939    1.084   .     S
C935   H950    1.084   .     S
C935   C295    1.388   1_556 S
C936   N967    1.431   .     S
C936   C1077   1.354   .     S
C937   N968    1.432   .     S
C938   O977    1.304   .     A
H941   N967    1.032   .     S
H945   N968    1.032   .     S
H946   C1139   1.110   .     S
H948   C1069   1.111   .     S
H949   N969    1.010   .     S
H954   N970    1.031   .     S
N965   N966    1.293   .     D
N965   N969    1.381   .     S
N965   Zn980   2.038   .     S
N966   Zn979   2.038   .     S
N966   N970    1.373   .     S
O971   Zn979   1.967   .     S
O971   C981    1.281   .     S
O972   Zn980   1.967   .     S
O973   Zn980   1.980   .     S
O974   Zn979   1.980   .     S
O975   Zn979   1.958   .     S
O975   C1008   1.301   .     S
O976   Zn980   1.958   .     S
O977   Zn980   1.899   .     S
O978   Zn979   1.899   .     S
C981   O1043   1.296   .     A
C981   C1006   1.404   .     S
C982   C984    1.452   .     S
C982   O1048   1.304   .     A
C982   O906    1.301   1_655 S
C983   C989    1.390   .     A
C983   C1008   1.454   .     S
C984   C988    1.398   .     A
C984   C990    1.388   .     A
C985   C994    1.404   .     A
C985   H332    1.084   1_556 S
C986   H1033   1.084   .     S
C986   C988    1.392   .     A
C986   C995    1.404   .     A
C987   H1031   1.082   .     S
C987   C843    1.398   1_655 S
C987   C845    1.392   1_655 S
C988   H890    1.081   1_655 S
C989   C991    1.396   .     A
C989   H1029   1.075   .     S
C990   H1028   1.077   .     S
C990   C993    1.396   .     A
C991   C996    1.420   .     A
C991   C994    1.419   .     A
C992   O1044   1.296   .     A
C992   C1007   1.406   .     S
C992   O902    1.282   1_655 S
C993   C997    1.420   .     A
C993   C995    1.419   .     A
C994   C374    1.388   1_556 S
C996   C1003   1.419   .     A
C996   C367    1.418   1_556 S
C997   C1002   1.419   .     A
C998   N1037   1.449   .     S
C998   H1014   1.112   .     S
C998   H1222   1.110   .     S
C998   H1153   1.111   .     S
C999   N1038   1.448   .     S
C999   H1017   1.112   .     S
C999   H668    1.111   1_655 S
C1000  H1022   1.110   .     S
C1000  N1039   1.440   .     S
C1000  H1021   1.111   .     S
C1000  H1023   1.100   .     S
C1001  N1040   1.441   .     S
C1001  H1026   1.107   .     S
C1001  H1027   1.111   .     S
C1001  H1025   1.110   .     S
C1002  C1004   1.385   .     A
C1002  H1034   1.076   .     S
C1003  C1005   1.385   .     A
C1003  H1010   1.076   .     S
C1004  H1009   1.084   .     S
C1005  H1020   1.084   .     S
C1005  C365    1.388   1_556 S
C1006  N1037   1.431   .     S
C1006  C1147   1.354   .     S
C1007  N1038   1.432   .     S
C1007  C656    1.354   1_655 S
C1008  O1047   1.304   .     A
H1011  N1037   1.032   .     S
H1013  C648    1.111   1_655 S
H1015  N1038   1.032   .     S
H1016  C1209   1.110   .     S
H1018  C1139   1.111   .     S
H1019  N1039   1.010   .     S
H1024  N1040   1.031   .     S
H1032  C215    1.084   1_655 S
N1035  N1036   1.293   .     D
N1035  N1039   1.381   .     S
N1035  Zn1050  2.038   .     S
N1036  Zn1049  2.038   .     S
N1036  N1040   1.373   .     S
O1041  Zn1049  1.967   .     S
O1041  C841    1.281   1_655 S
O1042  Zn1050  1.967   .     S
O1043  Zn1050  1.980   .     S
O1044  Zn1049  1.980   .     S
O1045  Zn1049  1.958   .     S
O1045  C868    1.301   1_655 S
O1046  Zn1050  1.958   .     S
O1047  Zn1050  1.899   .     S
O1048  Zn1049  1.899   .     S
C1051  O1113   1.296   .     A
C1051  C1076   1.404   .     S
C1051  O1251   1.281   1_455 S
C1052  C1054   1.452   .     S
C1052  O1118   1.304   .     A
C1052  O1186   1.301   .     S
C1053  C1059   1.390   .     A
C1053  C1078   1.454   .     S
C1053  C1197   1.398   1_455 S
C1054  C1058   1.398   .     A
C1054  C1060   1.388   .     A
C1055  C1064   1.404   .     A
C1055  C1197   1.392   1_455 S
C1055  H612    1.084   1_456 S
C1056  H1103   1.084   .     S
C1056  C1058   1.392   .     A
C1056  C1065   1.404   .     A
C1057  H1101   1.082   .     S
C1057  C1123   1.398   .     S
C1057  C1125   1.392   .     S
C1058  H1170   1.081   .     S
C1059  C1061   1.396   .     A
C1059  H1099   1.075   .     S
C1060  H1098   1.077   .     S
C1060  C1063   1.396   .     A
C1061  C1066   1.420   .     A
C1061  C1064   1.419   .     A
C1062  O1114   1.296   .     A
C1062  C1077   1.406   .     S
C1062  O1182   1.282   .     S
C1063  C1067   1.420   .     A
C1063  C1065   1.419   .     A
C1064  C444    1.388   1_556 S
C1066  C1073   1.419   .     A
C1066  C437    1.418   1_556 S
C1067  C1072   1.419   .     A
C1068  N1107   1.449   .     S
C1068  H1084   1.112   .     S
C1068  H662    1.110   1_565 S
C1068  H803    1.111   1_465 S
C1069  N1108   1.448   .     S
C1069  H1087   1.112   .     S
C1070  H1092   1.110   .     S
C1070  N1109   1.440   .     S
C1070  H1091   1.111   .     S
C1070  H1093   1.100   .     S
C1071  N1110   1.441   .     S
C1071  H1096   1.107   .     S
C1071  H1097   1.111   .     S
C1071  H1095   1.110   .     S
C1072  C1074   1.385   .     A
C1072  H1104   1.076   .     S
C1073  C1075   1.385   .     A
C1073  H1080   1.076   .     S
C1074  H1079   1.084   .     S
C1075  H1090   1.084   .     S
C1075  C435    1.388   1_556 S
C1076  N1107   1.431   .     S
C1076  C797    1.354   1_465 S
C1077  N1108   1.432   .     S
C1078  O1117   1.304   .     A
C1078  O1255   1.301   1_455 S
H1081  N1107   1.032   .     S
H1085  N1108   1.032   .     S
H1086  C649    1.110   1_565 S
H1088  C789    1.111   1_465 S
H1089  N1109   1.010   .     S
H1094  N1110   1.031   .     S
H1100  C1198   1.081   1_455 S
N1105  N1106   1.293   .     D
N1105  N1109   1.381   .     S
N1105  Zn1120  2.038   .     S
N1106  Zn1119  2.038   .     S
N1106  N1110   1.373   .     S
O1111  Zn1119  1.967   .     S
O1111  C1121   1.281   .     S
O1112  Zn1120  1.967   .     S
O1112  C1202   1.282   1_455 S
O1113  Zn1120  1.980   .     S
O1114  Zn1119  1.980   .     S
O1115  Zn1119  1.958   .     S
O1115  C1148   1.301   .     S
O1116  Zn1120  1.958   .     S
O1116  C1192   1.301   1_455 S
O1117  Zn1120  1.899   .     S
O1118  Zn1119  1.899   .     S
C1121  O1183   1.296   .     A
C1121  C1146   1.404   .     S
C1122  C1124   1.452   .     S
C1122  O1188   1.304   .     A
C1122  O1256   1.301   .     S
C1123  C1129   1.390   .     A
C1123  C1148   1.454   .     S
C1124  C1128   1.398   .     A
C1124  C1130   1.388   .     A
C1125  C1134   1.404   .     A
C1125  H472    1.084   1_556 S
C1126  H1173   1.084   .     S
C1126  C1128   1.392   .     A
C1126  C1135   1.404   .     A
C1127  H1171   1.082   .     S
C1127  C1193   1.398   .     S
C1127  C1195   1.392   .     S
C1128  H1240   1.081   .     S
C1129  C1131   1.396   .     A
C1129  H1169   1.075   .     S
C1130  H1168   1.077   .     S
C1130  C1133   1.396   .     A
C1131  C1136   1.420   .     A
C1131  C1134   1.419   .     A
C1132  O1184   1.296   .     A
C1132  C1147   1.406   .     S
C1132  O1252   1.282   .     S
C1133  C1137   1.420   .     A
C1133  C1135   1.419   .     A
C1134  C514    1.388   1_556 S
C1136  C1143   1.419   .     A
C1136  C507    1.418   1_556 S
C1137  C1142   1.419   .     A
C1138  N1177   1.449   .     S
C1138  H1154   1.112   .     S
C1138  H732    1.110   1_565 S
C1138  H663    1.111   1_565 S
C1139  N1178   1.448   .     S
C1139  H1157   1.112   .     S
C1140  H1162   1.110   .     S
C1140  N1179   1.440   .     S
C1140  H1161   1.111   .     S
C1140  H1163   1.100   .     S
C1141  N1180   1.441   .     S
C1141  H1166   1.107   .     S
C1141  H1167   1.111   .     S
C1141  H1165   1.110   .     S
C1142  C1144   1.385   .     A
C1142  H1174   1.076   .     S
C1143  C1145   1.385   .     A
C1143  H1150   1.076   .     S
C1144  H1149   1.084   .     S
C1145  H1160   1.084   .     S
C1145  C505    1.388   1_556 S
C1146  N1177   1.431   .     S
C1146  C657    1.354   1_565 S
C1147  N1178   1.432   .     S
C1148  O1187   1.304   .     A
H1151  N1177   1.032   .     S
H1155  N1178   1.032   .     S
H1156  C719    1.110   1_565 S
H1158  C649    1.111   1_565 S
H1159  N1179   1.010   .     S
H1164  N1180   1.031   .     S
N1175  N1176   1.293   .     D
N1175  N1179   1.381   .     S
N1175  Zn1190  2.038   .     S
N1176  Zn1189  2.038   .     S
N1176  N1180   1.373   .     S
O1181  Zn1189  1.967   .     S
O1181  C1191   1.281   .     S
O1182  Zn1190  1.967   .     S
O1183  Zn1190  1.980   .     S
O1184  Zn1189  1.980   .     S
O1185  Zn1189  1.958   .     S
O1185  C1218   1.301   .     S
O1186  Zn1190  1.958   .     S
O1187  Zn1190  1.899   .     S
O1188  Zn1189  1.899   .     S
C1191  O1253   1.296   .     A
C1191  C1216   1.404   .     S
C1192  C1194   1.452   .     S
C1192  O1258   1.304   .     A
C1192  O1116   1.301   1_655 S
C1193  C1199   1.390   .     A
C1193  C1218   1.454   .     S
C1194  C1198   1.398   .     A
C1194  C1200   1.388   .     A
C1195  C1204   1.404   .     A
C1195  H542    1.084   1_556 S
C1196  H1243   1.084   .     S
C1196  C1198   1.392   .     A
C1196  C1205   1.404   .     A
C1197  H1241   1.082   .     S
C1197  C1053   1.398   1_655 S
C1197  C1055   1.392   1_655 S
C1198  H1100   1.081   1_655 S
C1199  C1201   1.396   .     A
C1199  H1239   1.075   .     S
C1200  H1238   1.077   .     S
C1200  C1203   1.396   .     A
C1201  C1206   1.420   .     A
C1201  C1204   1.419   .     A
C1202  O1254   1.296   .     A
C1202  C1217   1.406   .     S
C1202  O1112   1.282   1_655 S
C1203  C1207   1.420   .     A
C1203  C1205   1.419   .     A
C1204  C584    1.388   1_556 S
C1206  C1213   1.419   .     A
C1206  C577    1.418   1_556 S
C1207  C1212   1.419   .     A
C1208  N1247   1.449   .     S
C1208  H1224   1.112   .     S
C1208  H802    1.110   1_565 S
C1208  H733    1.111   1_565 S
C1209  N1248   1.448   .     S
C1209  H1227   1.112   .     S
C1209  H878    1.111   1_655 S
C1210  H1232   1.110   .     S
C1210  N1249   1.440   .     S
C1210  H1231   1.111   .     S
C1210  H1233   1.100   .     S
C1211  N1250   1.441   .     S
C1211  H1236   1.107   .     S
C1211  H1237   1.111   .     S
C1211  H1235   1.110   .     S
C1212  C1214   1.385   .     A
C1212  H1244   1.076   .     S
C1213  C1215   1.385   .     A
C1213  H1220   1.076   .     S
C1214  H1219   1.084   .     S
C1215  H1230   1.084   .     S
C1215  C575    1.388   1_556 S
C1216  N1247   1.431   .     S
C1216  C727    1.354   1_565 S
C1217  N1248   1.432   .     S
C1217  C866    1.354   1_655 S
C1218  O1257   1.304   .     A
H1221  N1247   1.032   .     S
H1223  C858    1.111   1_655 S
H1225  N1248   1.032   .     S
H1226  C789    1.110   1_565 S
H1228  C719    1.111   1_565 S
H1229  N1249   1.010   .     S
H1234  N1250   1.031   .     S
H1242  C425    1.084   1_655 S
N1245  N1246   1.293   .     D
N1245  N1249   1.381   .     S
N1245  Zn1260  2.038   .     S
N1246  Zn1259  2.038   .     S
N1246  N1250   1.373   .     S
O1251  Zn1259  1.967   .     S
O1251  C1051   1.281   1_655 S
O1252  Zn1260  1.967   .     S
O1253  Zn1260  1.980   .     S
O1254  Zn1259  1.980   .     S
O1255  Zn1259  1.958   .     S
O1255  C1078   1.301   1_655 S
O1256  Zn1260  1.958   .     S
O1257  Zn1260  1.899   .     S
O1258  Zn1259  1.899   .     S
