data_str_m3_o2_o10_pcu_sym.39
_audit_creation_date              2020-01-03
_audit_creation_method            'Materials Studio'
_symmetry_space_group_name_H-M    'P1'
_symmetry_Int_Tables_number       1
_symmetry_cell_setting            triclinic
loop_
_symmetry_equiv_pos_as_xyz
  x,y,z
_cell_length_a                    25.7569
_cell_length_b                    29.9998
_cell_length_c                    28.4705
_cell_angle_alpha                 89.4885
_cell_angle_beta                  98.3145
_cell_angle_gamma                 90.5950
loop_
_atom_site_label
_atom_site_type_symbol
_atom_site_fract_x
_atom_site_fract_y
_atom_site_fract_z
_atom_site_U_iso_or_equiv
_atom_site_adp_type
_atom_site_occupancy
C1     C     0.16673   0.16395   0.25017   0.00000  Uiso   1.00
C2     C     0.14830   0.21485   0.44629   0.00000  Uiso   1.00
C3     C     0.16339   0.25240   0.02633   0.00000  Uiso   1.00
C4     C     0.16422   0.25296   0.47302   0.00000  Uiso   1.00
C5     C     0.06711   0.24933   0.23766   0.00000  Uiso   1.00
C6     C     0.26624   0.24974   0.26238   0.00000  Uiso   1.00
C7     C     0.01216   0.24749   0.23110   0.00000  Uiso   1.00
C8     C     0.32125   0.24974   0.26911   0.00000  Uiso   1.00
C9     C     0.18943   0.04716   0.29168   0.00000  Uiso   1.00
C10    C     0.18620   0.45333   0.21253   0.00000  Uiso   1.00
C11    C     0.18805   0.09317   0.29182   0.00000  Uiso   1.00
C12    C     0.16678   0.33608   0.24985   0.00000  Uiso   1.00
C13    C     0.18481   0.40730   0.21207   0.00000  Uiso   1.00
C14    C     0.16740   0.11608   0.25043   0.00000  Uiso   1.00
C15    C     0.16748   0.38402   0.24977   0.00000  Uiso   1.00
C16    C     0.14799   0.09307   0.20896   0.00000  Uiso   1.00
C17    C     0.15137   0.40676   0.28781   0.00000  Uiso   1.00
C18    C     0.14888   0.04709   0.20896   0.00000  Uiso   1.00
C19    C     0.15225   0.45275   0.28799   0.00000  Uiso   1.00
C20    C     0.16967   0.02414   0.25028   0.00000  Uiso   1.00
C21    C     0.16973   0.47603   0.25040   0.00000  Uiso   1.00
C22    C     0.07358   0.21802   0.01991   0.00000  Uiso   1.00
C23    C     0.12165   0.23335   0.04774   0.00000  Uiso   1.00
C24    C     0.19376   0.33264   0.47060   0.00000  Uiso   1.00
C25    C     0.24466   0.29780   0.13477   0.00000  Uiso   1.00
C26    C     0.12163   0.17760   0.37111   0.00000  Uiso   1.00
C27    C     0.18121   0.29028   0.44792   0.00000  Uiso   1.00
C28    C     0.12519   0.23140   0.09769   0.00000  Uiso   1.00
C29    C     0.18346   0.28733   0.39873   0.00000  Uiso   1.00
C30    C     0.20549   0.27127   0.10630   0.00000  Uiso   1.00
C31    C     0.14719   0.21466   0.39684   0.00000  Uiso   1.00
C32    C     0.20577   0.27065   0.05701   0.00000  Uiso   1.00
H33    H     0.32515   0.24430   0.19507   0.00000  Uiso   1.00
H34    H     0.13867   0.47013   0.31705   0.00000  Uiso   1.00
H35    H     0.09365   0.21636   0.11386   0.00000  Uiso   1.00
H36    H     0.19717   0.31568   0.38004   0.00000  Uiso   1.00
H37    H     0.23888   0.28523   0.04275   0.00000  Uiso   1.00
H38    H     0.13572   0.18520   0.46368   0.00000  Uiso   1.00
H39    H     0.00833   0.25230   0.30523   0.00000  Uiso   1.00
H40    H     0.20612   0.02957   0.32362   0.00000  Uiso   1.00
H41    H     0.20034   0.47120   0.18358   0.00000  Uiso   1.00
H42    H     0.20372   0.11079   0.32390   0.00000  Uiso   1.00
H43    H     0.19785   0.38999   0.18271   0.00000  Uiso   1.00
H44    H     0.13156   0.11057   0.17686   0.00000  Uiso   1.00
H45    H     0.13753   0.38906   0.31701   0.00000  Uiso   1.00
H46    H     0.13276   0.02945   0.17703   0.00000  Uiso   1.00
N47    N     0.16667   0.24999   0.12623   0.00000  Uiso   1.00
N48    N     0.16667   0.25001   0.37376   0.00000  Uiso   1.00
N49    N     0.03496   0.20578   0.49767   0.00000  Uiso   1.00
N50    N     0.20378   0.36666   0.48871   0.00000  Uiso   1.00
N51    N     0.27605   0.31973   0.15715   0.00000  Uiso   1.00
N52    N     0.10043   0.14765   0.35106   0.00000  Uiso   1.00
O53    O     0.16667   0.18454   0.28974   0.00000  Uiso   1.00
O54    O     0.16666   0.31547   0.21026   0.00000  Uiso   1.00
O55    O     0.16667   0.18453   0.21026   0.00000  Uiso   1.00
O56    O     0.16666   0.31547   0.28974   0.00000  Uiso   1.00
O57    O     0.09058   0.25000   0.28044   0.00000  Uiso   1.00
O58    O     0.24275   0.25000   0.21955   0.00000  Uiso   1.00
O59    O     0.09058   0.25000   0.20096   0.00000  Uiso   1.00
O60    O     0.24275   0.25000   0.29903   0.00000  Uiso   1.00
Zn61   Zn    0.16667   0.25001   0.30307   0.00000  Uiso   1.00
Zn62   Zn    0.16667   0.25000   0.19693   0.00000  Uiso   1.00
C63    C     0.50007   0.16395   0.25017   0.00000  Uiso   1.00
C64    C     0.48164   0.21485   0.44629   0.00000  Uiso   1.00
C65    C     0.49672   0.25240   0.02633   0.00000  Uiso   1.00
C66    C     0.49756   0.25296   0.47302   0.00000  Uiso   1.00
C67    C     0.40044   0.24933   0.23766   0.00000  Uiso   1.00
C68    C     0.59958   0.24974   0.26238   0.00000  Uiso   1.00
C69    C     0.34549   0.24749   0.23110   0.00000  Uiso   1.00
C70    C     0.65458   0.24974   0.26911   0.00000  Uiso   1.00
C71    C     0.52276   0.04716   0.29168   0.00000  Uiso   1.00
C72    C     0.51954   0.45333   0.21253   0.00000  Uiso   1.00
C73    C     0.52139   0.09317   0.29182   0.00000  Uiso   1.00
C74    C     0.50011   0.33608   0.24985   0.00000  Uiso   1.00
C75    C     0.51814   0.40730   0.21207   0.00000  Uiso   1.00
C76    C     0.50073   0.11608   0.25043   0.00000  Uiso   1.00
C77    C     0.50081   0.38402   0.24977   0.00000  Uiso   1.00
C78    C     0.48132   0.09307   0.20896   0.00000  Uiso   1.00
C79    C     0.48471   0.40676   0.28781   0.00000  Uiso   1.00
C80    C     0.48221   0.04709   0.20896   0.00000  Uiso   1.00
C81    C     0.48559   0.45275   0.28799   0.00000  Uiso   1.00
C82    C     0.50301   0.02414   0.25028   0.00000  Uiso   1.00
C83    C     0.50306   0.47603   0.25040   0.00000  Uiso   1.00
C84    C     0.40691   0.21802   0.01991   0.00000  Uiso   1.00
C85    C     0.45499   0.23335   0.04774   0.00000  Uiso   1.00
C86    C     0.52709   0.33264   0.47060   0.00000  Uiso   1.00
C87    C     0.57800   0.29780   0.13477   0.00000  Uiso   1.00
C88    C     0.45496   0.17760   0.37111   0.00000  Uiso   1.00
C89    C     0.51455   0.29028   0.44792   0.00000  Uiso   1.00
C90    C     0.45853   0.23140   0.09769   0.00000  Uiso   1.00
C91    C     0.51679   0.28733   0.39873   0.00000  Uiso   1.00
C92    C     0.53882   0.27127   0.10630   0.00000  Uiso   1.00
C93    C     0.48053   0.21466   0.39684   0.00000  Uiso   1.00
C94    C     0.53910   0.27065   0.05701   0.00000  Uiso   1.00
H95    H     0.65848   0.24430   0.19507   0.00000  Uiso   1.00
H96    H     0.47200   0.47013   0.31705   0.00000  Uiso   1.00
H97    H     0.42699   0.21636   0.11386   0.00000  Uiso   1.00
H98    H     0.53050   0.31568   0.38004   0.00000  Uiso   1.00
H99    H     0.57222   0.28523   0.04275   0.00000  Uiso   1.00
H100   H     0.46905   0.18520   0.46368   0.00000  Uiso   1.00
H101   H     0.34167   0.25230   0.30523   0.00000  Uiso   1.00
H102   H     0.53946   0.02957   0.32362   0.00000  Uiso   1.00
H103   H     0.53367   0.47120   0.18358   0.00000  Uiso   1.00
H104   H     0.53706   0.11079   0.32390   0.00000  Uiso   1.00
H105   H     0.53118   0.38999   0.18271   0.00000  Uiso   1.00
H106   H     0.46489   0.11057   0.17686   0.00000  Uiso   1.00
H107   H     0.47086   0.38906   0.31701   0.00000  Uiso   1.00
H108   H     0.46610   0.02945   0.17703   0.00000  Uiso   1.00
N109   N     0.50000   0.24999   0.12623   0.00000  Uiso   1.00
N110   N     0.50000   0.25001   0.37376   0.00000  Uiso   1.00
N111   N     0.36830   0.20578   0.49767   0.00000  Uiso   1.00
N112   N     0.53711   0.36666   0.48871   0.00000  Uiso   1.00
N113   N     0.60938   0.31973   0.15715   0.00000  Uiso   1.00
N114   N     0.43377   0.14765   0.35106   0.00000  Uiso   1.00
O115   O     0.50000   0.18454   0.28974   0.00000  Uiso   1.00
O116   O     0.50000   0.31547   0.21026   0.00000  Uiso   1.00
O117   O     0.50000   0.18453   0.21026   0.00000  Uiso   1.00
O118   O     0.50000   0.31547   0.28974   0.00000  Uiso   1.00
O119   O     0.42392   0.25000   0.28044   0.00000  Uiso   1.00
O120   O     0.57608   0.25000   0.21955   0.00000  Uiso   1.00
O121   O     0.42392   0.25000   0.20096   0.00000  Uiso   1.00
O122   O     0.57608   0.25000   0.29903   0.00000  Uiso   1.00
Zn123  Zn    0.50000   0.25001   0.30307   0.00000  Uiso   1.00
Zn124  Zn    0.50000   0.25000   0.19693   0.00000  Uiso   1.00
C125   C     0.83340   0.16395   0.25017   0.00000  Uiso   1.00
C126   C     0.81497   0.21485   0.44629   0.00000  Uiso   1.00
C127   C     0.83006   0.25240   0.02633   0.00000  Uiso   1.00
C128   C     0.83089   0.25296   0.47302   0.00000  Uiso   1.00
C129   C     0.73378   0.24933   0.23766   0.00000  Uiso   1.00
C130   C     0.93291   0.24974   0.26238   0.00000  Uiso   1.00
C131   C     0.67883   0.24749   0.23110   0.00000  Uiso   1.00
C132   C     0.98792   0.24974   0.26911   0.00000  Uiso   1.00
C133   C     0.85609   0.04716   0.29168   0.00000  Uiso   1.00
C134   C     0.85287   0.45333   0.21253   0.00000  Uiso   1.00
C135   C     0.85472   0.09317   0.29182   0.00000  Uiso   1.00
C136   C     0.83345   0.33608   0.24985   0.00000  Uiso   1.00
C137   C     0.85148   0.40730   0.21207   0.00000  Uiso   1.00
C138   C     0.83406   0.11608   0.25043   0.00000  Uiso   1.00
C139   C     0.83414   0.38402   0.24977   0.00000  Uiso   1.00
C140   C     0.81465   0.09307   0.20896   0.00000  Uiso   1.00
C141   C     0.81804   0.40676   0.28781   0.00000  Uiso   1.00
C142   C     0.81555   0.04709   0.20896   0.00000  Uiso   1.00
C143   C     0.81892   0.45275   0.28799   0.00000  Uiso   1.00
C144   C     0.83634   0.02414   0.25028   0.00000  Uiso   1.00
C145   C     0.83639   0.47603   0.25040   0.00000  Uiso   1.00
C146   C     0.74025   0.21802   0.01991   0.00000  Uiso   1.00
C147   C     0.78832   0.23335   0.04774   0.00000  Uiso   1.00
C148   C     0.86042   0.33264   0.47060   0.00000  Uiso   1.00
C149   C     0.91133   0.29780   0.13477   0.00000  Uiso   1.00
C150   C     0.78830   0.17760   0.37111   0.00000  Uiso   1.00
C151   C     0.84788   0.29028   0.44792   0.00000  Uiso   1.00
C152   C     0.79186   0.23140   0.09769   0.00000  Uiso   1.00
C153   C     0.85013   0.28733   0.39873   0.00000  Uiso   1.00
C154   C     0.87215   0.27127   0.10630   0.00000  Uiso   1.00
C155   C     0.81386   0.21466   0.39684   0.00000  Uiso   1.00
C156   C     0.87243   0.27065   0.05701   0.00000  Uiso   1.00
H157   H     0.99181   0.24430   0.19507   0.00000  Uiso   1.00
H158   H     0.80533   0.47013   0.31705   0.00000  Uiso   1.00
H159   H     0.76032   0.21636   0.11386   0.00000  Uiso   1.00
H160   H     0.86384   0.31568   0.38004   0.00000  Uiso   1.00
H161   H     0.90555   0.28523   0.04275   0.00000  Uiso   1.00
H162   H     0.80238   0.18520   0.46368   0.00000  Uiso   1.00
H163   H     0.67500   0.25230   0.30523   0.00000  Uiso   1.00
H164   H     0.87279   0.02957   0.32362   0.00000  Uiso   1.00
H165   H     0.86700   0.47120   0.18358   0.00000  Uiso   1.00
H166   H     0.87039   0.11079   0.32390   0.00000  Uiso   1.00
H167   H     0.86451   0.38999   0.18271   0.00000  Uiso   1.00
H168   H     0.79823   0.11057   0.17686   0.00000  Uiso   1.00
H169   H     0.80420   0.38906   0.31701   0.00000  Uiso   1.00
H170   H     0.79943   0.02945   0.17703   0.00000  Uiso   1.00
N171   N     0.83333   0.24999   0.12623   0.00000  Uiso   1.00
N172   N     0.83333   0.25001   0.37376   0.00000  Uiso   1.00
N173   N     0.70163   0.20578   0.49767   0.00000  Uiso   1.00
N174   N     0.87044   0.36666   0.48871   0.00000  Uiso   1.00
N175   N     0.94272   0.31973   0.15715   0.00000  Uiso   1.00
N176   N     0.76710   0.14765   0.35106   0.00000  Uiso   1.00
O177   O     0.83334   0.18454   0.28974   0.00000  Uiso   1.00
O178   O     0.83333   0.31547   0.21026   0.00000  Uiso   1.00
O179   O     0.83334   0.18453   0.21026   0.00000  Uiso   1.00
O180   O     0.83333   0.31547   0.28974   0.00000  Uiso   1.00
O181   O     0.75725   0.25000   0.28044   0.00000  Uiso   1.00
O182   O     0.90942   0.25000   0.21955   0.00000  Uiso   1.00
O183   O     0.75725   0.25000   0.20096   0.00000  Uiso   1.00
O184   O     0.90942   0.25000   0.29903   0.00000  Uiso   1.00
Zn185  Zn    0.83333   0.25001   0.30307   0.00000  Uiso   1.00
Zn186  Zn    0.83333   0.25000   0.19693   0.00000  Uiso   1.00
C187   C     0.16673   0.66395   0.25017   0.00000  Uiso   1.00
C188   C     0.14830   0.71485   0.44629   0.00000  Uiso   1.00
C189   C     0.16339   0.75240   0.02633   0.00000  Uiso   1.00
C190   C     0.16422   0.75296   0.47302   0.00000  Uiso   1.00
C191   C     0.06711   0.74933   0.23766   0.00000  Uiso   1.00
C192   C     0.26624   0.74974   0.26238   0.00000  Uiso   1.00
C193   C     0.01216   0.74749   0.23110   0.00000  Uiso   1.00
C194   C     0.32125   0.74974   0.26911   0.00000  Uiso   1.00
C195   C     0.18943   0.54716   0.29168   0.00000  Uiso   1.00
C196   C     0.18620   0.95333   0.21253   0.00000  Uiso   1.00
C197   C     0.18805   0.59317   0.29182   0.00000  Uiso   1.00
C198   C     0.16678   0.83608   0.24985   0.00000  Uiso   1.00
C199   C     0.18481   0.90730   0.21207   0.00000  Uiso   1.00
C200   C     0.16740   0.61608   0.25043   0.00000  Uiso   1.00
C201   C     0.16748   0.88402   0.24977   0.00000  Uiso   1.00
C202   C     0.14799   0.59307   0.20896   0.00000  Uiso   1.00
C203   C     0.15137   0.90676   0.28781   0.00000  Uiso   1.00
C204   C     0.14888   0.54709   0.20896   0.00000  Uiso   1.00
C205   C     0.15225   0.95275   0.28799   0.00000  Uiso   1.00
C206   C     0.16967   0.52414   0.25028   0.00000  Uiso   1.00
C207   C     0.16973   0.97603   0.25040   0.00000  Uiso   1.00
C208   C     0.07358   0.71802   0.01991   0.00000  Uiso   1.00
C209   C     0.12165   0.73335   0.04774   0.00000  Uiso   1.00
C210   C     0.19376   0.83264   0.47060   0.00000  Uiso   1.00
C211   C     0.24466   0.79780   0.13477   0.00000  Uiso   1.00
C212   C     0.12163   0.67760   0.37111   0.00000  Uiso   1.00
C213   C     0.18121   0.79028   0.44792   0.00000  Uiso   1.00
C214   C     0.12519   0.73140   0.09769   0.00000  Uiso   1.00
C215   C     0.18346   0.78733   0.39873   0.00000  Uiso   1.00
C216   C     0.20549   0.77127   0.10630   0.00000  Uiso   1.00
C217   C     0.14719   0.71466   0.39684   0.00000  Uiso   1.00
C218   C     0.20577   0.77065   0.05701   0.00000  Uiso   1.00
H219   H     0.32515   0.74430   0.19507   0.00000  Uiso   1.00
H220   H     0.13867   0.97013   0.31705   0.00000  Uiso   1.00
H221   H     0.09365   0.71636   0.11386   0.00000  Uiso   1.00
H222   H     0.19717   0.81568   0.38004   0.00000  Uiso   1.00
H223   H     0.23888   0.78523   0.04275   0.00000  Uiso   1.00
H224   H     0.13572   0.68520   0.46368   0.00000  Uiso   1.00
H225   H     0.00833   0.75230   0.30523   0.00000  Uiso   1.00
H226   H     0.20612   0.52957   0.32362   0.00000  Uiso   1.00
H227   H     0.20034   0.97120   0.18358   0.00000  Uiso   1.00
H228   H     0.20372   0.61079   0.32390   0.00000  Uiso   1.00
H229   H     0.19785   0.88999   0.18271   0.00000  Uiso   1.00
H230   H     0.13156   0.61057   0.17686   0.00000  Uiso   1.00
H231   H     0.13753   0.88906   0.31701   0.00000  Uiso   1.00
H232   H     0.13276   0.52945   0.17703   0.00000  Uiso   1.00
N233   N     0.16667   0.74999   0.12623   0.00000  Uiso   1.00
N234   N     0.16667   0.75001   0.37376   0.00000  Uiso   1.00
N235   N     0.03496   0.70578   0.49767   0.00000  Uiso   1.00
N236   N     0.20378   0.86666   0.48871   0.00000  Uiso   1.00
N237   N     0.27605   0.81973   0.15715   0.00000  Uiso   1.00
N238   N     0.10043   0.64765   0.35106   0.00000  Uiso   1.00
O239   O     0.16667   0.68454   0.28974   0.00000  Uiso   1.00
O240   O     0.16666   0.81547   0.21026   0.00000  Uiso   1.00
O241   O     0.16667   0.68453   0.21026   0.00000  Uiso   1.00
O242   O     0.16666   0.81547   0.28974   0.00000  Uiso   1.00
O243   O     0.09058   0.75000   0.28044   0.00000  Uiso   1.00
O244   O     0.24275   0.75000   0.21955   0.00000  Uiso   1.00
O245   O     0.09058   0.75000   0.20096   0.00000  Uiso   1.00
O246   O     0.24275   0.75000   0.29903   0.00000  Uiso   1.00
Zn247  Zn    0.16667   0.75001   0.30307   0.00000  Uiso   1.00
Zn248  Zn    0.16667   0.75000   0.19693   0.00000  Uiso   1.00
C249   C     0.50007   0.66395   0.25017   0.00000  Uiso   1.00
C250   C     0.48164   0.71485   0.44629   0.00000  Uiso   1.00
C251   C     0.49672   0.75240   0.02633   0.00000  Uiso   1.00
C252   C     0.49756   0.75296   0.47302   0.00000  Uiso   1.00
C253   C     0.40044   0.74933   0.23766   0.00000  Uiso   1.00
C254   C     0.59958   0.74974   0.26238   0.00000  Uiso   1.00
C255   C     0.34549   0.74749   0.23110   0.00000  Uiso   1.00
C256   C     0.65458   0.74974   0.26911   0.00000  Uiso   1.00
C257   C     0.52276   0.54716   0.29168   0.00000  Uiso   1.00
C258   C     0.51954   0.95333   0.21253   0.00000  Uiso   1.00
C259   C     0.52139   0.59317   0.29182   0.00000  Uiso   1.00
C260   C     0.50011   0.83608   0.24985   0.00000  Uiso   1.00
C261   C     0.51814   0.90730   0.21207   0.00000  Uiso   1.00
C262   C     0.50073   0.61608   0.25043   0.00000  Uiso   1.00
C263   C     0.50081   0.88402   0.24977   0.00000  Uiso   1.00
C264   C     0.48132   0.59307   0.20896   0.00000  Uiso   1.00
C265   C     0.48471   0.90676   0.28781   0.00000  Uiso   1.00
C266   C     0.48221   0.54709   0.20896   0.00000  Uiso   1.00
C267   C     0.48559   0.95275   0.28799   0.00000  Uiso   1.00
C268   C     0.50301   0.52414   0.25028   0.00000  Uiso   1.00
C269   C     0.50306   0.97603   0.25040   0.00000  Uiso   1.00
C270   C     0.40691   0.71802   0.01991   0.00000  Uiso   1.00
C271   C     0.45499   0.73335   0.04774   0.00000  Uiso   1.00
C272   C     0.52709   0.83264   0.47060   0.00000  Uiso   1.00
C273   C     0.57800   0.79780   0.13477   0.00000  Uiso   1.00
C274   C     0.45496   0.67760   0.37111   0.00000  Uiso   1.00
C275   C     0.51455   0.79028   0.44792   0.00000  Uiso   1.00
C276   C     0.45853   0.73140   0.09769   0.00000  Uiso   1.00
C277   C     0.51679   0.78733   0.39873   0.00000  Uiso   1.00
C278   C     0.53882   0.77127   0.10630   0.00000  Uiso   1.00
C279   C     0.48053   0.71466   0.39684   0.00000  Uiso   1.00
C280   C     0.53910   0.77065   0.05701   0.00000  Uiso   1.00
H281   H     0.65848   0.74430   0.19507   0.00000  Uiso   1.00
H282   H     0.47200   0.97013   0.31705   0.00000  Uiso   1.00
H283   H     0.42699   0.71636   0.11386   0.00000  Uiso   1.00
H284   H     0.53050   0.81568   0.38004   0.00000  Uiso   1.00
H285   H     0.57222   0.78523   0.04275   0.00000  Uiso   1.00
H286   H     0.46905   0.68520   0.46368   0.00000  Uiso   1.00
H287   H     0.34167   0.75230   0.30523   0.00000  Uiso   1.00
H288   H     0.53946   0.52957   0.32362   0.00000  Uiso   1.00
H289   H     0.53367   0.97120   0.18358   0.00000  Uiso   1.00
H290   H     0.53706   0.61079   0.32390   0.00000  Uiso   1.00
H291   H     0.53118   0.88999   0.18271   0.00000  Uiso   1.00
H292   H     0.46489   0.61057   0.17686   0.00000  Uiso   1.00
H293   H     0.47086   0.88906   0.31701   0.00000  Uiso   1.00
H294   H     0.46610   0.52945   0.17703   0.00000  Uiso   1.00
N295   N     0.50000   0.74999   0.12623   0.00000  Uiso   1.00
N296   N     0.50000   0.75001   0.37376   0.00000  Uiso   1.00
N297   N     0.36830   0.70578   0.49767   0.00000  Uiso   1.00
N298   N     0.53711   0.86666   0.48871   0.00000  Uiso   1.00
N299   N     0.60938   0.81973   0.15715   0.00000  Uiso   1.00
N300   N     0.43377   0.64765   0.35106   0.00000  Uiso   1.00
O301   O     0.50000   0.68454   0.28974   0.00000  Uiso   1.00
O302   O     0.50000   0.81547   0.21026   0.00000  Uiso   1.00
O303   O     0.50000   0.68453   0.21026   0.00000  Uiso   1.00
O304   O     0.50000   0.81547   0.28974   0.00000  Uiso   1.00
O305   O     0.42392   0.75000   0.28044   0.00000  Uiso   1.00
O306   O     0.57608   0.75000   0.21955   0.00000  Uiso   1.00
O307   O     0.42392   0.75000   0.20096   0.00000  Uiso   1.00
O308   O     0.57608   0.75000   0.29903   0.00000  Uiso   1.00
Zn309  Zn    0.50000   0.75001   0.30307   0.00000  Uiso   1.00
Zn310  Zn    0.50000   0.75000   0.19693   0.00000  Uiso   1.00
C311   C     0.83340   0.66395   0.25017   0.00000  Uiso   1.00
C312   C     0.81497   0.71485   0.44629   0.00000  Uiso   1.00
C313   C     0.83006   0.75240   0.02633   0.00000  Uiso   1.00
C314   C     0.83089   0.75296   0.47302   0.00000  Uiso   1.00
C315   C     0.73378   0.74933   0.23766   0.00000  Uiso   1.00
C316   C     0.93291   0.74974   0.26238   0.00000  Uiso   1.00
C317   C     0.67883   0.74749   0.23110   0.00000  Uiso   1.00
C318   C     0.98792   0.74974   0.26911   0.00000  Uiso   1.00
C319   C     0.85609   0.54716   0.29168   0.00000  Uiso   1.00
C320   C     0.85287   0.95333   0.21253   0.00000  Uiso   1.00
C321   C     0.85472   0.59317   0.29182   0.00000  Uiso   1.00
C322   C     0.83345   0.83608   0.24985   0.00000  Uiso   1.00
C323   C     0.85148   0.90730   0.21207   0.00000  Uiso   1.00
C324   C     0.83406   0.61608   0.25043   0.00000  Uiso   1.00
C325   C     0.83414   0.88402   0.24977   0.00000  Uiso   1.00
C326   C     0.81465   0.59307   0.20896   0.00000  Uiso   1.00
C327   C     0.81804   0.90676   0.28781   0.00000  Uiso   1.00
C328   C     0.81555   0.54709   0.20896   0.00000  Uiso   1.00
C329   C     0.81892   0.95275   0.28799   0.00000  Uiso   1.00
C330   C     0.83634   0.52414   0.25028   0.00000  Uiso   1.00
C331   C     0.83639   0.97603   0.25040   0.00000  Uiso   1.00
C332   C     0.74025   0.71802   0.01991   0.00000  Uiso   1.00
C333   C     0.78832   0.73335   0.04774   0.00000  Uiso   1.00
C334   C     0.86042   0.83264   0.47060   0.00000  Uiso   1.00
C335   C     0.91133   0.79780   0.13477   0.00000  Uiso   1.00
C336   C     0.78830   0.67760   0.37111   0.00000  Uiso   1.00
C337   C     0.84788   0.79028   0.44792   0.00000  Uiso   1.00
C338   C     0.79186   0.73140   0.09769   0.00000  Uiso   1.00
C339   C     0.85013   0.78733   0.39873   0.00000  Uiso   1.00
C340   C     0.87215   0.77127   0.10630   0.00000  Uiso   1.00
C341   C     0.81386   0.71466   0.39684   0.00000  Uiso   1.00
C342   C     0.87243   0.77065   0.05701   0.00000  Uiso   1.00
H343   H     0.99181   0.74430   0.19507   0.00000  Uiso   1.00
H344   H     0.80533   0.97013   0.31705   0.00000  Uiso   1.00
H345   H     0.76032   0.71636   0.11386   0.00000  Uiso   1.00
H346   H     0.86384   0.81568   0.38004   0.00000  Uiso   1.00
H347   H     0.90555   0.78523   0.04275   0.00000  Uiso   1.00
H348   H     0.80238   0.68520   0.46368   0.00000  Uiso   1.00
H349   H     0.67500   0.75230   0.30523   0.00000  Uiso   1.00
H350   H     0.87279   0.52957   0.32362   0.00000  Uiso   1.00
H351   H     0.86700   0.97120   0.18358   0.00000  Uiso   1.00
H352   H     0.87039   0.61079   0.32390   0.00000  Uiso   1.00
H353   H     0.86451   0.88999   0.18271   0.00000  Uiso   1.00
H354   H     0.79823   0.61057   0.17686   0.00000  Uiso   1.00
H355   H     0.80420   0.88906   0.31701   0.00000  Uiso   1.00
H356   H     0.79943   0.52945   0.17703   0.00000  Uiso   1.00
N357   N     0.83333   0.74999   0.12623   0.00000  Uiso   1.00
N358   N     0.83333   0.75001   0.37376   0.00000  Uiso   1.00
N359   N     0.70163   0.70578   0.49767   0.00000  Uiso   1.00
N360   N     0.87044   0.86666   0.48871   0.00000  Uiso   1.00
N361   N     0.94272   0.81973   0.15715   0.00000  Uiso   1.00
N362   N     0.76710   0.64765   0.35106   0.00000  Uiso   1.00
O363   O     0.83334   0.68454   0.28974   0.00000  Uiso   1.00
O364   O     0.83333   0.81547   0.21026   0.00000  Uiso   1.00
O365   O     0.83334   0.68453   0.21026   0.00000  Uiso   1.00
O366   O     0.83333   0.81547   0.28974   0.00000  Uiso   1.00
O367   O     0.75725   0.75000   0.28044   0.00000  Uiso   1.00
O368   O     0.90942   0.75000   0.21955   0.00000  Uiso   1.00
O369   O     0.75725   0.75000   0.20096   0.00000  Uiso   1.00
O370   O     0.90942   0.75000   0.29903   0.00000  Uiso   1.00
Zn371  Zn    0.83333   0.75001   0.30307   0.00000  Uiso   1.00
Zn372  Zn    0.83333   0.75000   0.19693   0.00000  Uiso   1.00
C373   C     0.16673   0.16395   0.75017   0.00000  Uiso   1.00
C374   C     0.14830   0.21485   0.94629   0.00000  Uiso   1.00
C375   C     0.16339   0.25240   0.52633   0.00000  Uiso   1.00
C376   C     0.16422   0.25296   0.97302   0.00000  Uiso   1.00
C377   C     0.06711   0.24933   0.73766   0.00000  Uiso   1.00
C378   C     0.26624   0.24974   0.76238   0.00000  Uiso   1.00
C379   C     0.01216   0.24749   0.73110   0.00000  Uiso   1.00
C380   C     0.32125   0.24974   0.76911   0.00000  Uiso   1.00
C381   C     0.18943   0.04716   0.79168   0.00000  Uiso   1.00
C382   C     0.18620   0.45333   0.71253   0.00000  Uiso   1.00
C383   C     0.18805   0.09317   0.79182   0.00000  Uiso   1.00
C384   C     0.16678   0.33608   0.74985   0.00000  Uiso   1.00
C385   C     0.18481   0.40730   0.71207   0.00000  Uiso   1.00
C386   C     0.16740   0.11608   0.75043   0.00000  Uiso   1.00
C387   C     0.16748   0.38402   0.74977   0.00000  Uiso   1.00
C388   C     0.14799   0.09307   0.70896   0.00000  Uiso   1.00
C389   C     0.15137   0.40676   0.78781   0.00000  Uiso   1.00
C390   C     0.14888   0.04709   0.70896   0.00000  Uiso   1.00
C391   C     0.15225   0.45275   0.78799   0.00000  Uiso   1.00
C392   C     0.16967   0.02414   0.75028   0.00000  Uiso   1.00
C393   C     0.16973   0.47603   0.75040   0.00000  Uiso   1.00
C394   C     0.07358   0.21802   0.51991   0.00000  Uiso   1.00
C395   C     0.12165   0.23335   0.54774   0.00000  Uiso   1.00
C396   C     0.19376   0.33264   0.97060   0.00000  Uiso   1.00
C397   C     0.24466   0.29780   0.63477   0.00000  Uiso   1.00
C398   C     0.12163   0.17760   0.87111   0.00000  Uiso   1.00
C399   C     0.18121   0.29028   0.94792   0.00000  Uiso   1.00
C400   C     0.12519   0.23140   0.59769   0.00000  Uiso   1.00
C401   C     0.18346   0.28733   0.89873   0.00000  Uiso   1.00
C402   C     0.20549   0.27127   0.60630   0.00000  Uiso   1.00
C403   C     0.14719   0.21466   0.89684   0.00000  Uiso   1.00
C404   C     0.20577   0.27065   0.55701   0.00000  Uiso   1.00
H405   H     0.32515   0.24430   0.69507   0.00000  Uiso   1.00
H406   H     0.13867   0.47013   0.81705   0.00000  Uiso   1.00
H407   H     0.09365   0.21636   0.61386   0.00000  Uiso   1.00
H408   H     0.19717   0.31568   0.88004   0.00000  Uiso   1.00
H409   H     0.23888   0.28523   0.54275   0.00000  Uiso   1.00
H410   H     0.13572   0.18520   0.96368   0.00000  Uiso   1.00
H411   H     0.00833   0.25230   0.80523   0.00000  Uiso   1.00
H412   H     0.20612   0.02957   0.82362   0.00000  Uiso   1.00
H413   H     0.20034   0.47120   0.68358   0.00000  Uiso   1.00
H414   H     0.20372   0.11079   0.82390   0.00000  Uiso   1.00
H415   H     0.19785   0.38999   0.68271   0.00000  Uiso   1.00
H416   H     0.13156   0.11057   0.67686   0.00000  Uiso   1.00
H417   H     0.13753   0.38906   0.81701   0.00000  Uiso   1.00
H418   H     0.13276   0.02945   0.67703   0.00000  Uiso   1.00
N419   N     0.16667   0.24999   0.62623   0.00000  Uiso   1.00
N420   N     0.16667   0.25001   0.87376   0.00000  Uiso   1.00
N421   N     0.03496   0.20578   0.99767   0.00000  Uiso   1.00
N422   N     0.20378   0.36666   0.98871   0.00000  Uiso   1.00
N423   N     0.27605   0.31973   0.65715   0.00000  Uiso   1.00
N424   N     0.10043   0.14765   0.85106   0.00000  Uiso   1.00
O425   O     0.16667   0.18454   0.78974   0.00000  Uiso   1.00
O426   O     0.16666   0.31547   0.71026   0.00000  Uiso   1.00
O427   O     0.16667   0.18453   0.71026   0.00000  Uiso   1.00
O428   O     0.16666   0.31547   0.78974   0.00000  Uiso   1.00
O429   O     0.09058   0.25000   0.78044   0.00000  Uiso   1.00
O430   O     0.24275   0.25000   0.71955   0.00000  Uiso   1.00
O431   O     0.09058   0.25000   0.70096   0.00000  Uiso   1.00
O432   O     0.24275   0.25000   0.79903   0.00000  Uiso   1.00
Zn433  Zn    0.16667   0.25001   0.80307   0.00000  Uiso   1.00
Zn434  Zn    0.16667   0.25000   0.69693   0.00000  Uiso   1.00
C435   C     0.50007   0.16395   0.75017   0.00000  Uiso   1.00
C436   C     0.48164   0.21485   0.94629   0.00000  Uiso   1.00
C437   C     0.49672   0.25240   0.52633   0.00000  Uiso   1.00
C438   C     0.49756   0.25296   0.97302   0.00000  Uiso   1.00
C439   C     0.40044   0.24933   0.73766   0.00000  Uiso   1.00
C440   C     0.59958   0.24974   0.76238   0.00000  Uiso   1.00
C441   C     0.34549   0.24749   0.73110   0.00000  Uiso   1.00
C442   C     0.65458   0.24974   0.76911   0.00000  Uiso   1.00
C443   C     0.52276   0.04716   0.79168   0.00000  Uiso   1.00
C444   C     0.51954   0.45333   0.71253   0.00000  Uiso   1.00
C445   C     0.52139   0.09317   0.79182   0.00000  Uiso   1.00
C446   C     0.50011   0.33608   0.74985   0.00000  Uiso   1.00
C447   C     0.51814   0.40730   0.71207   0.00000  Uiso   1.00
C448   C     0.50073   0.11608   0.75043   0.00000  Uiso   1.00
C449   C     0.50081   0.38402   0.74977   0.00000  Uiso   1.00
C450   C     0.48132   0.09307   0.70896   0.00000  Uiso   1.00
C451   C     0.48471   0.40676   0.78781   0.00000  Uiso   1.00
C452   C     0.48221   0.04709   0.70896   0.00000  Uiso   1.00
C453   C     0.48559   0.45275   0.78799   0.00000  Uiso   1.00
C454   C     0.50301   0.02414   0.75028   0.00000  Uiso   1.00
C455   C     0.50306   0.47603   0.75040   0.00000  Uiso   1.00
C456   C     0.40691   0.21802   0.51991   0.00000  Uiso   1.00
C457   C     0.45499   0.23335   0.54774   0.00000  Uiso   1.00
C458   C     0.52709   0.33264   0.97060   0.00000  Uiso   1.00
C459   C     0.57800   0.29780   0.63477   0.00000  Uiso   1.00
C460   C     0.45496   0.17760   0.87111   0.00000  Uiso   1.00
C461   C     0.51455   0.29028   0.94792   0.00000  Uiso   1.00
C462   C     0.45853   0.23140   0.59769   0.00000  Uiso   1.00
C463   C     0.51679   0.28733   0.89873   0.00000  Uiso   1.00
C464   C     0.53882   0.27127   0.60630   0.00000  Uiso   1.00
C465   C     0.48053   0.21466   0.89684   0.00000  Uiso   1.00
C466   C     0.53910   0.27065   0.55701   0.00000  Uiso   1.00
H467   H     0.65848   0.24430   0.69507   0.00000  Uiso   1.00
H468   H     0.47200   0.47013   0.81705   0.00000  Uiso   1.00
H469   H     0.42699   0.21636   0.61386   0.00000  Uiso   1.00
H470   H     0.53050   0.31568   0.88004   0.00000  Uiso   1.00
H471   H     0.57222   0.28523   0.54275   0.00000  Uiso   1.00
H472   H     0.46905   0.18520   0.96368   0.00000  Uiso   1.00
H473   H     0.34167   0.25230   0.80523   0.00000  Uiso   1.00
H474   H     0.53946   0.02957   0.82362   0.00000  Uiso   1.00
H475   H     0.53367   0.47120   0.68358   0.00000  Uiso   1.00
H476   H     0.53706   0.11079   0.82390   0.00000  Uiso   1.00
H477   H     0.53118   0.38999   0.68271   0.00000  Uiso   1.00
H478   H     0.46489   0.11057   0.67686   0.00000  Uiso   1.00
H479   H     0.47086   0.38906   0.81701   0.00000  Uiso   1.00
H480   H     0.46610   0.02945   0.67703   0.00000  Uiso   1.00
N481   N     0.50000   0.24999   0.62623   0.00000  Uiso   1.00
N482   N     0.50000   0.25001   0.87376   0.00000  Uiso   1.00
N483   N     0.36830   0.20578   0.99767   0.00000  Uiso   1.00
N484   N     0.53711   0.36666   0.98871   0.00000  Uiso   1.00
N485   N     0.60938   0.31973   0.65715   0.00000  Uiso   1.00
N486   N     0.43377   0.14765   0.85106   0.00000  Uiso   1.00
O487   O     0.50000   0.18454   0.78974   0.00000  Uiso   1.00
O488   O     0.50000   0.31547   0.71026   0.00000  Uiso   1.00
O489   O     0.50000   0.18453   0.71026   0.00000  Uiso   1.00
O490   O     0.50000   0.31547   0.78974   0.00000  Uiso   1.00
O491   O     0.42392   0.25000   0.78044   0.00000  Uiso   1.00
O492   O     0.57608   0.25000   0.71955   0.00000  Uiso   1.00
O493   O     0.42392   0.25000   0.70096   0.00000  Uiso   1.00
O494   O     0.57608   0.25000   0.79903   0.00000  Uiso   1.00
Zn495  Zn    0.50000   0.25001   0.80307   0.00000  Uiso   1.00
Zn496  Zn    0.50000   0.25000   0.69693   0.00000  Uiso   1.00
C497   C     0.83340   0.16395   0.75017   0.00000  Uiso   1.00
C498   C     0.81497   0.21485   0.94629   0.00000  Uiso   1.00
C499   C     0.83006   0.25240   0.52633   0.00000  Uiso   1.00
C500   C     0.83089   0.25296   0.97302   0.00000  Uiso   1.00
C501   C     0.73378   0.24933   0.73766   0.00000  Uiso   1.00
C502   C     0.93291   0.24974   0.76238   0.00000  Uiso   1.00
C503   C     0.67883   0.24749   0.73110   0.00000  Uiso   1.00
C504   C     0.98792   0.24974   0.76911   0.00000  Uiso   1.00
C505   C     0.85609   0.04716   0.79168   0.00000  Uiso   1.00
C506   C     0.85287   0.45333   0.71253   0.00000  Uiso   1.00
C507   C     0.85472   0.09317   0.79182   0.00000  Uiso   1.00
C508   C     0.83345   0.33608   0.74985   0.00000  Uiso   1.00
C509   C     0.85148   0.40730   0.71207   0.00000  Uiso   1.00
C510   C     0.83406   0.11608   0.75043   0.00000  Uiso   1.00
C511   C     0.83414   0.38402   0.74977   0.00000  Uiso   1.00
C512   C     0.81465   0.09307   0.70896   0.00000  Uiso   1.00
C513   C     0.81804   0.40676   0.78781   0.00000  Uiso   1.00
C514   C     0.81555   0.04709   0.70896   0.00000  Uiso   1.00
C515   C     0.81892   0.45275   0.78799   0.00000  Uiso   1.00
C516   C     0.83634   0.02414   0.75028   0.00000  Uiso   1.00
C517   C     0.83639   0.47603   0.75040   0.00000  Uiso   1.00
C518   C     0.74025   0.21802   0.51991   0.00000  Uiso   1.00
C519   C     0.78832   0.23335   0.54774   0.00000  Uiso   1.00
C520   C     0.86042   0.33264   0.97060   0.00000  Uiso   1.00
C521   C     0.91133   0.29780   0.63477   0.00000  Uiso   1.00
C522   C     0.78830   0.17760   0.87111   0.00000  Uiso   1.00
C523   C     0.84788   0.29028   0.94792   0.00000  Uiso   1.00
C524   C     0.79186   0.23140   0.59769   0.00000  Uiso   1.00
C525   C     0.85013   0.28733   0.89873   0.00000  Uiso   1.00
C526   C     0.87215   0.27127   0.60630   0.00000  Uiso   1.00
C527   C     0.81386   0.21466   0.89684   0.00000  Uiso   1.00
C528   C     0.87243   0.27065   0.55701   0.00000  Uiso   1.00
H529   H     0.99181   0.24430   0.69507   0.00000  Uiso   1.00
H530   H     0.80533   0.47013   0.81705   0.00000  Uiso   1.00
H531   H     0.76032   0.21636   0.61386   0.00000  Uiso   1.00
H532   H     0.86384   0.31568   0.88004   0.00000  Uiso   1.00
H533   H     0.90555   0.28523   0.54275   0.00000  Uiso   1.00
H534   H     0.80238   0.18520   0.96368   0.00000  Uiso   1.00
H535   H     0.67500   0.25230   0.80523   0.00000  Uiso   1.00
H536   H     0.87279   0.02957   0.82362   0.00000  Uiso   1.00
H537   H     0.86700   0.47120   0.68358   0.00000  Uiso   1.00
H538   H     0.87039   0.11079   0.82390   0.00000  Uiso   1.00
H539   H     0.86451   0.38999   0.68271   0.00000  Uiso   1.00
H540   H     0.79823   0.11057   0.67686   0.00000  Uiso   1.00
H541   H     0.80420   0.38906   0.81701   0.00000  Uiso   1.00
H542   H     0.79943   0.02945   0.67703   0.00000  Uiso   1.00
N543   N     0.83333   0.24999   0.62623   0.00000  Uiso   1.00
N544   N     0.83333   0.25001   0.87376   0.00000  Uiso   1.00
N545   N     0.70163   0.20578   0.99767   0.00000  Uiso   1.00
N546   N     0.87044   0.36666   0.98871   0.00000  Uiso   1.00
N547   N     0.94272   0.31973   0.65715   0.00000  Uiso   1.00
N548   N     0.76710   0.14765   0.85106   0.00000  Uiso   1.00
O549   O     0.83334   0.18454   0.78974   0.00000  Uiso   1.00
O550   O     0.83333   0.31547   0.71026   0.00000  Uiso   1.00
O551   O     0.83334   0.18453   0.71026   0.00000  Uiso   1.00
O552   O     0.83333   0.31547   0.78974   0.00000  Uiso   1.00
O553   O     0.75725   0.25000   0.78044   0.00000  Uiso   1.00
O554   O     0.90942   0.25000   0.71955   0.00000  Uiso   1.00
O555   O     0.75725   0.25000   0.70096   0.00000  Uiso   1.00
O556   O     0.90942   0.25000   0.79903   0.00000  Uiso   1.00
Zn557  Zn    0.83333   0.25001   0.80307   0.00000  Uiso   1.00
Zn558  Zn    0.83333   0.25000   0.69693   0.00000  Uiso   1.00
C559   C     0.16673   0.66395   0.75017   0.00000  Uiso   1.00
C560   C     0.14830   0.71485   0.94629   0.00000  Uiso   1.00
C561   C     0.16339   0.75240   0.52633   0.00000  Uiso   1.00
C562   C     0.16422   0.75296   0.97302   0.00000  Uiso   1.00
C563   C     0.06711   0.74933   0.73766   0.00000  Uiso   1.00
C564   C     0.26624   0.74974   0.76238   0.00000  Uiso   1.00
C565   C     0.01216   0.74749   0.73110   0.00000  Uiso   1.00
C566   C     0.32125   0.74974   0.76911   0.00000  Uiso   1.00
C567   C     0.18943   0.54716   0.79168   0.00000  Uiso   1.00
C568   C     0.18620   0.95333   0.71253   0.00000  Uiso   1.00
C569   C     0.18805   0.59317   0.79182   0.00000  Uiso   1.00
C570   C     0.16678   0.83608   0.74985   0.00000  Uiso   1.00
C571   C     0.18481   0.90730   0.71207   0.00000  Uiso   1.00
C572   C     0.16740   0.61608   0.75043   0.00000  Uiso   1.00
C573   C     0.16748   0.88402   0.74977   0.00000  Uiso   1.00
C574   C     0.14799   0.59307   0.70896   0.00000  Uiso   1.00
C575   C     0.15137   0.90676   0.78781   0.00000  Uiso   1.00
C576   C     0.14888   0.54709   0.70896   0.00000  Uiso   1.00
C577   C     0.15225   0.95275   0.78799   0.00000  Uiso   1.00
C578   C     0.16967   0.52414   0.75028   0.00000  Uiso   1.00
C579   C     0.16973   0.97603   0.75040   0.00000  Uiso   1.00
C580   C     0.07358   0.71802   0.51991   0.00000  Uiso   1.00
C581   C     0.12165   0.73335   0.54774   0.00000  Uiso   1.00
C582   C     0.19376   0.83264   0.97060   0.00000  Uiso   1.00
C583   C     0.24466   0.79780   0.63477   0.00000  Uiso   1.00
C584   C     0.12163   0.67760   0.87111   0.00000  Uiso   1.00
C585   C     0.18121   0.79028   0.94792   0.00000  Uiso   1.00
C586   C     0.12519   0.73140   0.59769   0.00000  Uiso   1.00
C587   C     0.18346   0.78733   0.89873   0.00000  Uiso   1.00
C588   C     0.20549   0.77127   0.60630   0.00000  Uiso   1.00
C589   C     0.14719   0.71466   0.89684   0.00000  Uiso   1.00
C590   C     0.20577   0.77065   0.55701   0.00000  Uiso   1.00
H591   H     0.32515   0.74430   0.69507   0.00000  Uiso   1.00
H592   H     0.13867   0.97013   0.81705   0.00000  Uiso   1.00
H593   H     0.09365   0.71636   0.61386   0.00000  Uiso   1.00
H594   H     0.19717   0.81568   0.88004   0.00000  Uiso   1.00
H595   H     0.23888   0.78523   0.54275   0.00000  Uiso   1.00
H596   H     0.13572   0.68520   0.96368   0.00000  Uiso   1.00
H597   H     0.00833   0.75230   0.80523   0.00000  Uiso   1.00
H598   H     0.20612   0.52957   0.82362   0.00000  Uiso   1.00
H599   H     0.20034   0.97120   0.68358   0.00000  Uiso   1.00
H600   H     0.20372   0.61079   0.82390   0.00000  Uiso   1.00
H601   H     0.19785   0.88999   0.68271   0.00000  Uiso   1.00
H602   H     0.13156   0.61057   0.67686   0.00000  Uiso   1.00
H603   H     0.13753   0.88906   0.81701   0.00000  Uiso   1.00
H604   H     0.13276   0.52945   0.67703   0.00000  Uiso   1.00
N605   N     0.16667   0.74999   0.62623   0.00000  Uiso   1.00
N606   N     0.16667   0.75001   0.87376   0.00000  Uiso   1.00
N607   N     0.03496   0.70578   0.99767   0.00000  Uiso   1.00
N608   N     0.20378   0.86666   0.98871   0.00000  Uiso   1.00
N609   N     0.27605   0.81973   0.65715   0.00000  Uiso   1.00
N610   N     0.10043   0.64765   0.85106   0.00000  Uiso   1.00
O611   O     0.16667   0.68454   0.78974   0.00000  Uiso   1.00
O612   O     0.16666   0.81547   0.71026   0.00000  Uiso   1.00
O613   O     0.16667   0.68453   0.71026   0.00000  Uiso   1.00
O614   O     0.16666   0.81547   0.78974   0.00000  Uiso   1.00
O615   O     0.09058   0.75000   0.78044   0.00000  Uiso   1.00
O616   O     0.24275   0.75000   0.71955   0.00000  Uiso   1.00
O617   O     0.09058   0.75000   0.70096   0.00000  Uiso   1.00
O618   O     0.24275   0.75000   0.79903   0.00000  Uiso   1.00
Zn619  Zn    0.16667   0.75001   0.80307   0.00000  Uiso   1.00
Zn620  Zn    0.16667   0.75000   0.69693   0.00000  Uiso   1.00
C621   C     0.50007   0.66395   0.75017   0.00000  Uiso   1.00
C622   C     0.48164   0.71485   0.94629   0.00000  Uiso   1.00
C623   C     0.49672   0.75240   0.52633   0.00000  Uiso   1.00
C624   C     0.49756   0.75296   0.97302   0.00000  Uiso   1.00
C625   C     0.40044   0.74933   0.73766   0.00000  Uiso   1.00
C626   C     0.59958   0.74974   0.76238   0.00000  Uiso   1.00
C627   C     0.34549   0.74749   0.73110   0.00000  Uiso   1.00
C628   C     0.65458   0.74974   0.76911   0.00000  Uiso   1.00
C629   C     0.52276   0.54716   0.79168   0.00000  Uiso   1.00
C630   C     0.51954   0.95333   0.71253   0.00000  Uiso   1.00
C631   C     0.52139   0.59317   0.79182   0.00000  Uiso   1.00
C632   C     0.50011   0.83608   0.74985   0.00000  Uiso   1.00
C633   C     0.51814   0.90730   0.71207   0.00000  Uiso   1.00
C634   C     0.50073   0.61608   0.75043   0.00000  Uiso   1.00
C635   C     0.50081   0.88402   0.74977   0.00000  Uiso   1.00
C636   C     0.48132   0.59307   0.70896   0.00000  Uiso   1.00
C637   C     0.48471   0.90676   0.78781   0.00000  Uiso   1.00
C638   C     0.48221   0.54709   0.70896   0.00000  Uiso   1.00
C639   C     0.48559   0.95275   0.78799   0.00000  Uiso   1.00
C640   C     0.50301   0.52414   0.75028   0.00000  Uiso   1.00
C641   C     0.50306   0.97603   0.75040   0.00000  Uiso   1.00
C642   C     0.40691   0.71802   0.51991   0.00000  Uiso   1.00
C643   C     0.45499   0.73335   0.54774   0.00000  Uiso   1.00
C644   C     0.52709   0.83264   0.97060   0.00000  Uiso   1.00
C645   C     0.57800   0.79780   0.63477   0.00000  Uiso   1.00
C646   C     0.45496   0.67760   0.87111   0.00000  Uiso   1.00
C647   C     0.51455   0.79028   0.94792   0.00000  Uiso   1.00
C648   C     0.45853   0.73140   0.59769   0.00000  Uiso   1.00
C649   C     0.51679   0.78733   0.89873   0.00000  Uiso   1.00
C650   C     0.53882   0.77127   0.60630   0.00000  Uiso   1.00
C651   C     0.48053   0.71466   0.89684   0.00000  Uiso   1.00
C652   C     0.53910   0.77065   0.55701   0.00000  Uiso   1.00
H653   H     0.65848   0.74430   0.69507   0.00000  Uiso   1.00
H654   H     0.47200   0.97013   0.81705   0.00000  Uiso   1.00
H655   H     0.42699   0.71636   0.61386   0.00000  Uiso   1.00
H656   H     0.53050   0.81568   0.88004   0.00000  Uiso   1.00
H657   H     0.57222   0.78523   0.54275   0.00000  Uiso   1.00
H658   H     0.46905   0.68520   0.96368   0.00000  Uiso   1.00
H659   H     0.34167   0.75230   0.80523   0.00000  Uiso   1.00
H660   H     0.53946   0.52957   0.82362   0.00000  Uiso   1.00
H661   H     0.53367   0.97120   0.68358   0.00000  Uiso   1.00
H662   H     0.53706   0.61079   0.82390   0.00000  Uiso   1.00
H663   H     0.53118   0.88999   0.68271   0.00000  Uiso   1.00
H664   H     0.46489   0.61057   0.67686   0.00000  Uiso   1.00
H665   H     0.47086   0.88906   0.81701   0.00000  Uiso   1.00
H666   H     0.46610   0.52945   0.67703   0.00000  Uiso   1.00
N667   N     0.50000   0.74999   0.62623   0.00000  Uiso   1.00
N668   N     0.50000   0.75001   0.87376   0.00000  Uiso   1.00
N669   N     0.36830   0.70578   0.99767   0.00000  Uiso   1.00
N670   N     0.53711   0.86666   0.98871   0.00000  Uiso   1.00
N671   N     0.60938   0.81973   0.65715   0.00000  Uiso   1.00
N672   N     0.43377   0.64765   0.85106   0.00000  Uiso   1.00
O673   O     0.50000   0.68454   0.78974   0.00000  Uiso   1.00
O674   O     0.50000   0.81547   0.71026   0.00000  Uiso   1.00
O675   O     0.50000   0.68453   0.71026   0.00000  Uiso   1.00
O676   O     0.50000   0.81547   0.78974   0.00000  Uiso   1.00
O677   O     0.42392   0.75000   0.78044   0.00000  Uiso   1.00
O678   O     0.57608   0.75000   0.71955   0.00000  Uiso   1.00
O679   O     0.42392   0.75000   0.70096   0.00000  Uiso   1.00
O680   O     0.57608   0.75000   0.79903   0.00000  Uiso   1.00
Zn681  Zn    0.50000   0.75001   0.80307   0.00000  Uiso   1.00
Zn682  Zn    0.50000   0.75000   0.69693   0.00000  Uiso   1.00
C683   C     0.83340   0.66395   0.75017   0.00000  Uiso   1.00
C684   C     0.81497   0.71485   0.94629   0.00000  Uiso   1.00
C685   C     0.83006   0.75240   0.52633   0.00000  Uiso   1.00
C686   C     0.83089   0.75296   0.97302   0.00000  Uiso   1.00
C687   C     0.73378   0.74933   0.73766   0.00000  Uiso   1.00
C688   C     0.93291   0.74974   0.76238   0.00000  Uiso   1.00
C689   C     0.67883   0.74749   0.73110   0.00000  Uiso   1.00
C690   C     0.98792   0.74974   0.76911   0.00000  Uiso   1.00
C691   C     0.85609   0.54716   0.79168   0.00000  Uiso   1.00
C692   C     0.85287   0.95333   0.71253   0.00000  Uiso   1.00
C693   C     0.85472   0.59317   0.79182   0.00000  Uiso   1.00
C694   C     0.83345   0.83608   0.74985   0.00000  Uiso   1.00
C695   C     0.85148   0.90730   0.71207   0.00000  Uiso   1.00
C696   C     0.83406   0.61608   0.75043   0.00000  Uiso   1.00
C697   C     0.83414   0.88402   0.74977   0.00000  Uiso   1.00
C698   C     0.81465   0.59307   0.70896   0.00000  Uiso   1.00
C699   C     0.81804   0.90676   0.78781   0.00000  Uiso   1.00
C700   C     0.81555   0.54709   0.70896   0.00000  Uiso   1.00
C701   C     0.81892   0.95275   0.78799   0.00000  Uiso   1.00
C702   C     0.83634   0.52414   0.75028   0.00000  Uiso   1.00
C703   C     0.83639   0.97603   0.75040   0.00000  Uiso   1.00
C704   C     0.74025   0.71802   0.51991   0.00000  Uiso   1.00
C705   C     0.78832   0.73335   0.54774   0.00000  Uiso   1.00
C706   C     0.86042   0.83264   0.97060   0.00000  Uiso   1.00
C707   C     0.91133   0.79780   0.63477   0.00000  Uiso   1.00
C708   C     0.78830   0.67760   0.87111   0.00000  Uiso   1.00
C709   C     0.84788   0.79028   0.94792   0.00000  Uiso   1.00
C710   C     0.79186   0.73140   0.59769   0.00000  Uiso   1.00
C711   C     0.85013   0.78733   0.89873   0.00000  Uiso   1.00
C712   C     0.87215   0.77127   0.60630   0.00000  Uiso   1.00
C713   C     0.81386   0.71466   0.89684   0.00000  Uiso   1.00
C714   C     0.87243   0.77065   0.55701   0.00000  Uiso   1.00
H715   H     0.99181   0.74430   0.69507   0.00000  Uiso   1.00
H716   H     0.80533   0.97013   0.81705   0.00000  Uiso   1.00
H717   H     0.76032   0.71636   0.61386   0.00000  Uiso   1.00
H718   H     0.86384   0.81568   0.88004   0.00000  Uiso   1.00
H719   H     0.90555   0.78523   0.54275   0.00000  Uiso   1.00
H720   H     0.80238   0.68520   0.96368   0.00000  Uiso   1.00
H721   H     0.67500   0.75230   0.80523   0.00000  Uiso   1.00
H722   H     0.87279   0.52957   0.82362   0.00000  Uiso   1.00
H723   H     0.86700   0.97120   0.68358   0.00000  Uiso   1.00
H724   H     0.87039   0.61079   0.82390   0.00000  Uiso   1.00
H725   H     0.86451   0.88999   0.68271   0.00000  Uiso   1.00
H726   H     0.79823   0.61057   0.67686   0.00000  Uiso   1.00
H727   H     0.80420   0.88906   0.81701   0.00000  Uiso   1.00
H728   H     0.79943   0.52945   0.67703   0.00000  Uiso   1.00
N729   N     0.83333   0.74999   0.62623   0.00000  Uiso   1.00
N730   N     0.83333   0.75001   0.87376   0.00000  Uiso   1.00
N731   N     0.70163   0.70578   0.99767   0.00000  Uiso   1.00
N732   N     0.87044   0.86666   0.98871   0.00000  Uiso   1.00
N733   N     0.94272   0.81973   0.65715   0.00000  Uiso   1.00
N734   N     0.76710   0.64765   0.85106   0.00000  Uiso   1.00
O735   O     0.83334   0.68454   0.78974   0.00000  Uiso   1.00
O736   O     0.83333   0.81547   0.71026   0.00000  Uiso   1.00
O737   O     0.83334   0.68453   0.71026   0.00000  Uiso   1.00
O738   O     0.83333   0.81547   0.78974   0.00000  Uiso   1.00
O739   O     0.75725   0.75000   0.78044   0.00000  Uiso   1.00
O740   O     0.90942   0.75000   0.71955   0.00000  Uiso   1.00
O741   O     0.75725   0.75000   0.70096   0.00000  Uiso   1.00
O742   O     0.90942   0.75000   0.79903   0.00000  Uiso   1.00
Zn743  Zn    0.83333   0.75001   0.80307   0.00000  Uiso   1.00
Zn744  Zn    0.83333   0.75000   0.69693   0.00000  Uiso   1.00
loop_
_geom_bond_atom_site_label_1
_geom_bond_atom_site_label_2
_geom_bond_distance
_geom_bond_site_symmetry_2
_ccdc_geom_bond_type
C1     O55     1.288   .     A
C1     O53     1.290   .     A
C1     C14     1.436   .     S
C2     C4      1.404   .     A
C2     H38     1.083   .     S
C2     C31     1.404   .     A
C3     C23     1.423   .     A
C3     C32     1.405   .     A
C3     C376    1.521   1_554 S
C4     C27     1.422   .     A
C4     C375    1.521   .     S
C5     O57     1.279   .     A
C5     C7      1.401   .     S
C5     O59     1.280   .     A
C6     O60     1.280   .     A
C6     C8      1.402   .     S
C6     O58     1.280   .     A
C7     C132    1.328   1_455 S
C7     H157    1.087   1_455 S
C8     C69     1.328   .     S
C8     H101    1.088   .     S
C9     C20     1.399   .     A
C9     H40     1.083   .     S
C9     C11     1.381   .     A
C10    H41     1.083   .     S
C10    C21     1.399   .     A
C10    C13     1.381   .     A
C11    C14     1.399   .     A
C11    H42     1.084   .     S
C12    O56     1.288   .     A
C12    C15     1.438   .     S
C12    O54     1.290   .     A
C13    C15     1.399   .     A
C13    H43     1.083   .     S
C14    C16     1.399   .     A
C15    C17     1.400   .     A
C16    H44     1.084   .     S
C16    C18     1.380   .     A
C17    C19     1.380   .     A
C17    H45     1.084   .     S
C18    H46     1.083   .     S
C18    C20     1.399   .     A
C19    C21     1.398   .     A
C19    H34     1.083   .     S
C20    C207    1.443   1_545 S
C21    C206    1.443   .     S
C22    C23     1.443   .     S
C22    N421    1.157   1_554 S
C23    C28     1.413   .     A
C24    C27     1.443   .     S
C24    N50     1.157   .     T
C25    N51     1.158   .     T
C25    C30     1.438   .     S
C26    N52     1.158   .     T
C26    C31     1.437   .     S
C27    C29     1.413   .     A
C28    N47     1.363   .     A
C28    H35     1.083   .     S
C29    H36     1.082   .     S
C29    N48     1.364   .     A
C30    C32     1.405   .     A
C30    N47     1.369   .     A
C31    N48     1.371   .     A
C32    H37     1.083   .     S
H33    C69     1.087   .     S
H39    C132    1.088   1_455 S
N47    Zn62    2.013   .     S
N48    Zn61    2.013   .     S
N49    C394    1.157   .     S
O53    Zn61    2.004   .     S
O54    Zn62    2.004   .     S
O55    Zn62    1.997   .     S
O56    Zn61    1.997   .     S
O57    Zn61    1.972   .     S
O58    Zn62    1.972   .     S
O59    Zn62    1.980   .     S
O60    Zn61    1.980   .     S
C63    O117    1.288   .     A
C63    O115    1.290   .     A
C63    C76     1.436   .     S
C64    C66     1.404   .     A
C64    H100    1.083   .     S
C64    C93     1.404   .     A
C65    C85     1.423   .     A
C65    C94     1.405   .     A
C65    C438    1.521   1_554 S
C66    C89     1.422   .     A
C66    C437    1.521   .     S
C67    O119    1.279   .     A
C67    C69     1.401   .     S
C67    O121    1.280   .     A
C68    O122    1.280   .     A
C68    C70     1.402   .     S
C68    O120    1.280   .     A
C70    C131    1.328   .     S
C70    H163    1.088   .     S
C71    C82     1.399   .     A
C71    H102    1.083   .     S
C71    C73     1.381   .     A
C72    H103    1.083   .     S
C72    C83     1.399   .     A
C72    C75     1.381   .     A
C73    C76     1.399   .     A
C73    H104    1.084   .     S
C74    O118    1.288   .     A
C74    C77     1.438   .     S
C74    O116    1.290   .     A
C75    C77     1.399   .     A
C75    H105    1.083   .     S
C76    C78     1.399   .     A
C77    C79     1.400   .     A
C78    H106    1.084   .     S
C78    C80     1.380   .     A
C79    C81     1.380   .     A
C79    H107    1.084   .     S
C80    H108    1.083   .     S
C80    C82     1.399   .     A
C81    C83     1.398   .     A
C81    H96     1.083   .     S
C82    C269    1.443   1_545 S
C83    C268    1.443   .     S
C84    C85     1.443   .     S
C84    N483    1.157   1_554 S
C85    C90     1.413   .     A
C86    C89     1.443   .     S
C86    N112    1.157   .     T
C87    N113    1.158   .     T
C87    C92     1.438   .     S
C88    N114    1.158   .     T
C88    C93     1.437   .     S
C89    C91     1.413   .     A
C90    N109    1.363   .     A
C90    H97     1.083   .     S
C91    H98     1.082   .     S
C91    N110    1.364   .     A
C92    C94     1.405   .     A
C92    N109    1.369   .     A
C93    N110    1.371   .     A
C94    H99     1.083   .     S
H95    C131    1.087   .     S
N109   Zn124   2.013   .     S
N110   Zn123   2.013   .     S
N111   C456    1.157   .     S
O115   Zn123   2.004   .     S
O116   Zn124   2.004   .     S
O117   Zn124   1.997   .     S
O118   Zn123   1.997   .     S
O119   Zn123   1.972   .     S
O120   Zn124   1.972   .     S
O121   Zn124   1.980   .     S
O122   Zn123   1.980   .     S
C125   O179    1.288   .     A
C125   O177    1.290   .     A
C125   C138    1.436   .     S
C126   C128    1.404   .     A
C126   H162    1.083   .     S
C126   C155    1.404   .     A
C127   C147    1.423   .     A
C127   C156    1.405   .     A
C127   C500    1.521   1_554 S
C128   C151    1.422   .     A
C128   C499    1.521   .     S
C129   O181    1.279   .     A
C129   C131    1.401   .     S
C129   O183    1.280   .     A
C130   O184    1.280   .     A
C130   C132    1.402   .     S
C130   O182    1.280   .     A
C132   C7      1.328   1_655 S
C132   H39     1.088   1_655 S
C133   C144    1.399   .     A
C133   H164    1.083   .     S
C133   C135    1.381   .     A
C134   H165    1.083   .     S
C134   C145    1.399   .     A
C134   C137    1.381   .     A
C135   C138    1.399   .     A
C135   H166    1.084   .     S
C136   O180    1.288   .     A
C136   C139    1.438   .     S
C136   O178    1.290   .     A
C137   C139    1.399   .     A
C137   H167    1.083   .     S
C138   C140    1.399   .     A
C139   C141    1.400   .     A
C140   H168    1.084   .     S
C140   C142    1.380   .     A
C141   C143    1.380   .     A
C141   H169    1.084   .     S
C142   H170    1.083   .     S
C142   C144    1.399   .     A
C143   C145    1.398   .     A
C143   H158    1.083   .     S
C144   C331    1.443   1_545 S
C145   C330    1.443   .     S
C146   C147    1.443   .     S
C146   N545    1.157   1_554 S
C147   C152    1.413   .     A
C148   C151    1.443   .     S
C148   N174    1.157   .     T
C149   N175    1.158   .     T
C149   C154    1.438   .     S
C150   N176    1.158   .     T
C150   C155    1.437   .     S
C151   C153    1.413   .     A
C152   N171    1.363   .     A
C152   H159    1.083   .     S
C153   H160    1.082   .     S
C153   N172    1.364   .     A
C154   C156    1.405   .     A
C154   N171    1.369   .     A
C155   N172    1.371   .     A
C156   H161    1.083   .     S
H157   C7      1.087   1_655 S
N171   Zn186   2.013   .     S
N172   Zn185   2.013   .     S
N173   C518    1.157   .     S
O177   Zn185   2.004   .     S
O178   Zn186   2.004   .     S
O179   Zn186   1.997   .     S
O180   Zn185   1.997   .     S
O181   Zn185   1.972   .     S
O182   Zn186   1.972   .     S
O183   Zn186   1.980   .     S
O184   Zn185   1.980   .     S
C187   O241    1.288   .     A
C187   O239    1.290   .     A
C187   C200    1.436   .     S
C188   C190    1.404   .     A
C188   H224    1.083   .     S
C188   C217    1.404   .     A
C189   C209    1.423   .     A
C189   C218    1.405   .     A
C189   C562    1.521   1_554 S
C190   C213    1.422   .     A
C190   C561    1.521   .     S
C191   O243    1.279   .     A
C191   C193    1.401   .     S
C191   O245    1.280   .     A
C192   O246    1.280   .     A
C192   C194    1.402   .     S
C192   O244    1.280   .     A
C193   C318    1.328   1_455 S
C193   H343    1.087   1_455 S
C194   C255    1.328   .     S
C194   H287    1.088   .     S
C195   C206    1.399   .     A
C195   H226    1.083   .     S
C195   C197    1.381   .     A
C196   H227    1.083   .     S
C196   C207    1.399   .     A
C196   C199    1.381   .     A
C197   C200    1.399   .     A
C197   H228    1.084   .     S
C198   O242    1.288   .     A
C198   C201    1.438   .     S
C198   O240    1.290   .     A
C199   C201    1.399   .     A
C199   H229    1.083   .     S
C200   C202    1.399   .     A
C201   C203    1.400   .     A
C202   H230    1.084   .     S
C202   C204    1.380   .     A
C203   C205    1.380   .     A
C203   H231    1.084   .     S
C204   H232    1.083   .     S
C204   C206    1.399   .     A
C205   C207    1.398   .     A
C205   H220    1.083   .     S
C207   C20     1.443   1_565 S
C208   C209    1.443   .     S
C208   N607    1.157   1_554 S
C209   C214    1.413   .     A
C210   C213    1.443   .     S
C210   N236    1.157   .     T
C211   N237    1.158   .     T
C211   C216    1.438   .     S
C212   N238    1.158   .     T
C212   C217    1.437   .     S
C213   C215    1.413   .     A
C214   N233    1.363   .     A
C214   H221    1.083   .     S
C215   H222    1.082   .     S
C215   N234    1.364   .     A
C216   C218    1.405   .     A
C216   N233    1.369   .     A
C217   N234    1.371   .     A
C218   H223    1.083   .     S
H219   C255    1.087   .     S
H225   C318    1.088   1_455 S
N233   Zn248   2.013   .     S
N234   Zn247   2.013   .     S
N235   C580    1.157   .     S
O239   Zn247   2.004   .     S
O240   Zn248   2.004   .     S
O241   Zn248   1.997   .     S
O242   Zn247   1.997   .     S
O243   Zn247   1.972   .     S
O244   Zn248   1.972   .     S
O245   Zn248   1.980   .     S
O246   Zn247   1.980   .     S
C249   O303    1.288   .     A
C249   O301    1.290   .     A
C249   C262    1.436   .     S
C250   C252    1.404   .     A
C250   H286    1.083   .     S
C250   C279    1.404   .     A
C251   C271    1.423   .     A
C251   C280    1.405   .     A
C251   C624    1.521   1_554 S
C252   C275    1.422   .     A
C252   C623    1.521   .     S
C253   O305    1.279   .     A
C253   C255    1.401   .     S
C253   O307    1.280   .     A
C254   O308    1.280   .     A
C254   C256    1.402   .     S
C254   O306    1.280   .     A
C256   C317    1.328   .     S
C256   H349    1.088   .     S
C257   C268    1.399   .     A
C257   H288    1.083   .     S
C257   C259    1.381   .     A
C258   H289    1.083   .     S
C258   C269    1.399   .     A
C258   C261    1.381   .     A
C259   C262    1.399   .     A
C259   H290    1.084   .     S
C260   O304    1.288   .     A
C260   C263    1.438   .     S
C260   O302    1.290   .     A
C261   C263    1.399   .     A
C261   H291    1.083   .     S
C262   C264    1.399   .     A
C263   C265    1.400   .     A
C264   H292    1.084   .     S
C264   C266    1.380   .     A
C265   C267    1.380   .     A
C265   H293    1.084   .     S
C266   H294    1.083   .     S
C266   C268    1.399   .     A
C267   C269    1.398   .     A
C267   H282    1.083   .     S
C269   C82     1.443   1_565 S
C270   C271    1.443   .     S
C270   N669    1.157   1_554 S
C271   C276    1.413   .     A
C272   C275    1.443   .     S
C272   N298    1.157   .     T
C273   N299    1.158   .     T
C273   C278    1.438   .     S
C274   N300    1.158   .     T
C274   C279    1.437   .     S
C275   C277    1.413   .     A
C276   N295    1.363   .     A
C276   H283    1.083   .     S
C277   H284    1.082   .     S
C277   N296    1.364   .     A
C278   C280    1.405   .     A
C278   N295    1.369   .     A
C279   N296    1.371   .     A
C280   H285    1.083   .     S
H281   C317    1.087   .     S
N295   Zn310   2.013   .     S
N296   Zn309   2.013   .     S
N297   C642    1.157   .     S
O301   Zn309   2.004   .     S
O302   Zn310   2.004   .     S
O303   Zn310   1.997   .     S
O304   Zn309   1.997   .     S
O305   Zn309   1.972   .     S
O306   Zn310   1.972   .     S
O307   Zn310   1.980   .     S
O308   Zn309   1.980   .     S
C311   O365    1.288   .     A
C311   O363    1.290   .     A
C311   C324    1.436   .     S
C312   C314    1.404   .     A
C312   H348    1.083   .     S
C312   C341    1.404   .     A
C313   C333    1.423   .     A
C313   C342    1.405   .     A
C313   C686    1.521   1_554 S
C314   C337    1.422   .     A
C314   C685    1.521   .     S
C315   O367    1.279   .     A
C315   C317    1.401   .     S
C315   O369    1.280   .     A
C316   O370    1.280   .     A
C316   C318    1.402   .     S
C316   O368    1.280   .     A
C318   C193    1.328   1_655 S
C318   H225    1.088   1_655 S
C319   C330    1.399   .     A
C319   H350    1.083   .     S
C319   C321    1.381   .     A
C320   H351    1.083   .     S
C320   C331    1.399   .     A
C320   C323    1.381   .     A
C321   C324    1.399   .     A
C321   H352    1.084   .     S
C322   O366    1.288   .     A
C322   C325    1.438   .     S
C322   O364    1.290   .     A
C323   C325    1.399   .     A
C323   H353    1.083   .     S
C324   C326    1.399   .     A
C325   C327    1.400   .     A
C326   H354    1.084   .     S
C326   C328    1.380   .     A
C327   C329    1.380   .     A
C327   H355    1.084   .     S
C328   H356    1.083   .     S
C328   C330    1.399   .     A
C329   C331    1.398   .     A
C329   H344    1.083   .     S
C331   C144    1.443   1_565 S
C332   C333    1.443   .     S
C332   N731    1.157   1_554 S
C333   C338    1.413   .     A
C334   C337    1.443   .     S
C334   N360    1.157   .     T
C335   N361    1.158   .     T
C335   C340    1.438   .     S
C336   N362    1.158   .     T
C336   C341    1.437   .     S
C337   C339    1.413   .     A
C338   N357    1.363   .     A
C338   H345    1.083   .     S
C339   H346    1.082   .     S
C339   N358    1.364   .     A
C340   C342    1.405   .     A
C340   N357    1.369   .     A
C341   N358    1.371   .     A
C342   H347    1.083   .     S
H343   C193    1.087   1_655 S
N357   Zn372   2.013   .     S
N358   Zn371   2.013   .     S
N359   C704    1.157   .     S
O363   Zn371   2.004   .     S
O364   Zn372   2.004   .     S
O365   Zn372   1.997   .     S
O366   Zn371   1.997   .     S
O367   Zn371   1.972   .     S
O368   Zn372   1.972   .     S
O369   Zn372   1.980   .     S
O370   Zn371   1.980   .     S
C373   O427    1.288   .     A
C373   O425    1.290   .     A
C373   C386    1.436   .     S
C374   C376    1.404   .     A
C374   H410    1.083   .     S
C374   C403    1.404   .     A
C375   C395    1.423   .     A
C375   C404    1.405   .     A
C376   C399    1.422   .     A
C376   C3      1.521   1_556 S
C377   O429    1.279   .     A
C377   C379    1.401   .     S
C377   O431    1.280   .     A
C378   O432    1.280   .     A
C378   C380    1.402   .     S
C378   O430    1.280   .     A
C379   C504    1.328   1_455 S
C379   H529    1.087   1_455 S
C380   C441    1.328   .     S
C380   H473    1.088   .     S
C381   C392    1.399   .     A
C381   H412    1.083   .     S
C381   C383    1.381   .     A
C382   H413    1.083   .     S
C382   C393    1.399   .     A
C382   C385    1.381   .     A
C383   C386    1.399   .     A
C383   H414    1.084   .     S
C384   O428    1.288   .     A
C384   C387    1.438   .     S
C384   O426    1.290   .     A
C385   C387    1.399   .     A
C385   H415    1.083   .     S
C386   C388    1.399   .     A
C387   C389    1.400   .     A
C388   H416    1.084   .     S
C388   C390    1.380   .     A
C389   C391    1.380   .     A
C389   H417    1.084   .     S
C390   H418    1.083   .     S
C390   C392    1.399   .     A
C391   C393    1.398   .     A
C391   H406    1.083   .     S
C392   C579    1.443   1_545 S
C393   C578    1.443   .     S
C394   C395    1.443   .     S
C395   C400    1.413   .     A
C396   C399    1.443   .     S
C396   N422    1.157   .     T
C397   N423    1.158   .     T
C397   C402    1.438   .     S
C398   N424    1.158   .     T
C398   C403    1.437   .     S
C399   C401    1.413   .     A
C400   N419    1.363   .     A
C400   H407    1.083   .     S
C401   H408    1.082   .     S
C401   N420    1.364   .     A
C402   C404    1.405   .     A
C402   N419    1.369   .     A
C403   N420    1.371   .     A
C404   H409    1.083   .     S
H405   C441    1.087   .     S
H411   C504    1.088   1_455 S
N419   Zn434   2.013   .     S
N420   Zn433   2.013   .     S
N421   C22     1.157   1_556 S
O425   Zn433   2.004   .     S
O426   Zn434   2.004   .     S
O427   Zn434   1.997   .     S
O428   Zn433   1.997   .     S
O429   Zn433   1.972   .     S
O430   Zn434   1.972   .     S
O431   Zn434   1.980   .     S
O432   Zn433   1.980   .     S
C435   O489    1.288   .     A
C435   O487    1.290   .     A
C435   C448    1.436   .     S
C436   C438    1.404   .     A
C436   H472    1.083   .     S
C436   C465    1.404   .     A
C437   C457    1.423   .     A
C437   C466    1.405   .     A
C438   C461    1.422   .     A
C438   C65     1.521   1_556 S
C439   O491    1.279   .     A
C439   C441    1.401   .     S
C439   O493    1.280   .     A
C440   O494    1.280   .     A
C440   C442    1.402   .     S
C440   O492    1.280   .     A
C442   C503    1.328   .     S
C442   H535    1.088   .     S
C443   C454    1.399   .     A
C443   H474    1.083   .     S
C443   C445    1.381   .     A
C444   H475    1.083   .     S
C444   C455    1.399   .     A
C444   C447    1.381   .     A
C445   C448    1.399   .     A
C445   H476    1.084   .     S
C446   O490    1.288   .     A
C446   C449    1.438   .     S
C446   O488    1.290   .     A
C447   C449    1.399   .     A
C447   H477    1.083   .     S
C448   C450    1.399   .     A
C449   C451    1.400   .     A
C450   H478    1.084   .     S
C450   C452    1.380   .     A
C451   C453    1.380   .     A
C451   H479    1.084   .     S
C452   H480    1.083   .     S
C452   C454    1.399   .     A
C453   C455    1.398   .     A
C453   H468    1.083   .     S
C454   C641    1.443   1_545 S
C455   C640    1.443   .     S
C456   C457    1.443   .     S
C457   C462    1.413   .     A
C458   C461    1.443   .     S
C458   N484    1.157   .     T
C459   N485    1.158   .     T
C459   C464    1.438   .     S
C460   N486    1.158   .     T
C460   C465    1.437   .     S
C461   C463    1.413   .     A
C462   N481    1.363   .     A
C462   H469    1.083   .     S
C463   H470    1.082   .     S
C463   N482    1.364   .     A
C464   C466    1.405   .     A
C464   N481    1.369   .     A
C465   N482    1.371   .     A
C466   H471    1.083   .     S
H467   C503    1.087   .     S
N481   Zn496   2.013   .     S
N482   Zn495   2.013   .     S
N483   C84     1.157   1_556 S
O487   Zn495   2.004   .     S
O488   Zn496   2.004   .     S
O489   Zn496   1.997   .     S
O490   Zn495   1.997   .     S
O491   Zn495   1.972   .     S
O492   Zn496   1.972   .     S
O493   Zn496   1.980   .     S
O494   Zn495   1.980   .     S
C497   O551    1.288   .     A
C497   O549    1.290   .     A
C497   C510    1.436   .     S
C498   C500    1.404   .     A
C498   H534    1.083   .     S
C498   C527    1.404   .     A
C499   C519    1.423   .     A
C499   C528    1.405   .     A
C500   C523    1.422   .     A
C500   C127    1.521   1_556 S
C501   O553    1.279   .     A
C501   C503    1.401   .     S
C501   O555    1.280   .     A
C502   O556    1.280   .     A
C502   C504    1.402   .     S
C502   O554    1.280   .     A
C504   C379    1.328   1_655 S
C504   H411    1.088   1_655 S
C505   C516    1.399   .     A
C505   H536    1.083   .     S
C505   C507    1.381   .     A
C506   H537    1.083   .     S
C506   C517    1.399   .     A
C506   C509    1.381   .     A
C507   C510    1.399   .     A
C507   H538    1.084   .     S
C508   O552    1.288   .     A
C508   C511    1.438   .     S
C508   O550    1.290   .     A
C509   C511    1.399   .     A
C509   H539    1.083   .     S
C510   C512    1.399   .     A
C511   C513    1.400   .     A
C512   H540    1.084   .     S
C512   C514    1.380   .     A
C513   C515    1.380   .     A
C513   H541    1.084   .     S
C514   H542    1.083   .     S
C514   C516    1.399   .     A
C515   C517    1.398   .     A
C515   H530    1.083   .     S
C516   C703    1.443   1_545 S
C517   C702    1.443   .     S
C518   C519    1.443   .     S
C519   C524    1.413   .     A
C520   C523    1.443   .     S
C520   N546    1.157   .     T
C521   N547    1.158   .     T
C521   C526    1.438   .     S
C522   N548    1.158   .     T
C522   C527    1.437   .     S
C523   C525    1.413   .     A
C524   N543    1.363   .     A
C524   H531    1.083   .     S
C525   H532    1.082   .     S
C525   N544    1.364   .     A
C526   C528    1.405   .     A
C526   N543    1.369   .     A
C527   N544    1.371   .     A
C528   H533    1.083   .     S
H529   C379    1.087   1_655 S
N543   Zn558   2.013   .     S
N544   Zn557   2.013   .     S
N545   C146    1.157   1_556 S
O549   Zn557   2.004   .     S
O550   Zn558   2.004   .     S
O551   Zn558   1.997   .     S
O552   Zn557   1.997   .     S
O553   Zn557   1.972   .     S
O554   Zn558   1.972   .     S
O555   Zn558   1.980   .     S
O556   Zn557   1.980   .     S
C559   O613    1.288   .     A
C559   O611    1.290   .     A
C559   C572    1.436   .     S
C560   C562    1.404   .     A
C560   H596    1.083   .     S
C560   C589    1.404   .     A
C561   C581    1.423   .     A
C561   C590    1.405   .     A
C562   C585    1.422   .     A
C562   C189    1.521   1_556 S
C563   O615    1.279   .     A
C563   C565    1.401   .     S
C563   O617    1.280   .     A
C564   O618    1.280   .     A
C564   C566    1.402   .     S
C564   O616    1.280   .     A
C565   C690    1.328   1_455 S
C565   H715    1.087   1_455 S
C566   C627    1.328   .     S
C566   H659    1.088   .     S
C567   C578    1.399   .     A
C567   H598    1.083   .     S
C567   C569    1.381   .     A
C568   H599    1.083   .     S
C568   C579    1.399   .     A
C568   C571    1.381   .     A
C569   C572    1.399   .     A
C569   H600    1.084   .     S
C570   O614    1.288   .     A
C570   C573    1.438   .     S
C570   O612    1.290   .     A
C571   C573    1.399   .     A
C571   H601    1.083   .     S
C572   C574    1.399   .     A
C573   C575    1.400   .     A
C574   H602    1.084   .     S
C574   C576    1.380   .     A
C575   C577    1.380   .     A
C575   H603    1.084   .     S
C576   H604    1.083   .     S
C576   C578    1.399   .     A
C577   C579    1.398   .     A
C577   H592    1.083   .     S
C579   C392    1.443   1_565 S
C580   C581    1.443   .     S
C581   C586    1.413   .     A
C582   C585    1.443   .     S
C582   N608    1.157   .     T
C583   N609    1.158   .     T
C583   C588    1.438   .     S
C584   N610    1.158   .     T
C584   C589    1.437   .     S
C585   C587    1.413   .     A
C586   N605    1.363   .     A
C586   H593    1.083   .     S
C587   H594    1.082   .     S
C587   N606    1.364   .     A
C588   C590    1.405   .     A
C588   N605    1.369   .     A
C589   N606    1.371   .     A
C590   H595    1.083   .     S
H591   C627    1.087   .     S
H597   C690    1.088   1_455 S
N605   Zn620   2.013   .     S
N606   Zn619   2.013   .     S
N607   C208    1.157   1_556 S
O611   Zn619   2.004   .     S
O612   Zn620   2.004   .     S
O613   Zn620   1.997   .     S
O614   Zn619   1.997   .     S
O615   Zn619   1.972   .     S
O616   Zn620   1.972   .     S
O617   Zn620   1.980   .     S
O618   Zn619   1.980   .     S
C621   O675    1.288   .     A
C621   O673    1.290   .     A
C621   C634    1.436   .     S
C622   C624    1.404   .     A
C622   H658    1.083   .     S
C622   C651    1.404   .     A
C623   C643    1.423   .     A
C623   C652    1.405   .     A
C624   C647    1.422   .     A
C624   C251    1.521   1_556 S
C625   O677    1.279   .     A
C625   C627    1.401   .     S
C625   O679    1.280   .     A
C626   O680    1.280   .     A
C626   C628    1.402   .     S
C626   O678    1.280   .     A
C628   C689    1.328   .     S
C628   H721    1.088   .     S
C629   C640    1.399   .     A
C629   H660    1.083   .     S
C629   C631    1.381   .     A
C630   H661    1.083   .     S
C630   C641    1.399   .     A
C630   C633    1.381   .     A
C631   C634    1.399   .     A
C631   H662    1.084   .     S
C632   O676    1.288   .     A
C632   C635    1.438   .     S
C632   O674    1.290   .     A
C633   C635    1.399   .     A
C633   H663    1.083   .     S
C634   C636    1.399   .     A
C635   C637    1.400   .     A
C636   H664    1.084   .     S
C636   C638    1.380   .     A
C637   C639    1.380   .     A
C637   H665    1.084   .     S
C638   H666    1.083   .     S
C638   C640    1.399   .     A
C639   C641    1.398   .     A
C639   H654    1.083   .     S
C641   C454    1.443   1_565 S
C642   C643    1.443   .     S
C643   C648    1.413   .     A
C644   C647    1.443   .     S
C644   N670    1.157   .     T
C645   N671    1.158   .     T
C645   C650    1.438   .     S
C646   N672    1.158   .     T
C646   C651    1.437   .     S
C647   C649    1.413   .     A
C648   N667    1.363   .     A
C648   H655    1.083   .     S
C649   H656    1.082   .     S
C649   N668    1.364   .     A
C650   C652    1.405   .     A
C650   N667    1.369   .     A
C651   N668    1.371   .     A
C652   H657    1.083   .     S
H653   C689    1.087   .     S
N667   Zn682   2.013   .     S
N668   Zn681   2.013   .     S
N669   C270    1.157   1_556 S
O673   Zn681   2.004   .     S
O674   Zn682   2.004   .     S
O675   Zn682   1.997   .     S
O676   Zn681   1.997   .     S
O677   Zn681   1.972   .     S
O678   Zn682   1.972   .     S
O679   Zn682   1.980   .     S
O680   Zn681   1.980   .     S
C683   O737    1.288   .     A
C683   O735    1.290   .     A
C683   C696    1.436   .     S
C684   C686    1.404   .     A
C684   H720    1.083   .     S
C684   C713    1.404   .     A
C685   C705    1.423   .     A
C685   C714    1.405   .     A
C686   C709    1.422   .     A
C686   C313    1.521   1_556 S
C687   O739    1.279   .     A
C687   C689    1.401   .     S
C687   O741    1.280   .     A
C688   O742    1.280   .     A
C688   C690    1.402   .     S
C688   O740    1.280   .     A
C690   C565    1.328   1_655 S
C690   H597    1.088   1_655 S
C691   C702    1.399   .     A
C691   H722    1.083   .     S
C691   C693    1.381   .     A
C692   H723    1.083   .     S
C692   C703    1.399   .     A
C692   C695    1.381   .     A
C693   C696    1.399   .     A
C693   H724    1.084   .     S
C694   O738    1.288   .     A
C694   C697    1.438   .     S
C694   O736    1.290   .     A
C695   C697    1.399   .     A
C695   H725    1.083   .     S
C696   C698    1.399   .     A
C697   C699    1.400   .     A
C698   H726    1.084   .     S
C698   C700    1.380   .     A
C699   C701    1.380   .     A
C699   H727    1.084   .     S
C700   H728    1.083   .     S
C700   C702    1.399   .     A
C701   C703    1.398   .     A
C701   H716    1.083   .     S
C703   C516    1.443   1_565 S
C704   C705    1.443   .     S
C705   C710    1.413   .     A
C706   C709    1.443   .     S
C706   N732    1.157   .     T
C707   N733    1.158   .     T
C707   C712    1.438   .     S
C708   N734    1.158   .     T
C708   C713    1.437   .     S
C709   C711    1.413   .     A
C710   N729    1.363   .     A
C710   H717    1.083   .     S
C711   H718    1.082   .     S
C711   N730    1.364   .     A
C712   C714    1.405   .     A
C712   N729    1.369   .     A
C713   N730    1.371   .     A
C714   H719    1.083   .     S
H715   C565    1.087   1_655 S
N729   Zn744   2.013   .     S
N730   Zn743   2.013   .     S
N731   C332    1.157   1_556 S
O735   Zn743   2.004   .     S
O736   Zn744   2.004   .     S
O737   Zn744   1.997   .     S
O738   Zn743   1.997   .     S
O739   Zn743   1.972   .     S
O740   Zn744   1.972   .     S
O741   Zn744   1.980   .     S
O742   Zn743   1.980   .     S
