data_str_m3_o1_o5_pcu_sym.21
_audit_creation_date              2020-01-03
_audit_creation_method            'Materials Studio'
_symmetry_space_group_name_H-M    'P1'
_symmetry_Int_Tables_number       1
_symmetry_cell_setting            triclinic
loop_
_symmetry_equiv_pos_as_xyz
  x,y,z
_cell_length_a                    32.1747
_cell_length_b                    29.7517
_cell_length_c                    26.7234
_cell_angle_alpha                 90.0000
_cell_angle_beta                  91.0724
_cell_angle_gamma                 90.0000
loop_
_atom_site_label
_atom_site_type_symbol
_atom_site_fract_x
_atom_site_fract_y
_atom_site_fract_z
_atom_site_U_iso_or_equiv
_atom_site_adp_type
_atom_site_occupancy
C1     C     0.08669   0.16667   0.16661   0.00000  Uiso   1.00
C2     C     0.02128   0.20766   0.16666   0.00000  Uiso   1.00
C3     C     0.29084   0.16667   0.16670   0.00000  Uiso   1.00
C4     C     0.04250   0.16667   0.16663   0.00000  Uiso   1.00
C5     C     0.19267   0.02392   0.19819   0.00000  Uiso   1.00
C6     C     0.14067   0.30941   0.13515   0.00000  Uiso   1.00
C7     C     0.14067   0.02392   0.13515   0.00000  Uiso   1.00
C8     C     0.19267   0.30941   0.19819   0.00000  Uiso   1.00
C9     C     0.24664   0.16667   0.16672   0.00000  Uiso   1.00
C10    C     0.16661   0.16667   0.07295   0.00000  Uiso   1.00
C11    C     0.16673   0.16667   0.26038   0.00000  Uiso   1.00
C12    C     0.16664   0.16667   0.02181   0.00000  Uiso   1.00
C13    C     0.16669   0.16667   0.31152   0.00000  Uiso   1.00
C14    C     0.02128   0.12568   0.16666   0.00000  Uiso   1.00
C15    C     0.31205   0.20766   0.16667   0.00000  Uiso   1.00
C16    C     0.31205   0.12568   0.16667   0.00000  Uiso   1.00
Cl17   Cl    0.22654   0.05291   0.23932   0.00000  Uiso   1.00
Cl18   Cl    0.10680   0.28042   0.09401   0.00000  Uiso   1.00
Cl19   Cl    0.10680   0.05291   0.09401   0.00000  Uiso   1.00
Cl20   Cl    0.22654   0.28042   0.23932   0.00000  Uiso   1.00
H21    H     0.03739   0.09370   0.16669   0.00000  Uiso   1.00
H22    H     0.29594   0.23963   0.16664   0.00000  Uiso   1.00
H23    H     0.29594   0.09370   0.16664   0.00000  Uiso   1.00
H24    H     0.03739   0.23963   0.16669   0.00000  Uiso   1.00
N25    N     0.16667   0.28573   0.16667   0.00000  Uiso   1.00
N26    N     0.16667   0.04760   0.16667   0.00000  Uiso   1.00
O27    O     0.10559   0.20487   0.16666   0.00000  Uiso   1.00
O28    O     0.22774   0.12846   0.16667   0.00000  Uiso   1.00
O29    O     0.22774   0.20487   0.16667   0.00000  Uiso   1.00
O30    O     0.10559   0.12846   0.16666   0.00000  Uiso   1.00
O31    O     0.16667   0.20488   0.09511   0.00000  Uiso   1.00
O32    O     0.16666   0.12845   0.23822   0.00000  Uiso   1.00
O33    O     0.16666   0.20488   0.23822   0.00000  Uiso   1.00
O34    O     0.16667   0.12845   0.09511   0.00000  Uiso   1.00
Zn35   Zn    0.16667   0.21771   0.16667   0.00000  Uiso   1.00
Zn36   Zn    0.16667   0.11563   0.16667   0.00000  Uiso   1.00
C37    C     0.42002   0.16667   0.16661   0.00000  Uiso   1.00
C38    C     0.35462   0.20766   0.16666   0.00000  Uiso   1.00
C39    C     0.62417   0.16667   0.16670   0.00000  Uiso   1.00
C40    C     0.37583   0.16667   0.16663   0.00000  Uiso   1.00
C41    C     0.52600   0.02392   0.19819   0.00000  Uiso   1.00
C42    C     0.47400   0.30941   0.13515   0.00000  Uiso   1.00
C43    C     0.47400   0.02392   0.13515   0.00000  Uiso   1.00
C44    C     0.52600   0.30941   0.19819   0.00000  Uiso   1.00
C45    C     0.57998   0.16667   0.16672   0.00000  Uiso   1.00
C46    C     0.49994   0.16667   0.07295   0.00000  Uiso   1.00
C47    C     0.50006   0.16667   0.26038   0.00000  Uiso   1.00
C48    C     0.49998   0.16667   0.02181   0.00000  Uiso   1.00
C49    C     0.50002   0.16667   0.31152   0.00000  Uiso   1.00
C50    C     0.35462   0.12568   0.16666   0.00000  Uiso   1.00
C51    C     0.64538   0.20766   0.16667   0.00000  Uiso   1.00
C52    C     0.64538   0.12568   0.16667   0.00000  Uiso   1.00
Cl53   Cl    0.55987   0.05291   0.23932   0.00000  Uiso   1.00
Cl54   Cl    0.44013   0.28042   0.09401   0.00000  Uiso   1.00
Cl55   Cl    0.44013   0.05291   0.09401   0.00000  Uiso   1.00
Cl56   Cl    0.55987   0.28042   0.23932   0.00000  Uiso   1.00
H57    H     0.37072   0.09370   0.16669   0.00000  Uiso   1.00
H58    H     0.62928   0.23963   0.16664   0.00000  Uiso   1.00
H59    H     0.62928   0.09370   0.16664   0.00000  Uiso   1.00
H60    H     0.37072   0.23963   0.16669   0.00000  Uiso   1.00
N61    N     0.50000   0.28573   0.16667   0.00000  Uiso   1.00
N62    N     0.50000   0.04760   0.16667   0.00000  Uiso   1.00
O63    O     0.43892   0.20487   0.16666   0.00000  Uiso   1.00
O64    O     0.56108   0.12846   0.16667   0.00000  Uiso   1.00
O65    O     0.56108   0.20487   0.16667   0.00000  Uiso   1.00
O66    O     0.43892   0.12846   0.16666   0.00000  Uiso   1.00
O67    O     0.50000   0.20488   0.09511   0.00000  Uiso   1.00
O68    O     0.50000   0.12845   0.23822   0.00000  Uiso   1.00
O69    O     0.50000   0.20488   0.23822   0.00000  Uiso   1.00
O70    O     0.50000   0.12845   0.09511   0.00000  Uiso   1.00
Zn71   Zn    0.50000   0.21771   0.16667   0.00000  Uiso   1.00
Zn72   Zn    0.50000   0.11563   0.16667   0.00000  Uiso   1.00
C73    C     0.75336   0.16667   0.16661   0.00000  Uiso   1.00
C74    C     0.68795   0.20766   0.16666   0.00000  Uiso   1.00
C75    C     0.95750   0.16667   0.16670   0.00000  Uiso   1.00
C76    C     0.70916   0.16667   0.16663   0.00000  Uiso   1.00
C77    C     0.85933   0.02392   0.19819   0.00000  Uiso   1.00
C78    C     0.80733   0.30941   0.13515   0.00000  Uiso   1.00
C79    C     0.80733   0.02392   0.13515   0.00000  Uiso   1.00
C80    C     0.85933   0.30941   0.19819   0.00000  Uiso   1.00
C81    C     0.91331   0.16667   0.16672   0.00000  Uiso   1.00
C82    C     0.83327   0.16667   0.07295   0.00000  Uiso   1.00
C83    C     0.83339   0.16667   0.26038   0.00000  Uiso   1.00
C84    C     0.83331   0.16667   0.02181   0.00000  Uiso   1.00
C85    C     0.83336   0.16667   0.31152   0.00000  Uiso   1.00
C86    C     0.68795   0.12568   0.16666   0.00000  Uiso   1.00
C87    C     0.97872   0.20766   0.16667   0.00000  Uiso   1.00
C88    C     0.97872   0.12568   0.16667   0.00000  Uiso   1.00
Cl89   Cl    0.89320   0.05291   0.23932   0.00000  Uiso   1.00
Cl90   Cl    0.77346   0.28042   0.09401   0.00000  Uiso   1.00
Cl91   Cl    0.77346   0.05291   0.09401   0.00000  Uiso   1.00
Cl92   Cl    0.89320   0.28042   0.23932   0.00000  Uiso   1.00
H93    H     0.70406   0.09370   0.16669   0.00000  Uiso   1.00
H94    H     0.96261   0.23963   0.16664   0.00000  Uiso   1.00
H95    H     0.96261   0.09370   0.16664   0.00000  Uiso   1.00
H96    H     0.70406   0.23963   0.16669   0.00000  Uiso   1.00
N97    N     0.83333   0.28573   0.16667   0.00000  Uiso   1.00
N98    N     0.83333   0.04760   0.16667   0.00000  Uiso   1.00
O99    O     0.77226   0.20487   0.16666   0.00000  Uiso   1.00
O100   O     0.89441   0.12846   0.16667   0.00000  Uiso   1.00
O101   O     0.89441   0.20487   0.16667   0.00000  Uiso   1.00
O102   O     0.77226   0.12846   0.16666   0.00000  Uiso   1.00
O103   O     0.83334   0.20488   0.09511   0.00000  Uiso   1.00
O104   O     0.83333   0.12845   0.23822   0.00000  Uiso   1.00
O105   O     0.83333   0.20488   0.23822   0.00000  Uiso   1.00
O106   O     0.83334   0.12845   0.09511   0.00000  Uiso   1.00
Zn107  Zn    0.83333   0.21771   0.16667   0.00000  Uiso   1.00
Zn108  Zn    0.83333   0.11563   0.16667   0.00000  Uiso   1.00
C109   C     0.08669   0.50000   0.16661   0.00000  Uiso   1.00
C110   C     0.02128   0.54099   0.16666   0.00000  Uiso   1.00
C111   C     0.29084   0.50000   0.16670   0.00000  Uiso   1.00
C112   C     0.04250   0.50000   0.16663   0.00000  Uiso   1.00
C113   C     0.19267   0.35725   0.19819   0.00000  Uiso   1.00
C114   C     0.14067   0.64275   0.13515   0.00000  Uiso   1.00
C115   C     0.14067   0.35725   0.13515   0.00000  Uiso   1.00
C116   C     0.19267   0.64275   0.19819   0.00000  Uiso   1.00
C117   C     0.24664   0.50000   0.16672   0.00000  Uiso   1.00
C118   C     0.16661   0.50000   0.07295   0.00000  Uiso   1.00
C119   C     0.16673   0.50000   0.26038   0.00000  Uiso   1.00
C120   C     0.16664   0.50000   0.02181   0.00000  Uiso   1.00
C121   C     0.16669   0.50000   0.31152   0.00000  Uiso   1.00
C122   C     0.02128   0.45901   0.16666   0.00000  Uiso   1.00
C123   C     0.31205   0.54099   0.16667   0.00000  Uiso   1.00
C124   C     0.31205   0.45901   0.16667   0.00000  Uiso   1.00
Cl125  Cl    0.22654   0.38624   0.23932   0.00000  Uiso   1.00
Cl126  Cl    0.10680   0.61376   0.09401   0.00000  Uiso   1.00
Cl127  Cl    0.10680   0.38624   0.09401   0.00000  Uiso   1.00
Cl128  Cl    0.22654   0.61376   0.23932   0.00000  Uiso   1.00
H129   H     0.03739   0.42703   0.16669   0.00000  Uiso   1.00
H130   H     0.29594   0.57297   0.16664   0.00000  Uiso   1.00
H131   H     0.29594   0.42703   0.16664   0.00000  Uiso   1.00
H132   H     0.03739   0.57297   0.16669   0.00000  Uiso   1.00
N133   N     0.16667   0.61907   0.16667   0.00000  Uiso   1.00
N134   N     0.16667   0.38093   0.16667   0.00000  Uiso   1.00
O135   O     0.10559   0.53821   0.16666   0.00000  Uiso   1.00
O136   O     0.22774   0.46179   0.16667   0.00000  Uiso   1.00
O137   O     0.22774   0.53821   0.16667   0.00000  Uiso   1.00
O138   O     0.10559   0.46179   0.16666   0.00000  Uiso   1.00
O139   O     0.16667   0.53821   0.09511   0.00000  Uiso   1.00
O140   O     0.16666   0.46179   0.23822   0.00000  Uiso   1.00
O141   O     0.16666   0.53821   0.23822   0.00000  Uiso   1.00
O142   O     0.16667   0.46179   0.09511   0.00000  Uiso   1.00
Zn143  Zn    0.16667   0.55104   0.16667   0.00000  Uiso   1.00
Zn144  Zn    0.16667   0.44896   0.16667   0.00000  Uiso   1.00
C145   C     0.42002   0.50000   0.16661   0.00000  Uiso   1.00
C146   C     0.35462   0.54099   0.16666   0.00000  Uiso   1.00
C147   C     0.62417   0.50000   0.16670   0.00000  Uiso   1.00
C148   C     0.37583   0.50000   0.16663   0.00000  Uiso   1.00
C149   C     0.52600   0.35725   0.19819   0.00000  Uiso   1.00
C150   C     0.47400   0.64275   0.13515   0.00000  Uiso   1.00
C151   C     0.47400   0.35725   0.13515   0.00000  Uiso   1.00
C152   C     0.52600   0.64275   0.19819   0.00000  Uiso   1.00
C153   C     0.57998   0.50000   0.16672   0.00000  Uiso   1.00
C154   C     0.49994   0.50000   0.07295   0.00000  Uiso   1.00
C155   C     0.50006   0.50000   0.26038   0.00000  Uiso   1.00
C156   C     0.49998   0.50000   0.02181   0.00000  Uiso   1.00
C157   C     0.50002   0.50000   0.31152   0.00000  Uiso   1.00
C158   C     0.35462   0.45901   0.16666   0.00000  Uiso   1.00
C159   C     0.64538   0.54099   0.16667   0.00000  Uiso   1.00
C160   C     0.64538   0.45901   0.16667   0.00000  Uiso   1.00
Cl161  Cl    0.55987   0.38624   0.23932   0.00000  Uiso   1.00
Cl162  Cl    0.44013   0.61376   0.09401   0.00000  Uiso   1.00
Cl163  Cl    0.44013   0.38624   0.09401   0.00000  Uiso   1.00
Cl164  Cl    0.55987   0.61376   0.23932   0.00000  Uiso   1.00
H165   H     0.37072   0.42703   0.16669   0.00000  Uiso   1.00
H166   H     0.62928   0.57297   0.16664   0.00000  Uiso   1.00
H167   H     0.62928   0.42703   0.16664   0.00000  Uiso   1.00
H168   H     0.37072   0.57297   0.16669   0.00000  Uiso   1.00
N169   N     0.50000   0.61907   0.16667   0.00000  Uiso   1.00
N170   N     0.50000   0.38093   0.16667   0.00000  Uiso   1.00
O171   O     0.43892   0.53821   0.16666   0.00000  Uiso   1.00
O172   O     0.56108   0.46179   0.16667   0.00000  Uiso   1.00
O173   O     0.56108   0.53821   0.16667   0.00000  Uiso   1.00
O174   O     0.43892   0.46179   0.16666   0.00000  Uiso   1.00
O175   O     0.50000   0.53821   0.09511   0.00000  Uiso   1.00
O176   O     0.50000   0.46179   0.23822   0.00000  Uiso   1.00
O177   O     0.50000   0.53821   0.23822   0.00000  Uiso   1.00
O178   O     0.50000   0.46179   0.09511   0.00000  Uiso   1.00
Zn179  Zn    0.50000   0.55104   0.16667   0.00000  Uiso   1.00
Zn180  Zn    0.50000   0.44896   0.16667   0.00000  Uiso   1.00
C181   C     0.75336   0.50000   0.16661   0.00000  Uiso   1.00
C182   C     0.68795   0.54099   0.16666   0.00000  Uiso   1.00
C183   C     0.95750   0.50000   0.16670   0.00000  Uiso   1.00
C184   C     0.70916   0.50000   0.16663   0.00000  Uiso   1.00
C185   C     0.85933   0.35725   0.19819   0.00000  Uiso   1.00
C186   C     0.80733   0.64275   0.13515   0.00000  Uiso   1.00
C187   C     0.80733   0.35725   0.13515   0.00000  Uiso   1.00
C188   C     0.85933   0.64275   0.19819   0.00000  Uiso   1.00
C189   C     0.91331   0.50000   0.16672   0.00000  Uiso   1.00
C190   C     0.83327   0.50000   0.07295   0.00000  Uiso   1.00
C191   C     0.83339   0.50000   0.26038   0.00000  Uiso   1.00
C192   C     0.83331   0.50000   0.02181   0.00000  Uiso   1.00
C193   C     0.83336   0.50000   0.31152   0.00000  Uiso   1.00
C194   C     0.68795   0.45901   0.16666   0.00000  Uiso   1.00
C195   C     0.97872   0.54099   0.16667   0.00000  Uiso   1.00
C196   C     0.97872   0.45901   0.16667   0.00000  Uiso   1.00
Cl197  Cl    0.89320   0.38624   0.23932   0.00000  Uiso   1.00
Cl198  Cl    0.77346   0.61376   0.09401   0.00000  Uiso   1.00
Cl199  Cl    0.77346   0.38624   0.09401   0.00000  Uiso   1.00
Cl200  Cl    0.89320   0.61376   0.23932   0.00000  Uiso   1.00
H201   H     0.70406   0.42703   0.16669   0.00000  Uiso   1.00
H202   H     0.96261   0.57297   0.16664   0.00000  Uiso   1.00
H203   H     0.96261   0.42703   0.16664   0.00000  Uiso   1.00
H204   H     0.70406   0.57297   0.16669   0.00000  Uiso   1.00
N205   N     0.83333   0.61907   0.16667   0.00000  Uiso   1.00
N206   N     0.83333   0.38093   0.16667   0.00000  Uiso   1.00
O207   O     0.77226   0.53821   0.16666   0.00000  Uiso   1.00
O208   O     0.89441   0.46179   0.16667   0.00000  Uiso   1.00
O209   O     0.89441   0.53821   0.16667   0.00000  Uiso   1.00
O210   O     0.77226   0.46179   0.16666   0.00000  Uiso   1.00
O211   O     0.83334   0.53821   0.09511   0.00000  Uiso   1.00
O212   O     0.83333   0.46179   0.23822   0.00000  Uiso   1.00
O213   O     0.83333   0.53821   0.23822   0.00000  Uiso   1.00
O214   O     0.83334   0.46179   0.09511   0.00000  Uiso   1.00
Zn215  Zn    0.83333   0.55104   0.16667   0.00000  Uiso   1.00
Zn216  Zn    0.83333   0.44896   0.16667   0.00000  Uiso   1.00
C217   C     0.08669   0.83333   0.16661   0.00000  Uiso   1.00
C218   C     0.02128   0.87432   0.16666   0.00000  Uiso   1.00
C219   C     0.29084   0.83333   0.16670   0.00000  Uiso   1.00
C220   C     0.04250   0.83333   0.16663   0.00000  Uiso   1.00
C221   C     0.19267   0.69059   0.19819   0.00000  Uiso   1.00
C222   C     0.14067   0.97608   0.13515   0.00000  Uiso   1.00
C223   C     0.14067   0.69059   0.13515   0.00000  Uiso   1.00
C224   C     0.19267   0.97608   0.19819   0.00000  Uiso   1.00
C225   C     0.24664   0.83333   0.16672   0.00000  Uiso   1.00
C226   C     0.16661   0.83333   0.07295   0.00000  Uiso   1.00
C227   C     0.16673   0.83333   0.26038   0.00000  Uiso   1.00
C228   C     0.16664   0.83333   0.02181   0.00000  Uiso   1.00
C229   C     0.16669   0.83333   0.31152   0.00000  Uiso   1.00
C230   C     0.02128   0.79234   0.16666   0.00000  Uiso   1.00
C231   C     0.31205   0.87432   0.16667   0.00000  Uiso   1.00
C232   C     0.31205   0.79234   0.16667   0.00000  Uiso   1.00
Cl233  Cl    0.22654   0.71958   0.23932   0.00000  Uiso   1.00
Cl234  Cl    0.10680   0.94709   0.09401   0.00000  Uiso   1.00
Cl235  Cl    0.10680   0.71958   0.09401   0.00000  Uiso   1.00
Cl236  Cl    0.22654   0.94709   0.23932   0.00000  Uiso   1.00
H237   H     0.03739   0.76037   0.16669   0.00000  Uiso   1.00
H238   H     0.29594   0.90630   0.16664   0.00000  Uiso   1.00
H239   H     0.29594   0.76037   0.16664   0.00000  Uiso   1.00
H240   H     0.03739   0.90630   0.16669   0.00000  Uiso   1.00
N241   N     0.16667   0.95240   0.16667   0.00000  Uiso   1.00
N242   N     0.16667   0.71427   0.16667   0.00000  Uiso   1.00
O243   O     0.10559   0.87154   0.16666   0.00000  Uiso   1.00
O244   O     0.22774   0.79513   0.16667   0.00000  Uiso   1.00
O245   O     0.22774   0.87154   0.16667   0.00000  Uiso   1.00
O246   O     0.10559   0.79513   0.16666   0.00000  Uiso   1.00
O247   O     0.16667   0.87155   0.09511   0.00000  Uiso   1.00
O248   O     0.16666   0.79512   0.23822   0.00000  Uiso   1.00
O249   O     0.16666   0.87155   0.23822   0.00000  Uiso   1.00
O250   O     0.16667   0.79512   0.09511   0.00000  Uiso   1.00
Zn251  Zn    0.16667   0.88437   0.16667   0.00000  Uiso   1.00
Zn252  Zn    0.16667   0.78229   0.16667   0.00000  Uiso   1.00
C253   C     0.42002   0.83333   0.16661   0.00000  Uiso   1.00
C254   C     0.35462   0.87432   0.16666   0.00000  Uiso   1.00
C255   C     0.62417   0.83333   0.16670   0.00000  Uiso   1.00
C256   C     0.37583   0.83333   0.16663   0.00000  Uiso   1.00
C257   C     0.52600   0.69059   0.19819   0.00000  Uiso   1.00
C258   C     0.47400   0.97608   0.13515   0.00000  Uiso   1.00
C259   C     0.47400   0.69059   0.13515   0.00000  Uiso   1.00
C260   C     0.52600   0.97608   0.19819   0.00000  Uiso   1.00
C261   C     0.57998   0.83333   0.16672   0.00000  Uiso   1.00
C262   C     0.49994   0.83333   0.07295   0.00000  Uiso   1.00
C263   C     0.50006   0.83333   0.26038   0.00000  Uiso   1.00
C264   C     0.49998   0.83333   0.02181   0.00000  Uiso   1.00
C265   C     0.50002   0.83333   0.31152   0.00000  Uiso   1.00
C266   C     0.35462   0.79234   0.16666   0.00000  Uiso   1.00
C267   C     0.64538   0.87432   0.16667   0.00000  Uiso   1.00
C268   C     0.64538   0.79234   0.16667   0.00000  Uiso   1.00
Cl269  Cl    0.55987   0.71958   0.23932   0.00000  Uiso   1.00
Cl270  Cl    0.44013   0.94709   0.09401   0.00000  Uiso   1.00
Cl271  Cl    0.44013   0.71958   0.09401   0.00000  Uiso   1.00
Cl272  Cl    0.55987   0.94709   0.23932   0.00000  Uiso   1.00
H273   H     0.37072   0.76037   0.16669   0.00000  Uiso   1.00
H274   H     0.62928   0.90630   0.16664   0.00000  Uiso   1.00
H275   H     0.62928   0.76037   0.16664   0.00000  Uiso   1.00
H276   H     0.37072   0.90630   0.16669   0.00000  Uiso   1.00
N277   N     0.50000   0.95240   0.16667   0.00000  Uiso   1.00
N278   N     0.50000   0.71427   0.16667   0.00000  Uiso   1.00
O279   O     0.43892   0.87154   0.16666   0.00000  Uiso   1.00
O280   O     0.56108   0.79513   0.16667   0.00000  Uiso   1.00
O281   O     0.56108   0.87154   0.16667   0.00000  Uiso   1.00
O282   O     0.43892   0.79513   0.16666   0.00000  Uiso   1.00
O283   O     0.50000   0.87155   0.09511   0.00000  Uiso   1.00
O284   O     0.50000   0.79512   0.23822   0.00000  Uiso   1.00
O285   O     0.50000   0.87155   0.23822   0.00000  Uiso   1.00
O286   O     0.50000   0.79512   0.09511   0.00000  Uiso   1.00
Zn287  Zn    0.50000   0.88437   0.16667   0.00000  Uiso   1.00
Zn288  Zn    0.50000   0.78229   0.16667   0.00000  Uiso   1.00
C289   C     0.75336   0.83333   0.16661   0.00000  Uiso   1.00
C290   C     0.68795   0.87432   0.16666   0.00000  Uiso   1.00
C291   C     0.95750   0.83333   0.16670   0.00000  Uiso   1.00
C292   C     0.70916   0.83333   0.16663   0.00000  Uiso   1.00
C293   C     0.85933   0.69059   0.19819   0.00000  Uiso   1.00
C294   C     0.80733   0.97608   0.13515   0.00000  Uiso   1.00
C295   C     0.80733   0.69059   0.13515   0.00000  Uiso   1.00
C296   C     0.85933   0.97608   0.19819   0.00000  Uiso   1.00
C297   C     0.91331   0.83333   0.16672   0.00000  Uiso   1.00
C298   C     0.83327   0.83333   0.07295   0.00000  Uiso   1.00
C299   C     0.83339   0.83333   0.26038   0.00000  Uiso   1.00
C300   C     0.83331   0.83333   0.02181   0.00000  Uiso   1.00
C301   C     0.83336   0.83333   0.31152   0.00000  Uiso   1.00
C302   C     0.68795   0.79234   0.16666   0.00000  Uiso   1.00
C303   C     0.97872   0.87432   0.16667   0.00000  Uiso   1.00
C304   C     0.97872   0.79234   0.16667   0.00000  Uiso   1.00
Cl305  Cl    0.89320   0.71958   0.23932   0.00000  Uiso   1.00
Cl306  Cl    0.77346   0.94709   0.09401   0.00000  Uiso   1.00
Cl307  Cl    0.77346   0.71958   0.09401   0.00000  Uiso   1.00
Cl308  Cl    0.89320   0.94709   0.23932   0.00000  Uiso   1.00
H309   H     0.70406   0.76037   0.16669   0.00000  Uiso   1.00
H310   H     0.96261   0.90630   0.16664   0.00000  Uiso   1.00
H311   H     0.96261   0.76037   0.16664   0.00000  Uiso   1.00
H312   H     0.70406   0.90630   0.16669   0.00000  Uiso   1.00
N313   N     0.83333   0.95240   0.16667   0.00000  Uiso   1.00
N314   N     0.83333   0.71427   0.16667   0.00000  Uiso   1.00
O315   O     0.77226   0.87154   0.16666   0.00000  Uiso   1.00
O316   O     0.89441   0.79513   0.16667   0.00000  Uiso   1.00
O317   O     0.89441   0.87154   0.16667   0.00000  Uiso   1.00
O318   O     0.77226   0.79513   0.16666   0.00000  Uiso   1.00
O319   O     0.83334   0.87155   0.09511   0.00000  Uiso   1.00
O320   O     0.83333   0.79512   0.23822   0.00000  Uiso   1.00
O321   O     0.83333   0.87155   0.23822   0.00000  Uiso   1.00
O322   O     0.83334   0.79512   0.09511   0.00000  Uiso   1.00
Zn323  Zn    0.83333   0.88437   0.16667   0.00000  Uiso   1.00
Zn324  Zn    0.83333   0.78229   0.16667   0.00000  Uiso   1.00
C325   C     0.08669   0.16667   0.49995   0.00000  Uiso   1.00
C326   C     0.02128   0.20766   0.49999   0.00000  Uiso   1.00
C327   C     0.29084   0.16667   0.50003   0.00000  Uiso   1.00
C328   C     0.04250   0.16667   0.49997   0.00000  Uiso   1.00
C329   C     0.19267   0.02392   0.53152   0.00000  Uiso   1.00
C330   C     0.14067   0.30941   0.46848   0.00000  Uiso   1.00
C331   C     0.14067   0.02392   0.46848   0.00000  Uiso   1.00
C332   C     0.19267   0.30941   0.53152   0.00000  Uiso   1.00
C333   C     0.24664   0.16667   0.50005   0.00000  Uiso   1.00
C334   C     0.16661   0.16667   0.40629   0.00000  Uiso   1.00
C335   C     0.16673   0.16667   0.59371   0.00000  Uiso   1.00
C336   C     0.16664   0.16667   0.35514   0.00000  Uiso   1.00
C337   C     0.16669   0.16667   0.64486   0.00000  Uiso   1.00
C338   C     0.02128   0.12568   0.49999   0.00000  Uiso   1.00
C339   C     0.31205   0.20766   0.50001   0.00000  Uiso   1.00
C340   C     0.31205   0.12568   0.50001   0.00000  Uiso   1.00
Cl341  Cl    0.22654   0.05291   0.57266   0.00000  Uiso   1.00
Cl342  Cl    0.10680   0.28042   0.42734   0.00000  Uiso   1.00
Cl343  Cl    0.10680   0.05291   0.42734   0.00000  Uiso   1.00
Cl344  Cl    0.22654   0.28042   0.57266   0.00000  Uiso   1.00
H345   H     0.03739   0.09370   0.50003   0.00000  Uiso   1.00
H346   H     0.29594   0.23963   0.49997   0.00000  Uiso   1.00
H347   H     0.29594   0.09370   0.49997   0.00000  Uiso   1.00
H348   H     0.03739   0.23963   0.50003   0.00000  Uiso   1.00
N349   N     0.16667   0.28573   0.50000   0.00000  Uiso   1.00
N350   N     0.16667   0.04760   0.50000   0.00000  Uiso   1.00
O351   O     0.10559   0.20487   0.50000   0.00000  Uiso   1.00
O352   O     0.22774   0.12846   0.50000   0.00000  Uiso   1.00
O353   O     0.22774   0.20487   0.50000   0.00000  Uiso   1.00
O354   O     0.10559   0.12846   0.50000   0.00000  Uiso   1.00
O355   O     0.16667   0.20488   0.42845   0.00000  Uiso   1.00
O356   O     0.16666   0.12845   0.57155   0.00000  Uiso   1.00
O357   O     0.16666   0.20488   0.57155   0.00000  Uiso   1.00
O358   O     0.16667   0.12845   0.42845   0.00000  Uiso   1.00
Zn359  Zn    0.16667   0.21771   0.50000   0.00000  Uiso   1.00
Zn360  Zn    0.16667   0.11563   0.50000   0.00000  Uiso   1.00
C361   C     0.42002   0.16667   0.49995   0.00000  Uiso   1.00
C362   C     0.35462   0.20766   0.49999   0.00000  Uiso   1.00
C363   C     0.62417   0.16667   0.50003   0.00000  Uiso   1.00
C364   C     0.37583   0.16667   0.49997   0.00000  Uiso   1.00
C365   C     0.52600   0.02392   0.53152   0.00000  Uiso   1.00
C366   C     0.47400   0.30941   0.46848   0.00000  Uiso   1.00
C367   C     0.47400   0.02392   0.46848   0.00000  Uiso   1.00
C368   C     0.52600   0.30941   0.53152   0.00000  Uiso   1.00
C369   C     0.57998   0.16667   0.50005   0.00000  Uiso   1.00
C370   C     0.49994   0.16667   0.40629   0.00000  Uiso   1.00
C371   C     0.50006   0.16667   0.59371   0.00000  Uiso   1.00
C372   C     0.49998   0.16667   0.35514   0.00000  Uiso   1.00
C373   C     0.50002   0.16667   0.64486   0.00000  Uiso   1.00
C374   C     0.35462   0.12568   0.49999   0.00000  Uiso   1.00
C375   C     0.64538   0.20766   0.50001   0.00000  Uiso   1.00
C376   C     0.64538   0.12568   0.50001   0.00000  Uiso   1.00
Cl377  Cl    0.55987   0.05291   0.57266   0.00000  Uiso   1.00
Cl378  Cl    0.44013   0.28042   0.42734   0.00000  Uiso   1.00
Cl379  Cl    0.44013   0.05291   0.42734   0.00000  Uiso   1.00
Cl380  Cl    0.55987   0.28042   0.57266   0.00000  Uiso   1.00
H381   H     0.37072   0.09370   0.50003   0.00000  Uiso   1.00
H382   H     0.62928   0.23963   0.49997   0.00000  Uiso   1.00
H383   H     0.62928   0.09370   0.49997   0.00000  Uiso   1.00
H384   H     0.37072   0.23963   0.50003   0.00000  Uiso   1.00
N385   N     0.50000   0.28573   0.50000   0.00000  Uiso   1.00
N386   N     0.50000   0.04760   0.50000   0.00000  Uiso   1.00
O387   O     0.43892   0.20487   0.50000   0.00000  Uiso   1.00
O388   O     0.56108   0.12846   0.50000   0.00000  Uiso   1.00
O389   O     0.56108   0.20487   0.50000   0.00000  Uiso   1.00
O390   O     0.43892   0.12846   0.50000   0.00000  Uiso   1.00
O391   O     0.50000   0.20488   0.42845   0.00000  Uiso   1.00
O392   O     0.50000   0.12845   0.57155   0.00000  Uiso   1.00
O393   O     0.50000   0.20488   0.57155   0.00000  Uiso   1.00
O394   O     0.50000   0.12845   0.42845   0.00000  Uiso   1.00
Zn395  Zn    0.50000   0.21771   0.50000   0.00000  Uiso   1.00
Zn396  Zn    0.50000   0.11563   0.50000   0.00000  Uiso   1.00
C397   C     0.75336   0.16667   0.49995   0.00000  Uiso   1.00
C398   C     0.68795   0.20766   0.49999   0.00000  Uiso   1.00
C399   C     0.95750   0.16667   0.50003   0.00000  Uiso   1.00
C400   C     0.70916   0.16667   0.49997   0.00000  Uiso   1.00
C401   C     0.85933   0.02392   0.53152   0.00000  Uiso   1.00
C402   C     0.80733   0.30941   0.46848   0.00000  Uiso   1.00
C403   C     0.80733   0.02392   0.46848   0.00000  Uiso   1.00
C404   C     0.85933   0.30941   0.53152   0.00000  Uiso   1.00
C405   C     0.91331   0.16667   0.50005   0.00000  Uiso   1.00
C406   C     0.83327   0.16667   0.40629   0.00000  Uiso   1.00
C407   C     0.83339   0.16667   0.59371   0.00000  Uiso   1.00
C408   C     0.83331   0.16667   0.35514   0.00000  Uiso   1.00
C409   C     0.83336   0.16667   0.64486   0.00000  Uiso   1.00
C410   C     0.68795   0.12568   0.49999   0.00000  Uiso   1.00
C411   C     0.97872   0.20766   0.50001   0.00000  Uiso   1.00
C412   C     0.97872   0.12568   0.50001   0.00000  Uiso   1.00
Cl413  Cl    0.89320   0.05291   0.57266   0.00000  Uiso   1.00
Cl414  Cl    0.77346   0.28042   0.42734   0.00000  Uiso   1.00
Cl415  Cl    0.77346   0.05291   0.42734   0.00000  Uiso   1.00
Cl416  Cl    0.89320   0.28042   0.57266   0.00000  Uiso   1.00
H417   H     0.70406   0.09370   0.50003   0.00000  Uiso   1.00
H418   H     0.96261   0.23963   0.49997   0.00000  Uiso   1.00
H419   H     0.96261   0.09370   0.49997   0.00000  Uiso   1.00
H420   H     0.70406   0.23963   0.50003   0.00000  Uiso   1.00
N421   N     0.83333   0.28573   0.50000   0.00000  Uiso   1.00
N422   N     0.83333   0.04760   0.50000   0.00000  Uiso   1.00
O423   O     0.77226   0.20487   0.50000   0.00000  Uiso   1.00
O424   O     0.89441   0.12846   0.50000   0.00000  Uiso   1.00
O425   O     0.89441   0.20487   0.50000   0.00000  Uiso   1.00
O426   O     0.77226   0.12846   0.50000   0.00000  Uiso   1.00
O427   O     0.83334   0.20488   0.42845   0.00000  Uiso   1.00
O428   O     0.83333   0.12845   0.57155   0.00000  Uiso   1.00
O429   O     0.83333   0.20488   0.57155   0.00000  Uiso   1.00
O430   O     0.83334   0.12845   0.42845   0.00000  Uiso   1.00
Zn431  Zn    0.83333   0.21771   0.50000   0.00000  Uiso   1.00
Zn432  Zn    0.83333   0.11563   0.50000   0.00000  Uiso   1.00
C433   C     0.08669   0.50000   0.49995   0.00000  Uiso   1.00
C434   C     0.02128   0.54099   0.49999   0.00000  Uiso   1.00
C435   C     0.29084   0.50000   0.50003   0.00000  Uiso   1.00
C436   C     0.04250   0.50000   0.49997   0.00000  Uiso   1.00
C437   C     0.19267   0.35725   0.53152   0.00000  Uiso   1.00
C438   C     0.14067   0.64275   0.46848   0.00000  Uiso   1.00
C439   C     0.14067   0.35725   0.46848   0.00000  Uiso   1.00
C440   C     0.19267   0.64275   0.53152   0.00000  Uiso   1.00
C441   C     0.24664   0.50000   0.50005   0.00000  Uiso   1.00
C442   C     0.16661   0.50000   0.40629   0.00000  Uiso   1.00
C443   C     0.16673   0.50000   0.59371   0.00000  Uiso   1.00
C444   C     0.16664   0.50000   0.35514   0.00000  Uiso   1.00
C445   C     0.16669   0.50000   0.64486   0.00000  Uiso   1.00
C446   C     0.02128   0.45901   0.49999   0.00000  Uiso   1.00
C447   C     0.31205   0.54099   0.50001   0.00000  Uiso   1.00
C448   C     0.31205   0.45901   0.50001   0.00000  Uiso   1.00
Cl449  Cl    0.22654   0.38624   0.57266   0.00000  Uiso   1.00
Cl450  Cl    0.10680   0.61376   0.42734   0.00000  Uiso   1.00
Cl451  Cl    0.10680   0.38624   0.42734   0.00000  Uiso   1.00
Cl452  Cl    0.22654   0.61376   0.57266   0.00000  Uiso   1.00
H453   H     0.03739   0.42703   0.50003   0.00000  Uiso   1.00
H454   H     0.29594   0.57297   0.49997   0.00000  Uiso   1.00
H455   H     0.29594   0.42703   0.49997   0.00000  Uiso   1.00
H456   H     0.03739   0.57297   0.50003   0.00000  Uiso   1.00
N457   N     0.16667   0.61907   0.50000   0.00000  Uiso   1.00
N458   N     0.16667   0.38093   0.50000   0.00000  Uiso   1.00
O459   O     0.10559   0.53821   0.50000   0.00000  Uiso   1.00
O460   O     0.22774   0.46179   0.50000   0.00000  Uiso   1.00
O461   O     0.22774   0.53821   0.50000   0.00000  Uiso   1.00
O462   O     0.10559   0.46179   0.50000   0.00000  Uiso   1.00
O463   O     0.16667   0.53821   0.42845   0.00000  Uiso   1.00
O464   O     0.16666   0.46179   0.57155   0.00000  Uiso   1.00
O465   O     0.16666   0.53821   0.57155   0.00000  Uiso   1.00
O466   O     0.16667   0.46179   0.42845   0.00000  Uiso   1.00
Zn467  Zn    0.16667   0.55104   0.50000   0.00000  Uiso   1.00
Zn468  Zn    0.16667   0.44896   0.50000   0.00000  Uiso   1.00
C469   C     0.42002   0.50000   0.49995   0.00000  Uiso   1.00
C470   C     0.35462   0.54099   0.49999   0.00000  Uiso   1.00
C471   C     0.62417   0.50000   0.50003   0.00000  Uiso   1.00
C472   C     0.37583   0.50000   0.49997   0.00000  Uiso   1.00
C473   C     0.52600   0.35725   0.53152   0.00000  Uiso   1.00
C474   C     0.47400   0.64275   0.46848   0.00000  Uiso   1.00
C475   C     0.47400   0.35725   0.46848   0.00000  Uiso   1.00
C476   C     0.52600   0.64275   0.53152   0.00000  Uiso   1.00
C477   C     0.57998   0.50000   0.50005   0.00000  Uiso   1.00
C478   C     0.49994   0.50000   0.40629   0.00000  Uiso   1.00
C479   C     0.50006   0.50000   0.59371   0.00000  Uiso   1.00
C480   C     0.49998   0.50000   0.35514   0.00000  Uiso   1.00
C481   C     0.50002   0.50000   0.64486   0.00000  Uiso   1.00
C482   C     0.35462   0.45901   0.49999   0.00000  Uiso   1.00
C483   C     0.64538   0.54099   0.50001   0.00000  Uiso   1.00
C484   C     0.64538   0.45901   0.50001   0.00000  Uiso   1.00
Cl485  Cl    0.55987   0.38624   0.57266   0.00000  Uiso   1.00
Cl486  Cl    0.44013   0.61376   0.42734   0.00000  Uiso   1.00
Cl487  Cl    0.44013   0.38624   0.42734   0.00000  Uiso   1.00
Cl488  Cl    0.55987   0.61376   0.57266   0.00000  Uiso   1.00
H489   H     0.37072   0.42703   0.50003   0.00000  Uiso   1.00
H490   H     0.62928   0.57297   0.49997   0.00000  Uiso   1.00
H491   H     0.62928   0.42703   0.49997   0.00000  Uiso   1.00
H492   H     0.37072   0.57297   0.50003   0.00000  Uiso   1.00
N493   N     0.50000   0.61907   0.50000   0.00000  Uiso   1.00
N494   N     0.50000   0.38093   0.50000   0.00000  Uiso   1.00
O495   O     0.43892   0.53821   0.50000   0.00000  Uiso   1.00
O496   O     0.56108   0.46179   0.50000   0.00000  Uiso   1.00
O497   O     0.56108   0.53821   0.50000   0.00000  Uiso   1.00
O498   O     0.43892   0.46179   0.50000   0.00000  Uiso   1.00
O499   O     0.50000   0.53821   0.42845   0.00000  Uiso   1.00
O500   O     0.50000   0.46179   0.57155   0.00000  Uiso   1.00
O501   O     0.50000   0.53821   0.57155   0.00000  Uiso   1.00
O502   O     0.50000   0.46179   0.42845   0.00000  Uiso   1.00
Zn503  Zn    0.50000   0.55104   0.50000   0.00000  Uiso   1.00
Zn504  Zn    0.50000   0.44896   0.50000   0.00000  Uiso   1.00
C505   C     0.75336   0.50000   0.49995   0.00000  Uiso   1.00
C506   C     0.68795   0.54099   0.49999   0.00000  Uiso   1.00
C507   C     0.95750   0.50000   0.50003   0.00000  Uiso   1.00
C508   C     0.70916   0.50000   0.49997   0.00000  Uiso   1.00
C509   C     0.85933   0.35725   0.53152   0.00000  Uiso   1.00
C510   C     0.80733   0.64275   0.46848   0.00000  Uiso   1.00
C511   C     0.80733   0.35725   0.46848   0.00000  Uiso   1.00
C512   C     0.85933   0.64275   0.53152   0.00000  Uiso   1.00
C513   C     0.91331   0.50000   0.50005   0.00000  Uiso   1.00
C514   C     0.83327   0.50000   0.40629   0.00000  Uiso   1.00
C515   C     0.83339   0.50000   0.59371   0.00000  Uiso   1.00
C516   C     0.83331   0.50000   0.35514   0.00000  Uiso   1.00
C517   C     0.83336   0.50000   0.64486   0.00000  Uiso   1.00
C518   C     0.68795   0.45901   0.49999   0.00000  Uiso   1.00
C519   C     0.97872   0.54099   0.50001   0.00000  Uiso   1.00
C520   C     0.97872   0.45901   0.50001   0.00000  Uiso   1.00
Cl521  Cl    0.89320   0.38624   0.57266   0.00000  Uiso   1.00
Cl522  Cl    0.77346   0.61376   0.42734   0.00000  Uiso   1.00
Cl523  Cl    0.77346   0.38624   0.42734   0.00000  Uiso   1.00
Cl524  Cl    0.89320   0.61376   0.57266   0.00000  Uiso   1.00
H525   H     0.70406   0.42703   0.50003   0.00000  Uiso   1.00
H526   H     0.96261   0.57297   0.49997   0.00000  Uiso   1.00
H527   H     0.96261   0.42703   0.49997   0.00000  Uiso   1.00
H528   H     0.70406   0.57297   0.50003   0.00000  Uiso   1.00
N529   N     0.83333   0.61907   0.50000   0.00000  Uiso   1.00
N530   N     0.83333   0.38093   0.50000   0.00000  Uiso   1.00
O531   O     0.77226   0.53821   0.50000   0.00000  Uiso   1.00
O532   O     0.89441   0.46179   0.50000   0.00000  Uiso   1.00
O533   O     0.89441   0.53821   0.50000   0.00000  Uiso   1.00
O534   O     0.77226   0.46179   0.50000   0.00000  Uiso   1.00
O535   O     0.83334   0.53821   0.42845   0.00000  Uiso   1.00
O536   O     0.83333   0.46179   0.57155   0.00000  Uiso   1.00
O537   O     0.83333   0.53821   0.57155   0.00000  Uiso   1.00
O538   O     0.83334   0.46179   0.42845   0.00000  Uiso   1.00
Zn539  Zn    0.83333   0.55104   0.50000   0.00000  Uiso   1.00
Zn540  Zn    0.83333   0.44896   0.50000   0.00000  Uiso   1.00
C541   C     0.08669   0.83333   0.49995   0.00000  Uiso   1.00
C542   C     0.02128   0.87432   0.49999   0.00000  Uiso   1.00
C543   C     0.29084   0.83333   0.50003   0.00000  Uiso   1.00
C544   C     0.04250   0.83333   0.49997   0.00000  Uiso   1.00
C545   C     0.19267   0.69059   0.53152   0.00000  Uiso   1.00
C546   C     0.14067   0.97608   0.46848   0.00000  Uiso   1.00
C547   C     0.14067   0.69059   0.46848   0.00000  Uiso   1.00
C548   C     0.19267   0.97608   0.53152   0.00000  Uiso   1.00
C549   C     0.24664   0.83333   0.50005   0.00000  Uiso   1.00
C550   C     0.16661   0.83333   0.40629   0.00000  Uiso   1.00
C551   C     0.16673   0.83333   0.59371   0.00000  Uiso   1.00
C552   C     0.16664   0.83333   0.35514   0.00000  Uiso   1.00
C553   C     0.16669   0.83333   0.64486   0.00000  Uiso   1.00
C554   C     0.02128   0.79234   0.49999   0.00000  Uiso   1.00
C555   C     0.31205   0.87432   0.50001   0.00000  Uiso   1.00
C556   C     0.31205   0.79234   0.50001   0.00000  Uiso   1.00
Cl557  Cl    0.22654   0.71958   0.57266   0.00000  Uiso   1.00
Cl558  Cl    0.10680   0.94709   0.42734   0.00000  Uiso   1.00
Cl559  Cl    0.10680   0.71958   0.42734   0.00000  Uiso   1.00
Cl560  Cl    0.22654   0.94709   0.57266   0.00000  Uiso   1.00
H561   H     0.03739   0.76037   0.50003   0.00000  Uiso   1.00
H562   H     0.29594   0.90630   0.49997   0.00000  Uiso   1.00
H563   H     0.29594   0.76037   0.49997   0.00000  Uiso   1.00
H564   H     0.03739   0.90630   0.50003   0.00000  Uiso   1.00
N565   N     0.16667   0.95240   0.50000   0.00000  Uiso   1.00
N566   N     0.16667   0.71427   0.50000   0.00000  Uiso   1.00
O567   O     0.10559   0.87154   0.50000   0.00000  Uiso   1.00
O568   O     0.22774   0.79513   0.50000   0.00000  Uiso   1.00
O569   O     0.22774   0.87154   0.50000   0.00000  Uiso   1.00
O570   O     0.10559   0.79513   0.50000   0.00000  Uiso   1.00
O571   O     0.16667   0.87155   0.42845   0.00000  Uiso   1.00
O572   O     0.16666   0.79512   0.57155   0.00000  Uiso   1.00
O573   O     0.16666   0.87155   0.57155   0.00000  Uiso   1.00
O574   O     0.16667   0.79512   0.42845   0.00000  Uiso   1.00
Zn575  Zn    0.16667   0.88437   0.50000   0.00000  Uiso   1.00
Zn576  Zn    0.16667   0.78229   0.50000   0.00000  Uiso   1.00
C577   C     0.42002   0.83333   0.49995   0.00000  Uiso   1.00
C578   C     0.35462   0.87432   0.49999   0.00000  Uiso   1.00
C579   C     0.62417   0.83333   0.50003   0.00000  Uiso   1.00
C580   C     0.37583   0.83333   0.49997   0.00000  Uiso   1.00
C581   C     0.52600   0.69059   0.53152   0.00000  Uiso   1.00
C582   C     0.47400   0.97608   0.46848   0.00000  Uiso   1.00
C583   C     0.47400   0.69059   0.46848   0.00000  Uiso   1.00
C584   C     0.52600   0.97608   0.53152   0.00000  Uiso   1.00
C585   C     0.57998   0.83333   0.50005   0.00000  Uiso   1.00
C586   C     0.49994   0.83333   0.40629   0.00000  Uiso   1.00
C587   C     0.50006   0.83333   0.59371   0.00000  Uiso   1.00
C588   C     0.49998   0.83333   0.35514   0.00000  Uiso   1.00
C589   C     0.50002   0.83333   0.64486   0.00000  Uiso   1.00
C590   C     0.35462   0.79234   0.49999   0.00000  Uiso   1.00
C591   C     0.64538   0.87432   0.50001   0.00000  Uiso   1.00
C592   C     0.64538   0.79234   0.50001   0.00000  Uiso   1.00
Cl593  Cl    0.55987   0.71958   0.57266   0.00000  Uiso   1.00
Cl594  Cl    0.44013   0.94709   0.42734   0.00000  Uiso   1.00
Cl595  Cl    0.44013   0.71958   0.42734   0.00000  Uiso   1.00
Cl596  Cl    0.55987   0.94709   0.57266   0.00000  Uiso   1.00
H597   H     0.37072   0.76037   0.50003   0.00000  Uiso   1.00
H598   H     0.62928   0.90630   0.49997   0.00000  Uiso   1.00
H599   H     0.62928   0.76037   0.49997   0.00000  Uiso   1.00
H600   H     0.37072   0.90630   0.50003   0.00000  Uiso   1.00
N601   N     0.50000   0.95240   0.50000   0.00000  Uiso   1.00
N602   N     0.50000   0.71427   0.50000   0.00000  Uiso   1.00
O603   O     0.43892   0.87154   0.50000   0.00000  Uiso   1.00
O604   O     0.56108   0.79513   0.50000   0.00000  Uiso   1.00
O605   O     0.56108   0.87154   0.50000   0.00000  Uiso   1.00
O606   O     0.43892   0.79513   0.50000   0.00000  Uiso   1.00
O607   O     0.50000   0.87155   0.42845   0.00000  Uiso   1.00
O608   O     0.50000   0.79512   0.57155   0.00000  Uiso   1.00
O609   O     0.50000   0.87155   0.57155   0.00000  Uiso   1.00
O610   O     0.50000   0.79512   0.42845   0.00000  Uiso   1.00
Zn611  Zn    0.50000   0.88437   0.50000   0.00000  Uiso   1.00
Zn612  Zn    0.50000   0.78229   0.50000   0.00000  Uiso   1.00
C613   C     0.75336   0.83333   0.49995   0.00000  Uiso   1.00
C614   C     0.68795   0.87432   0.49999   0.00000  Uiso   1.00
C615   C     0.95750   0.83333   0.50003   0.00000  Uiso   1.00
C616   C     0.70916   0.83333   0.49997   0.00000  Uiso   1.00
C617   C     0.85933   0.69059   0.53152   0.00000  Uiso   1.00
C618   C     0.80733   0.97608   0.46848   0.00000  Uiso   1.00
C619   C     0.80733   0.69059   0.46848   0.00000  Uiso   1.00
C620   C     0.85933   0.97608   0.53152   0.00000  Uiso   1.00
C621   C     0.91331   0.83333   0.50005   0.00000  Uiso   1.00
C622   C     0.83327   0.83333   0.40629   0.00000  Uiso   1.00
C623   C     0.83339   0.83333   0.59371   0.00000  Uiso   1.00
C624   C     0.83331   0.83333   0.35514   0.00000  Uiso   1.00
C625   C     0.83336   0.83333   0.64486   0.00000  Uiso   1.00
C626   C     0.68795   0.79234   0.49999   0.00000  Uiso   1.00
C627   C     0.97872   0.87432   0.50001   0.00000  Uiso   1.00
C628   C     0.97872   0.79234   0.50001   0.00000  Uiso   1.00
Cl629  Cl    0.89320   0.71958   0.57266   0.00000  Uiso   1.00
Cl630  Cl    0.77346   0.94709   0.42734   0.00000  Uiso   1.00
Cl631  Cl    0.77346   0.71958   0.42734   0.00000  Uiso   1.00
Cl632  Cl    0.89320   0.94709   0.57266   0.00000  Uiso   1.00
H633   H     0.70406   0.76037   0.50003   0.00000  Uiso   1.00
H634   H     0.96261   0.90630   0.49997   0.00000  Uiso   1.00
H635   H     0.96261   0.76037   0.49997   0.00000  Uiso   1.00
H636   H     0.70406   0.90630   0.50003   0.00000  Uiso   1.00
N637   N     0.83333   0.95240   0.50000   0.00000  Uiso   1.00
N638   N     0.83333   0.71427   0.50000   0.00000  Uiso   1.00
O639   O     0.77226   0.87154   0.50000   0.00000  Uiso   1.00
O640   O     0.89441   0.79513   0.50000   0.00000  Uiso   1.00
O641   O     0.89441   0.87154   0.50000   0.00000  Uiso   1.00
O642   O     0.77226   0.79513   0.50000   0.00000  Uiso   1.00
O643   O     0.83334   0.87155   0.42845   0.00000  Uiso   1.00
O644   O     0.83333   0.79512   0.57155   0.00000  Uiso   1.00
O645   O     0.83333   0.87155   0.57155   0.00000  Uiso   1.00
O646   O     0.83334   0.79512   0.42845   0.00000  Uiso   1.00
Zn647  Zn    0.83333   0.88437   0.50000   0.00000  Uiso   1.00
Zn648  Zn    0.83333   0.78229   0.50000   0.00000  Uiso   1.00
C649   C     0.08669   0.16667   0.83328   0.00000  Uiso   1.00
C650   C     0.02128   0.20766   0.83333   0.00000  Uiso   1.00
C651   C     0.29084   0.16667   0.83337   0.00000  Uiso   1.00
C652   C     0.04250   0.16667   0.83330   0.00000  Uiso   1.00
C653   C     0.19267   0.02392   0.86485   0.00000  Uiso   1.00
C654   C     0.14067   0.30941   0.80181   0.00000  Uiso   1.00
C655   C     0.14067   0.02392   0.80181   0.00000  Uiso   1.00
C656   C     0.19267   0.30941   0.86485   0.00000  Uiso   1.00
C657   C     0.24664   0.16667   0.83339   0.00000  Uiso   1.00
C658   C     0.16661   0.16667   0.73962   0.00000  Uiso   1.00
C659   C     0.16673   0.16667   0.92705   0.00000  Uiso   1.00
C660   C     0.16664   0.16667   0.68848   0.00000  Uiso   1.00
C661   C     0.16669   0.16667   0.97819   0.00000  Uiso   1.00
C662   C     0.02128   0.12568   0.83333   0.00000  Uiso   1.00
C663   C     0.31205   0.20766   0.83334   0.00000  Uiso   1.00
C664   C     0.31205   0.12568   0.83334   0.00000  Uiso   1.00
Cl665  Cl    0.22654   0.05291   0.90599   0.00000  Uiso   1.00
Cl666  Cl    0.10680   0.28042   0.76068   0.00000  Uiso   1.00
Cl667  Cl    0.10680   0.05291   0.76068   0.00000  Uiso   1.00
Cl668  Cl    0.22654   0.28042   0.90599   0.00000  Uiso   1.00
H669   H     0.03739   0.09370   0.83336   0.00000  Uiso   1.00
H670   H     0.29594   0.23963   0.83331   0.00000  Uiso   1.00
H671   H     0.29594   0.09370   0.83331   0.00000  Uiso   1.00
H672   H     0.03739   0.23963   0.83336   0.00000  Uiso   1.00
N673   N     0.16667   0.28573   0.83333   0.00000  Uiso   1.00
N674   N     0.16667   0.04760   0.83333   0.00000  Uiso   1.00
O675   O     0.10559   0.20487   0.83333   0.00000  Uiso   1.00
O676   O     0.22774   0.12846   0.83334   0.00000  Uiso   1.00
O677   O     0.22774   0.20487   0.83334   0.00000  Uiso   1.00
O678   O     0.10559   0.12846   0.83333   0.00000  Uiso   1.00
O679   O     0.16667   0.20488   0.76178   0.00000  Uiso   1.00
O680   O     0.16666   0.12845   0.90489   0.00000  Uiso   1.00
O681   O     0.16666   0.20488   0.90489   0.00000  Uiso   1.00
O682   O     0.16667   0.12845   0.76178   0.00000  Uiso   1.00
Zn683  Zn    0.16667   0.21771   0.83333   0.00000  Uiso   1.00
Zn684  Zn    0.16667   0.11563   0.83333   0.00000  Uiso   1.00
C685   C     0.42002   0.16667   0.83328   0.00000  Uiso   1.00
C686   C     0.35462   0.20766   0.83333   0.00000  Uiso   1.00
C687   C     0.62417   0.16667   0.83337   0.00000  Uiso   1.00
C688   C     0.37583   0.16667   0.83330   0.00000  Uiso   1.00
C689   C     0.52600   0.02392   0.86485   0.00000  Uiso   1.00
C690   C     0.47400   0.30941   0.80181   0.00000  Uiso   1.00
C691   C     0.47400   0.02392   0.80181   0.00000  Uiso   1.00
C692   C     0.52600   0.30941   0.86485   0.00000  Uiso   1.00
C693   C     0.57998   0.16667   0.83339   0.00000  Uiso   1.00
C694   C     0.49994   0.16667   0.73962   0.00000  Uiso   1.00
C695   C     0.50006   0.16667   0.92705   0.00000  Uiso   1.00
C696   C     0.49998   0.16667   0.68848   0.00000  Uiso   1.00
C697   C     0.50002   0.16667   0.97819   0.00000  Uiso   1.00
C698   C     0.35462   0.12568   0.83333   0.00000  Uiso   1.00
C699   C     0.64538   0.20766   0.83334   0.00000  Uiso   1.00
C700   C     0.64538   0.12568   0.83334   0.00000  Uiso   1.00
Cl701  Cl    0.55987   0.05291   0.90599   0.00000  Uiso   1.00
Cl702  Cl    0.44013   0.28042   0.76068   0.00000  Uiso   1.00
Cl703  Cl    0.44013   0.05291   0.76068   0.00000  Uiso   1.00
Cl704  Cl    0.55987   0.28042   0.90599   0.00000  Uiso   1.00
H705   H     0.37072   0.09370   0.83336   0.00000  Uiso   1.00
H706   H     0.62928   0.23963   0.83331   0.00000  Uiso   1.00
H707   H     0.62928   0.09370   0.83331   0.00000  Uiso   1.00
H708   H     0.37072   0.23963   0.83336   0.00000  Uiso   1.00
N709   N     0.50000   0.28573   0.83333   0.00000  Uiso   1.00
N710   N     0.50000   0.04760   0.83333   0.00000  Uiso   1.00
O711   O     0.43892   0.20487   0.83333   0.00000  Uiso   1.00
O712   O     0.56108   0.12846   0.83334   0.00000  Uiso   1.00
O713   O     0.56108   0.20487   0.83334   0.00000  Uiso   1.00
O714   O     0.43892   0.12846   0.83333   0.00000  Uiso   1.00
O715   O     0.50000   0.20488   0.76178   0.00000  Uiso   1.00
O716   O     0.50000   0.12845   0.90489   0.00000  Uiso   1.00
O717   O     0.50000   0.20488   0.90489   0.00000  Uiso   1.00
O718   O     0.50000   0.12845   0.76178   0.00000  Uiso   1.00
Zn719  Zn    0.50000   0.21771   0.83333   0.00000  Uiso   1.00
Zn720  Zn    0.50000   0.11563   0.83333   0.00000  Uiso   1.00
C721   C     0.75336   0.16667   0.83328   0.00000  Uiso   1.00
C722   C     0.68795   0.20766   0.83333   0.00000  Uiso   1.00
C723   C     0.95750   0.16667   0.83337   0.00000  Uiso   1.00
C724   C     0.70916   0.16667   0.83330   0.00000  Uiso   1.00
C725   C     0.85933   0.02392   0.86485   0.00000  Uiso   1.00
C726   C     0.80733   0.30941   0.80181   0.00000  Uiso   1.00
C727   C     0.80733   0.02392   0.80181   0.00000  Uiso   1.00
C728   C     0.85933   0.30941   0.86485   0.00000  Uiso   1.00
C729   C     0.91331   0.16667   0.83339   0.00000  Uiso   1.00
C730   C     0.83327   0.16667   0.73962   0.00000  Uiso   1.00
C731   C     0.83339   0.16667   0.92705   0.00000  Uiso   1.00
C732   C     0.83331   0.16667   0.68848   0.00000  Uiso   1.00
C733   C     0.83336   0.16667   0.97819   0.00000  Uiso   1.00
C734   C     0.68795   0.12568   0.83333   0.00000  Uiso   1.00
C735   C     0.97872   0.20766   0.83334   0.00000  Uiso   1.00
C736   C     0.97872   0.12568   0.83334   0.00000  Uiso   1.00
Cl737  Cl    0.89320   0.05291   0.90599   0.00000  Uiso   1.00
Cl738  Cl    0.77346   0.28042   0.76068   0.00000  Uiso   1.00
Cl739  Cl    0.77346   0.05291   0.76068   0.00000  Uiso   1.00
Cl740  Cl    0.89320   0.28042   0.90599   0.00000  Uiso   1.00
H741   H     0.70406   0.09370   0.83336   0.00000  Uiso   1.00
H742   H     0.96261   0.23963   0.83331   0.00000  Uiso   1.00
H743   H     0.96261   0.09370   0.83331   0.00000  Uiso   1.00
H744   H     0.70406   0.23963   0.83336   0.00000  Uiso   1.00
N745   N     0.83333   0.28573   0.83333   0.00000  Uiso   1.00
N746   N     0.83333   0.04760   0.83333   0.00000  Uiso   1.00
O747   O     0.77226   0.20487   0.83333   0.00000  Uiso   1.00
O748   O     0.89441   0.12846   0.83334   0.00000  Uiso   1.00
O749   O     0.89441   0.20487   0.83334   0.00000  Uiso   1.00
O750   O     0.77226   0.12846   0.83333   0.00000  Uiso   1.00
O751   O     0.83334   0.20488   0.76178   0.00000  Uiso   1.00
O752   O     0.83333   0.12845   0.90489   0.00000  Uiso   1.00
O753   O     0.83333   0.20488   0.90489   0.00000  Uiso   1.00
O754   O     0.83334   0.12845   0.76178   0.00000  Uiso   1.00
Zn755  Zn    0.83333   0.21771   0.83333   0.00000  Uiso   1.00
Zn756  Zn    0.83333   0.11563   0.83333   0.00000  Uiso   1.00
C757   C     0.08669   0.50000   0.83328   0.00000  Uiso   1.00
C758   C     0.02128   0.54099   0.83333   0.00000  Uiso   1.00
C759   C     0.29084   0.50000   0.83337   0.00000  Uiso   1.00
C760   C     0.04250   0.50000   0.83330   0.00000  Uiso   1.00
C761   C     0.19267   0.35725   0.86485   0.00000  Uiso   1.00
C762   C     0.14067   0.64275   0.80181   0.00000  Uiso   1.00
C763   C     0.14067   0.35725   0.80181   0.00000  Uiso   1.00
C764   C     0.19267   0.64275   0.86485   0.00000  Uiso   1.00
C765   C     0.24664   0.50000   0.83339   0.00000  Uiso   1.00
C766   C     0.16661   0.50000   0.73962   0.00000  Uiso   1.00
C767   C     0.16673   0.50000   0.92705   0.00000  Uiso   1.00
C768   C     0.16664   0.50000   0.68848   0.00000  Uiso   1.00
C769   C     0.16669   0.50000   0.97819   0.00000  Uiso   1.00
C770   C     0.02128   0.45901   0.83333   0.00000  Uiso   1.00
C771   C     0.31205   0.54099   0.83334   0.00000  Uiso   1.00
C772   C     0.31205   0.45901   0.83334   0.00000  Uiso   1.00
Cl773  Cl    0.22654   0.38624   0.90599   0.00000  Uiso   1.00
Cl774  Cl    0.10680   0.61376   0.76068   0.00000  Uiso   1.00
Cl775  Cl    0.10680   0.38624   0.76068   0.00000  Uiso   1.00
Cl776  Cl    0.22654   0.61376   0.90599   0.00000  Uiso   1.00
H777   H     0.03739   0.42703   0.83336   0.00000  Uiso   1.00
H778   H     0.29594   0.57297   0.83331   0.00000  Uiso   1.00
H779   H     0.29594   0.42703   0.83331   0.00000  Uiso   1.00
H780   H     0.03739   0.57297   0.83336   0.00000  Uiso   1.00
N781   N     0.16667   0.61907   0.83333   0.00000  Uiso   1.00
N782   N     0.16667   0.38093   0.83333   0.00000  Uiso   1.00
O783   O     0.10559   0.53821   0.83333   0.00000  Uiso   1.00
O784   O     0.22774   0.46179   0.83334   0.00000  Uiso   1.00
O785   O     0.22774   0.53821   0.83334   0.00000  Uiso   1.00
O786   O     0.10559   0.46179   0.83333   0.00000  Uiso   1.00
O787   O     0.16667   0.53821   0.76178   0.00000  Uiso   1.00
O788   O     0.16666   0.46179   0.90489   0.00000  Uiso   1.00
O789   O     0.16666   0.53821   0.90489   0.00000  Uiso   1.00
O790   O     0.16667   0.46179   0.76178   0.00000  Uiso   1.00
Zn791  Zn    0.16667   0.55104   0.83333   0.00000  Uiso   1.00
Zn792  Zn    0.16667   0.44896   0.83333   0.00000  Uiso   1.00
C793   C     0.42002   0.50000   0.83328   0.00000  Uiso   1.00
C794   C     0.35462   0.54099   0.83333   0.00000  Uiso   1.00
C795   C     0.62417   0.50000   0.83337   0.00000  Uiso   1.00
C796   C     0.37583   0.50000   0.83330   0.00000  Uiso   1.00
C797   C     0.52600   0.35725   0.86485   0.00000  Uiso   1.00
C798   C     0.47400   0.64275   0.80181   0.00000  Uiso   1.00
C799   C     0.47400   0.35725   0.80181   0.00000  Uiso   1.00
C800   C     0.52600   0.64275   0.86485   0.00000  Uiso   1.00
C801   C     0.57998   0.50000   0.83339   0.00000  Uiso   1.00
C802   C     0.49994   0.50000   0.73962   0.00000  Uiso   1.00
C803   C     0.50006   0.50000   0.92705   0.00000  Uiso   1.00
C804   C     0.49998   0.50000   0.68848   0.00000  Uiso   1.00
C805   C     0.50002   0.50000   0.97819   0.00000  Uiso   1.00
C806   C     0.35462   0.45901   0.83333   0.00000  Uiso   1.00
C807   C     0.64538   0.54099   0.83334   0.00000  Uiso   1.00
C808   C     0.64538   0.45901   0.83334   0.00000  Uiso   1.00
Cl809  Cl    0.55987   0.38624   0.90599   0.00000  Uiso   1.00
Cl810  Cl    0.44013   0.61376   0.76068   0.00000  Uiso   1.00
Cl811  Cl    0.44013   0.38624   0.76068   0.00000  Uiso   1.00
Cl812  Cl    0.55987   0.61376   0.90599   0.00000  Uiso   1.00
H813   H     0.37072   0.42703   0.83336   0.00000  Uiso   1.00
H814   H     0.62928   0.57297   0.83331   0.00000  Uiso   1.00
H815   H     0.62928   0.42703   0.83331   0.00000  Uiso   1.00
H816   H     0.37072   0.57297   0.83336   0.00000  Uiso   1.00
N817   N     0.50000   0.61907   0.83333   0.00000  Uiso   1.00
N818   N     0.50000   0.38093   0.83333   0.00000  Uiso   1.00
O819   O     0.43892   0.53821   0.83333   0.00000  Uiso   1.00
O820   O     0.56108   0.46179   0.83334   0.00000  Uiso   1.00
O821   O     0.56108   0.53821   0.83334   0.00000  Uiso   1.00
O822   O     0.43892   0.46179   0.83333   0.00000  Uiso   1.00
O823   O     0.50000   0.53821   0.76178   0.00000  Uiso   1.00
O824   O     0.50000   0.46179   0.90489   0.00000  Uiso   1.00
O825   O     0.50000   0.53821   0.90489   0.00000  Uiso   1.00
O826   O     0.50000   0.46179   0.76178   0.00000  Uiso   1.00
Zn827  Zn    0.50000   0.55104   0.83333   0.00000  Uiso   1.00
Zn828  Zn    0.50000   0.44896   0.83333   0.00000  Uiso   1.00
C829   C     0.75336   0.50000   0.83328   0.00000  Uiso   1.00
C830   C     0.68795   0.54099   0.83333   0.00000  Uiso   1.00
C831   C     0.95750   0.50000   0.83337   0.00000  Uiso   1.00
C832   C     0.70916   0.50000   0.83330   0.00000  Uiso   1.00
C833   C     0.85933   0.35725   0.86485   0.00000  Uiso   1.00
C834   C     0.80733   0.64275   0.80181   0.00000  Uiso   1.00
C835   C     0.80733   0.35725   0.80181   0.00000  Uiso   1.00
C836   C     0.85933   0.64275   0.86485   0.00000  Uiso   1.00
C837   C     0.91331   0.50000   0.83339   0.00000  Uiso   1.00
C838   C     0.83327   0.50000   0.73962   0.00000  Uiso   1.00
C839   C     0.83339   0.50000   0.92705   0.00000  Uiso   1.00
C840   C     0.83331   0.50000   0.68848   0.00000  Uiso   1.00
C841   C     0.83336   0.50000   0.97819   0.00000  Uiso   1.00
C842   C     0.68795   0.45901   0.83333   0.00000  Uiso   1.00
C843   C     0.97872   0.54099   0.83334   0.00000  Uiso   1.00
C844   C     0.97872   0.45901   0.83334   0.00000  Uiso   1.00
Cl845  Cl    0.89320   0.38624   0.90599   0.00000  Uiso   1.00
Cl846  Cl    0.77346   0.61376   0.76068   0.00000  Uiso   1.00
Cl847  Cl    0.77346   0.38624   0.76068   0.00000  Uiso   1.00
Cl848  Cl    0.89320   0.61376   0.90599   0.00000  Uiso   1.00
H849   H     0.70406   0.42703   0.83336   0.00000  Uiso   1.00
H850   H     0.96261   0.57297   0.83331   0.00000  Uiso   1.00
H851   H     0.96261   0.42703   0.83331   0.00000  Uiso   1.00
H852   H     0.70406   0.57297   0.83336   0.00000  Uiso   1.00
N853   N     0.83333   0.61907   0.83333   0.00000  Uiso   1.00
N854   N     0.83333   0.38093   0.83333   0.00000  Uiso   1.00
O855   O     0.77226   0.53821   0.83333   0.00000  Uiso   1.00
O856   O     0.89441   0.46179   0.83334   0.00000  Uiso   1.00
O857   O     0.89441   0.53821   0.83334   0.00000  Uiso   1.00
O858   O     0.77226   0.46179   0.83333   0.00000  Uiso   1.00
O859   O     0.83334   0.53821   0.76178   0.00000  Uiso   1.00
O860   O     0.83333   0.46179   0.90489   0.00000  Uiso   1.00
O861   O     0.83333   0.53821   0.90489   0.00000  Uiso   1.00
O862   O     0.83334   0.46179   0.76178   0.00000  Uiso   1.00
Zn863  Zn    0.83333   0.55104   0.83333   0.00000  Uiso   1.00
Zn864  Zn    0.83333   0.44896   0.83333   0.00000  Uiso   1.00
C865   C     0.08669   0.83333   0.83328   0.00000  Uiso   1.00
C866   C     0.02128   0.87432   0.83333   0.00000  Uiso   1.00
C867   C     0.29084   0.83333   0.83337   0.00000  Uiso   1.00
C868   C     0.04250   0.83333   0.83330   0.00000  Uiso   1.00
C869   C     0.19267   0.69059   0.86485   0.00000  Uiso   1.00
C870   C     0.14067   0.97608   0.80181   0.00000  Uiso   1.00
C871   C     0.14067   0.69059   0.80181   0.00000  Uiso   1.00
C872   C     0.19267   0.97608   0.86485   0.00000  Uiso   1.00
C873   C     0.24664   0.83333   0.83339   0.00000  Uiso   1.00
C874   C     0.16661   0.83333   0.73962   0.00000  Uiso   1.00
C875   C     0.16673   0.83333   0.92705   0.00000  Uiso   1.00
C876   C     0.16664   0.83333   0.68848   0.00000  Uiso   1.00
C877   C     0.16669   0.83333   0.97819   0.00000  Uiso   1.00
C878   C     0.02128   0.79234   0.83333   0.00000  Uiso   1.00
C879   C     0.31205   0.87432   0.83334   0.00000  Uiso   1.00
C880   C     0.31205   0.79234   0.83334   0.00000  Uiso   1.00
Cl881  Cl    0.22654   0.71958   0.90599   0.00000  Uiso   1.00
Cl882  Cl    0.10680   0.94709   0.76068   0.00000  Uiso   1.00
Cl883  Cl    0.10680   0.71958   0.76068   0.00000  Uiso   1.00
Cl884  Cl    0.22654   0.94709   0.90599   0.00000  Uiso   1.00
H885   H     0.03739   0.76037   0.83336   0.00000  Uiso   1.00
H886   H     0.29594   0.90630   0.83331   0.00000  Uiso   1.00
H887   H     0.29594   0.76037   0.83331   0.00000  Uiso   1.00
H888   H     0.03739   0.90630   0.83336   0.00000  Uiso   1.00
N889   N     0.16667   0.95240   0.83333   0.00000  Uiso   1.00
N890   N     0.16667   0.71427   0.83333   0.00000  Uiso   1.00
O891   O     0.10559   0.87154   0.83333   0.00000  Uiso   1.00
O892   O     0.22774   0.79513   0.83334   0.00000  Uiso   1.00
O893   O     0.22774   0.87154   0.83334   0.00000  Uiso   1.00
O894   O     0.10559   0.79513   0.83333   0.00000  Uiso   1.00
O895   O     0.16667   0.87155   0.76178   0.00000  Uiso   1.00
O896   O     0.16666   0.79512   0.90489   0.00000  Uiso   1.00
O897   O     0.16666   0.87155   0.90489   0.00000  Uiso   1.00
O898   O     0.16667   0.79512   0.76178   0.00000  Uiso   1.00
Zn899  Zn    0.16667   0.88437   0.83333   0.00000  Uiso   1.00
Zn900  Zn    0.16667   0.78229   0.83333   0.00000  Uiso   1.00
C901   C     0.42002   0.83333   0.83328   0.00000  Uiso   1.00
C902   C     0.35462   0.87432   0.83333   0.00000  Uiso   1.00
C903   C     0.62417   0.83333   0.83337   0.00000  Uiso   1.00
C904   C     0.37583   0.83333   0.83330   0.00000  Uiso   1.00
C905   C     0.52600   0.69059   0.86485   0.00000  Uiso   1.00
C906   C     0.47400   0.97608   0.80181   0.00000  Uiso   1.00
C907   C     0.47400   0.69059   0.80181   0.00000  Uiso   1.00
C908   C     0.52600   0.97608   0.86485   0.00000  Uiso   1.00
C909   C     0.57998   0.83333   0.83339   0.00000  Uiso   1.00
C910   C     0.49994   0.83333   0.73962   0.00000  Uiso   1.00
C911   C     0.50006   0.83333   0.92705   0.00000  Uiso   1.00
C912   C     0.49998   0.83333   0.68848   0.00000  Uiso   1.00
C913   C     0.50002   0.83333   0.97819   0.00000  Uiso   1.00
C914   C     0.35462   0.79234   0.83333   0.00000  Uiso   1.00
C915   C     0.64538   0.87432   0.83334   0.00000  Uiso   1.00
C916   C     0.64538   0.79234   0.83334   0.00000  Uiso   1.00
Cl917  Cl    0.55987   0.71958   0.90599   0.00000  Uiso   1.00
Cl918  Cl    0.44013   0.94709   0.76068   0.00000  Uiso   1.00
Cl919  Cl    0.44013   0.71958   0.76068   0.00000  Uiso   1.00
Cl920  Cl    0.55987   0.94709   0.90599   0.00000  Uiso   1.00
H921   H     0.37072   0.76037   0.83336   0.00000  Uiso   1.00
H922   H     0.62928   0.90630   0.83331   0.00000  Uiso   1.00
H923   H     0.62928   0.76037   0.83331   0.00000  Uiso   1.00
H924   H     0.37072   0.90630   0.83336   0.00000  Uiso   1.00
N925   N     0.50000   0.95240   0.83333   0.00000  Uiso   1.00
N926   N     0.50000   0.71427   0.83333   0.00000  Uiso   1.00
O927   O     0.43892   0.87154   0.83333   0.00000  Uiso   1.00
O928   O     0.56108   0.79513   0.83334   0.00000  Uiso   1.00
O929   O     0.56108   0.87154   0.83334   0.00000  Uiso   1.00
O930   O     0.43892   0.79513   0.83333   0.00000  Uiso   1.00
O931   O     0.50000   0.87155   0.76178   0.00000  Uiso   1.00
O932   O     0.50000   0.79512   0.90489   0.00000  Uiso   1.00
O933   O     0.50000   0.87155   0.90489   0.00000  Uiso   1.00
O934   O     0.50000   0.79512   0.76178   0.00000  Uiso   1.00
Zn935  Zn    0.50000   0.88437   0.83333   0.00000  Uiso   1.00
Zn936  Zn    0.50000   0.78229   0.83333   0.00000  Uiso   1.00
C937   C     0.75336   0.83333   0.83328   0.00000  Uiso   1.00
C938   C     0.68795   0.87432   0.83333   0.00000  Uiso   1.00
C939   C     0.95750   0.83333   0.83337   0.00000  Uiso   1.00
C940   C     0.70916   0.83333   0.83330   0.00000  Uiso   1.00
C941   C     0.85933   0.69059   0.86485   0.00000  Uiso   1.00
C942   C     0.80733   0.97608   0.80181   0.00000  Uiso   1.00
C943   C     0.80733   0.69059   0.80181   0.00000  Uiso   1.00
C944   C     0.85933   0.97608   0.86485   0.00000  Uiso   1.00
C945   C     0.91331   0.83333   0.83339   0.00000  Uiso   1.00
C946   C     0.83327   0.83333   0.73962   0.00000  Uiso   1.00
C947   C     0.83339   0.83333   0.92705   0.00000  Uiso   1.00
C948   C     0.83331   0.83333   0.68848   0.00000  Uiso   1.00
C949   C     0.83336   0.83333   0.97819   0.00000  Uiso   1.00
C950   C     0.68795   0.79234   0.83333   0.00000  Uiso   1.00
C951   C     0.97872   0.87432   0.83334   0.00000  Uiso   1.00
C952   C     0.97872   0.79234   0.83334   0.00000  Uiso   1.00
Cl953  Cl    0.89320   0.71958   0.90599   0.00000  Uiso   1.00
Cl954  Cl    0.77346   0.94709   0.76068   0.00000  Uiso   1.00
Cl955  Cl    0.77346   0.71958   0.76068   0.00000  Uiso   1.00
Cl956  Cl    0.89320   0.94709   0.90599   0.00000  Uiso   1.00
H957   H     0.70406   0.76037   0.83336   0.00000  Uiso   1.00
H958   H     0.96261   0.90630   0.83331   0.00000  Uiso   1.00
H959   H     0.96261   0.76037   0.83331   0.00000  Uiso   1.00
H960   H     0.70406   0.90630   0.83336   0.00000  Uiso   1.00
N961   N     0.83333   0.95240   0.83333   0.00000  Uiso   1.00
N962   N     0.83333   0.71427   0.83333   0.00000  Uiso   1.00
O963   O     0.77226   0.87154   0.83333   0.00000  Uiso   1.00
O964   O     0.89441   0.79513   0.83334   0.00000  Uiso   1.00
O965   O     0.89441   0.87154   0.83334   0.00000  Uiso   1.00
O966   O     0.77226   0.79513   0.83333   0.00000  Uiso   1.00
O967   O     0.83334   0.87155   0.76178   0.00000  Uiso   1.00
O968   O     0.83333   0.79512   0.90489   0.00000  Uiso   1.00
O969   O     0.83333   0.87155   0.90489   0.00000  Uiso   1.00
O970   O     0.83334   0.79512   0.76178   0.00000  Uiso   1.00
Zn971  Zn    0.83333   0.88437   0.83333   0.00000  Uiso   1.00
Zn972  Zn    0.83333   0.78229   0.83333   0.00000  Uiso   1.00
loop_
_geom_bond_atom_site_label_1
_geom_bond_atom_site_label_2
_geom_bond_distance
_geom_bond_site_symmetry_2
_ccdc_geom_bond_type
C1     C4      1.422   .     S
C1     O30     1.289   .     A
C1     O27     1.289   .     A
C2     C4      1.398   .     A
C2     H24     1.083   .     S
C2     C87     1.370   1_455 S
C3     C9      1.422   .     S
C3     C15     1.398   .     A
C3     C16     1.398   .     A
C4     C14     1.398   .     A
C5     Cl17    1.759   .     S
C5     N26     1.371   .     A
C5     C224    1.423   1_545 S
C6     Cl18    1.759   .     S
C6     N25     1.371   .     A
C6     C115    1.423   .     S
C7     N26     1.371   .     A
C7     Cl19    1.759   .     S
C7     C222    1.423   1_545 S
C8     N25     1.371   .     A
C8     Cl20    1.759   .     S
C8     C113    1.423   .     S
C9     O29     1.289   .     A
C9     O28     1.289   .     A
C10    O34     1.282   .     A
C10    C12     1.367   .     S
C10    O31     1.282   .     A
C11    C13     1.367   .     S
C11    O32     1.282   .     A
C11    O33     1.282   .     A
C12    C661    1.166   1_554 S
C13    C336    1.166   .     S
C14    H21     1.083   .     S
C14    C88     1.370   1_455 S
C15    H22     1.083   .     S
C15    C38     1.370   .     S
C16    H23     1.083   .     S
C16    C50     1.370   .     S
N25    Zn35    2.024   .     S
N26    Zn36    2.024   .     S
O27    Zn35    2.002   .     S
O28    Zn36    2.002   .     S
O29    Zn35    2.002   .     S
O30    Zn36    2.002   .     S
O31    Zn35    1.950   .     S
O32    Zn36    1.950   .     S
O33    Zn35    1.950   .     S
O34    Zn36    1.950   .     S
C37    C40     1.422   .     S
C37    O66     1.289   .     A
C37    O63     1.289   .     A
C38    C40     1.398   .     A
C38    H60     1.083   .     S
C39    C45     1.422   .     S
C39    C51     1.398   .     A
C39    C52     1.398   .     A
C40    C50     1.398   .     A
C41    Cl53    1.759   .     S
C41    N62     1.371   .     A
C41    C260    1.423   1_545 S
C42    Cl54    1.759   .     S
C42    N61     1.371   .     A
C42    C151    1.423   .     S
C43    N62     1.371   .     A
C43    Cl55    1.759   .     S
C43    C258    1.423   1_545 S
C44    N61     1.371   .     A
C44    Cl56    1.759   .     S
C44    C149    1.423   .     S
C45    O65     1.289   .     A
C45    O64     1.289   .     A
C46    O70     1.282   .     A
C46    C48     1.367   .     S
C46    O67     1.282   .     A
C47    C49     1.367   .     S
C47    O68     1.282   .     A
C47    O69     1.282   .     A
C48    C697    1.166   1_554 S
C49    C372    1.166   .     S
C50    H57     1.083   .     S
C51    H58     1.083   .     S
C51    C74     1.370   .     S
C52    H59     1.083   .     S
C52    C86     1.370   .     S
N61    Zn71    2.024   .     S
N62    Zn72    2.024   .     S
O63    Zn71    2.002   .     S
O64    Zn72    2.002   .     S
O65    Zn71    2.002   .     S
O66    Zn72    2.002   .     S
O67    Zn71    1.950   .     S
O68    Zn72    1.950   .     S
O69    Zn71    1.950   .     S
O70    Zn72    1.950   .     S
C73    C76     1.422   .     S
C73    O102    1.289   .     A
C73    O99     1.289   .     A
C74    C76     1.398   .     A
C74    H96     1.083   .     S
C75    C81     1.422   .     S
C75    C87     1.398   .     A
C75    C88     1.398   .     A
C76    C86     1.398   .     A
C77    Cl89    1.759   .     S
C77    N98     1.371   .     A
C77    C296    1.423   1_545 S
C78    Cl90    1.759   .     S
C78    N97     1.371   .     A
C78    C187    1.423   .     S
C79    N98     1.371   .     A
C79    Cl91    1.759   .     S
C79    C294    1.423   1_545 S
C80    N97     1.371   .     A
C80    Cl92    1.759   .     S
C80    C185    1.423   .     S
C81    O101    1.289   .     A
C81    O100    1.289   .     A
C82    O106    1.282   .     A
C82    C84     1.367   .     S
C82    O103    1.282   .     A
C83    C85     1.367   .     S
C83    O104    1.282   .     A
C83    O105    1.282   .     A
C84    C733    1.166   1_554 S
C85    C408    1.166   .     S
C86    H93     1.083   .     S
C87    H94     1.083   .     S
C87    C2      1.370   1_655 S
C88    H95     1.083   .     S
C88    C14     1.370   1_655 S
N97    Zn107   2.024   .     S
N98    Zn108   2.024   .     S
O99    Zn107   2.002   .     S
O100   Zn108   2.002   .     S
O101   Zn107   2.002   .     S
O102   Zn108   2.002   .     S
O103   Zn107   1.950   .     S
O104   Zn108   1.950   .     S
O105   Zn107   1.950   .     S
O106   Zn108   1.950   .     S
C109   C112    1.422   .     S
C109   O138    1.289   .     A
C109   O135    1.289   .     A
C110   C112    1.398   .     A
C110   H132    1.083   .     S
C110   C195    1.370   1_455 S
C111   C117    1.422   .     S
C111   C123    1.398   .     A
C111   C124    1.398   .     A
C112   C122    1.398   .     A
C113   Cl125   1.759   .     S
C113   N134    1.371   .     A
C114   Cl126   1.759   .     S
C114   N133    1.371   .     A
C114   C223    1.423   .     S
C115   N134    1.371   .     A
C115   Cl127   1.759   .     S
C116   N133    1.371   .     A
C116   Cl128   1.759   .     S
C116   C221    1.423   .     S
C117   O137    1.289   .     A
C117   O136    1.289   .     A
C118   O142    1.282   .     A
C118   C120    1.367   .     S
C118   O139    1.282   .     A
C119   C121    1.367   .     S
C119   O140    1.282   .     A
C119   O141    1.282   .     A
C120   C769    1.166   1_554 S
C121   C444    1.166   .     S
C122   H129    1.083   .     S
C122   C196    1.370   1_455 S
C123   H130    1.083   .     S
C123   C146    1.370   .     S
C124   H131    1.083   .     S
C124   C158    1.370   .     S
N133   Zn143   2.024   .     S
N134   Zn144   2.024   .     S
O135   Zn143   2.002   .     S
O136   Zn144   2.002   .     S
O137   Zn143   2.002   .     S
O138   Zn144   2.002   .     S
O139   Zn143   1.950   .     S
O140   Zn144   1.950   .     S
O141   Zn143   1.950   .     S
O142   Zn144   1.950   .     S
C145   C148    1.422   .     S
C145   O174    1.289   .     A
C145   O171    1.289   .     A
C146   C148    1.398   .     A
C146   H168    1.083   .     S
C147   C153    1.422   .     S
C147   C159    1.398   .     A
C147   C160    1.398   .     A
C148   C158    1.398   .     A
C149   Cl161   1.759   .     S
C149   N170    1.371   .     A
C150   Cl162   1.759   .     S
C150   N169    1.371   .     A
C150   C259    1.423   .     S
C151   N170    1.371   .     A
C151   Cl163   1.759   .     S
C152   N169    1.371   .     A
C152   Cl164   1.759   .     S
C152   C257    1.423   .     S
C153   O173    1.289   .     A
C153   O172    1.289   .     A
C154   O178    1.282   .     A
C154   C156    1.367   .     S
C154   O175    1.282   .     A
C155   C157    1.367   .     S
C155   O176    1.282   .     A
C155   O177    1.282   .     A
C156   C805    1.166   1_554 S
C157   C480    1.166   .     S
C158   H165    1.083   .     S
C159   H166    1.083   .     S
C159   C182    1.370   .     S
C160   H167    1.083   .     S
C160   C194    1.370   .     S
N169   Zn179   2.024   .     S
N170   Zn180   2.024   .     S
O171   Zn179   2.002   .     S
O172   Zn180   2.002   .     S
O173   Zn179   2.002   .     S
O174   Zn180   2.002   .     S
O175   Zn179   1.950   .     S
O176   Zn180   1.950   .     S
O177   Zn179   1.950   .     S
O178   Zn180   1.950   .     S
C181   C184    1.422   .     S
C181   O210    1.289   .     A
C181   O207    1.289   .     A
C182   C184    1.398   .     A
C182   H204    1.083   .     S
C183   C189    1.422   .     S
C183   C195    1.398   .     A
C183   C196    1.398   .     A
C184   C194    1.398   .     A
C185   Cl197   1.759   .     S
C185   N206    1.371   .     A
C186   Cl198   1.759   .     S
C186   N205    1.371   .     A
C186   C295    1.423   .     S
C187   N206    1.371   .     A
C187   Cl199   1.759   .     S
C188   N205    1.371   .     A
C188   Cl200   1.759   .     S
C188   C293    1.423   .     S
C189   O209    1.289   .     A
C189   O208    1.289   .     A
C190   O214    1.282   .     A
C190   C192    1.367   .     S
C190   O211    1.282   .     A
C191   C193    1.367   .     S
C191   O212    1.282   .     A
C191   O213    1.282   .     A
C192   C841    1.166   1_554 S
C193   C516    1.166   .     S
C194   H201    1.083   .     S
C195   H202    1.083   .     S
C195   C110    1.370   1_655 S
C196   H203    1.083   .     S
C196   C122    1.370   1_655 S
N205   Zn215   2.024   .     S
N206   Zn216   2.024   .     S
O207   Zn215   2.002   .     S
O208   Zn216   2.002   .     S
O209   Zn215   2.002   .     S
O210   Zn216   2.002   .     S
O211   Zn215   1.950   .     S
O212   Zn216   1.950   .     S
O213   Zn215   1.950   .     S
O214   Zn216   1.950   .     S
C217   C220    1.422   .     S
C217   O246    1.289   .     A
C217   O243    1.289   .     A
C218   C220    1.398   .     A
C218   H240    1.083   .     S
C218   C303    1.370   1_455 S
C219   C225    1.422   .     S
C219   C231    1.398   .     A
C219   C232    1.398   .     A
C220   C230    1.398   .     A
C221   Cl233   1.759   .     S
C221   N242    1.371   .     A
C222   Cl234   1.759   .     S
C222   N241    1.371   .     A
C222   C7      1.423   1_565 S
C223   N242    1.371   .     A
C223   Cl235   1.759   .     S
C224   N241    1.371   .     A
C224   Cl236   1.759   .     S
C224   C5      1.423   1_565 S
C225   O245    1.289   .     A
C225   O244    1.289   .     A
C226   O250    1.282   .     A
C226   C228    1.367   .     S
C226   O247    1.282   .     A
C227   C229    1.367   .     S
C227   O248    1.282   .     A
C227   O249    1.282   .     A
C228   C877    1.166   1_554 S
C229   C552    1.166   .     S
C230   H237    1.083   .     S
C230   C304    1.370   1_455 S
C231   H238    1.083   .     S
C231   C254    1.370   .     S
C232   H239    1.083   .     S
C232   C266    1.370   .     S
N241   Zn251   2.024   .     S
N242   Zn252   2.024   .     S
O243   Zn251   2.002   .     S
O244   Zn252   2.002   .     S
O245   Zn251   2.002   .     S
O246   Zn252   2.002   .     S
O247   Zn251   1.950   .     S
O248   Zn252   1.950   .     S
O249   Zn251   1.950   .     S
O250   Zn252   1.950   .     S
C253   C256    1.422   .     S
C253   O282    1.289   .     A
C253   O279    1.289   .     A
C254   C256    1.398   .     A
C254   H276    1.083   .     S
C255   C261    1.422   .     S
C255   C267    1.398   .     A
C255   C268    1.398   .     A
C256   C266    1.398   .     A
C257   Cl269   1.759   .     S
C257   N278    1.371   .     A
C258   Cl270   1.759   .     S
C258   N277    1.371   .     A
C258   C43     1.423   1_565 S
C259   N278    1.371   .     A
C259   Cl271   1.759   .     S
C260   N277    1.371   .     A
C260   Cl272   1.759   .     S
C260   C41     1.423   1_565 S
C261   O281    1.289   .     A
C261   O280    1.289   .     A
C262   O286    1.282   .     A
C262   C264    1.367   .     S
C262   O283    1.282   .     A
C263   C265    1.367   .     S
C263   O284    1.282   .     A
C263   O285    1.282   .     A
C264   C913    1.166   1_554 S
C265   C588    1.166   .     S
C266   H273    1.083   .     S
C267   H274    1.083   .     S
C267   C290    1.370   .     S
C268   H275    1.083   .     S
C268   C302    1.370   .     S
N277   Zn287   2.024   .     S
N278   Zn288   2.024   .     S
O279   Zn287   2.002   .     S
O280   Zn288   2.002   .     S
O281   Zn287   2.002   .     S
O282   Zn288   2.002   .     S
O283   Zn287   1.950   .     S
O284   Zn288   1.950   .     S
O285   Zn287   1.950   .     S
O286   Zn288   1.950   .     S
C289   C292    1.422   .     S
C289   O318    1.289   .     A
C289   O315    1.289   .     A
C290   C292    1.398   .     A
C290   H312    1.083   .     S
C291   C297    1.422   .     S
C291   C303    1.398   .     A
C291   C304    1.398   .     A
C292   C302    1.398   .     A
C293   Cl305   1.759   .     S
C293   N314    1.371   .     A
C294   Cl306   1.759   .     S
C294   N313    1.371   .     A
C294   C79     1.423   1_565 S
C295   N314    1.371   .     A
C295   Cl307   1.759   .     S
C296   N313    1.371   .     A
C296   Cl308   1.759   .     S
C296   C77     1.423   1_565 S
C297   O317    1.289   .     A
C297   O316    1.289   .     A
C298   O322    1.282   .     A
C298   C300    1.367   .     S
C298   O319    1.282   .     A
C299   C301    1.367   .     S
C299   O320    1.282   .     A
C299   O321    1.282   .     A
C300   C949    1.166   1_554 S
C301   C624    1.166   .     S
C302   H309    1.083   .     S
C303   H310    1.083   .     S
C303   C218    1.370   1_655 S
C304   H311    1.083   .     S
C304   C230    1.370   1_655 S
N313   Zn323   2.024   .     S
N314   Zn324   2.024   .     S
O315   Zn323   2.002   .     S
O316   Zn324   2.002   .     S
O317   Zn323   2.002   .     S
O318   Zn324   2.002   .     S
O319   Zn323   1.950   .     S
O320   Zn324   1.950   .     S
O321   Zn323   1.950   .     S
O322   Zn324   1.950   .     S
C325   C328    1.422   .     S
C325   O354    1.289   .     A
C325   O351    1.289   .     A
C326   C328    1.398   .     A
C326   H348    1.083   .     S
C326   C411    1.370   1_455 S
C327   C333    1.422   .     S
C327   C339    1.398   .     A
C327   C340    1.398   .     A
C328   C338    1.398   .     A
C329   Cl341   1.759   .     S
C329   N350    1.371   .     A
C329   C548    1.423   1_545 S
C330   Cl342   1.759   .     S
C330   N349    1.371   .     A
C330   C439    1.423   .     S
C331   N350    1.371   .     A
C331   Cl343   1.759   .     S
C331   C546    1.423   1_545 S
C332   N349    1.371   .     A
C332   Cl344   1.759   .     S
C332   C437    1.423   .     S
C333   O353    1.289   .     A
C333   O352    1.289   .     A
C334   O358    1.282   .     A
C334   C336    1.367   .     S
C334   O355    1.282   .     A
C335   C337    1.367   .     S
C335   O356    1.282   .     A
C335   O357    1.282   .     A
C337   C660    1.166   .     S
C338   H345    1.083   .     S
C338   C412    1.370   1_455 S
C339   H346    1.083   .     S
C339   C362    1.370   .     S
C340   H347    1.083   .     S
C340   C374    1.370   .     S
N349   Zn359   2.024   .     S
N350   Zn360   2.024   .     S
O351   Zn359   2.002   .     S
O352   Zn360   2.002   .     S
O353   Zn359   2.002   .     S
O354   Zn360   2.002   .     S
O355   Zn359   1.950   .     S
O356   Zn360   1.950   .     S
O357   Zn359   1.950   .     S
O358   Zn360   1.950   .     S
C361   C364    1.422   .     S
C361   O390    1.289   .     A
C361   O387    1.289   .     A
C362   C364    1.398   .     A
C362   H384    1.083   .     S
C363   C369    1.422   .     S
C363   C375    1.398   .     A
C363   C376    1.398   .     A
C364   C374    1.398   .     A
C365   Cl377   1.759   .     S
C365   N386    1.371   .     A
C365   C584    1.423   1_545 S
C366   Cl378   1.759   .     S
C366   N385    1.371   .     A
C366   C475    1.423   .     S
C367   N386    1.371   .     A
C367   Cl379   1.759   .     S
C367   C582    1.423   1_545 S
C368   N385    1.371   .     A
C368   Cl380   1.759   .     S
C368   C473    1.423   .     S
C369   O389    1.289   .     A
C369   O388    1.289   .     A
C370   O394    1.282   .     A
C370   C372    1.367   .     S
C370   O391    1.282   .     A
C371   C373    1.367   .     S
C371   O392    1.282   .     A
C371   O393    1.282   .     A
C373   C696    1.166   .     S
C374   H381    1.083   .     S
C375   H382    1.083   .     S
C375   C398    1.370   .     S
C376   H383    1.083   .     S
C376   C410    1.370   .     S
N385   Zn395   2.024   .     S
N386   Zn396   2.024   .     S
O387   Zn395   2.002   .     S
O388   Zn396   2.002   .     S
O389   Zn395   2.002   .     S
O390   Zn396   2.002   .     S
O391   Zn395   1.950   .     S
O392   Zn396   1.950   .     S
O393   Zn395   1.950   .     S
O394   Zn396   1.950   .     S
C397   C400    1.422   .     S
C397   O426    1.289   .     A
C397   O423    1.289   .     A
C398   C400    1.398   .     A
C398   H420    1.083   .     S
C399   C405    1.422   .     S
C399   C411    1.398   .     A
C399   C412    1.398   .     A
C400   C410    1.398   .     A
C401   Cl413   1.759   .     S
C401   N422    1.371   .     A
C401   C620    1.423   1_545 S
C402   Cl414   1.759   .     S
C402   N421    1.371   .     A
C402   C511    1.423   .     S
C403   N422    1.371   .     A
C403   Cl415   1.759   .     S
C403   C618    1.423   1_545 S
C404   N421    1.371   .     A
C404   Cl416   1.759   .     S
C404   C509    1.423   .     S
C405   O425    1.289   .     A
C405   O424    1.289   .     A
C406   O430    1.282   .     A
C406   C408    1.367   .     S
C406   O427    1.282   .     A
C407   C409    1.367   .     S
C407   O428    1.282   .     A
C407   O429    1.282   .     A
C409   C732    1.166   .     S
C410   H417    1.083   .     S
C411   H418    1.083   .     S
C411   C326    1.370   1_655 S
C412   H419    1.083   .     S
C412   C338    1.370   1_655 S
N421   Zn431   2.024   .     S
N422   Zn432   2.024   .     S
O423   Zn431   2.002   .     S
O424   Zn432   2.002   .     S
O425   Zn431   2.002   .     S
O426   Zn432   2.002   .     S
O427   Zn431   1.950   .     S
O428   Zn432   1.950   .     S
O429   Zn431   1.950   .     S
O430   Zn432   1.950   .     S
C433   C436    1.422   .     S
C433   O462    1.289   .     A
C433   O459    1.289   .     A
C434   C436    1.398   .     A
C434   H456    1.083   .     S
C434   C519    1.370   1_455 S
C435   C441    1.422   .     S
C435   C447    1.398   .     A
C435   C448    1.398   .     A
C436   C446    1.398   .     A
C437   Cl449   1.759   .     S
C437   N458    1.371   .     A
C438   Cl450   1.759   .     S
C438   N457    1.371   .     A
C438   C547    1.423   .     S
C439   N458    1.371   .     A
C439   Cl451   1.759   .     S
C440   N457    1.371   .     A
C440   Cl452   1.759   .     S
C440   C545    1.423   .     S
C441   O461    1.289   .     A
C441   O460    1.289   .     A
C442   O466    1.282   .     A
C442   C444    1.367   .     S
C442   O463    1.282   .     A
C443   C445    1.367   .     S
C443   O464    1.282   .     A
C443   O465    1.282   .     A
C445   C768    1.166   .     S
C446   H453    1.083   .     S
C446   C520    1.370   1_455 S
C447   H454    1.083   .     S
C447   C470    1.370   .     S
C448   H455    1.083   .     S
C448   C482    1.370   .     S
N457   Zn467   2.024   .     S
N458   Zn468   2.024   .     S
O459   Zn467   2.002   .     S
O460   Zn468   2.002   .     S
O461   Zn467   2.002   .     S
O462   Zn468   2.002   .     S
O463   Zn467   1.950   .     S
O464   Zn468   1.950   .     S
O465   Zn467   1.950   .     S
O466   Zn468   1.950   .     S
C469   C472    1.422   .     S
C469   O498    1.289   .     A
C469   O495    1.289   .     A
C470   C472    1.398   .     A
C470   H492    1.083   .     S
C471   C477    1.422   .     S
C471   C483    1.398   .     A
C471   C484    1.398   .     A
C472   C482    1.398   .     A
C473   Cl485   1.759   .     S
C473   N494    1.371   .     A
C474   Cl486   1.759   .     S
C474   N493    1.371   .     A
C474   C583    1.423   .     S
C475   N494    1.371   .     A
C475   Cl487   1.759   .     S
C476   N493    1.371   .     A
C476   Cl488   1.759   .     S
C476   C581    1.423   .     S
C477   O497    1.289   .     A
C477   O496    1.289   .     A
C478   O502    1.282   .     A
C478   C480    1.367   .     S
C478   O499    1.282   .     A
C479   C481    1.367   .     S
C479   O500    1.282   .     A
C479   O501    1.282   .     A
C481   C804    1.166   .     S
C482   H489    1.083   .     S
C483   H490    1.083   .     S
C483   C506    1.370   .     S
C484   H491    1.083   .     S
C484   C518    1.370   .     S
N493   Zn503   2.024   .     S
N494   Zn504   2.024   .     S
O495   Zn503   2.002   .     S
O496   Zn504   2.002   .     S
O497   Zn503   2.002   .     S
O498   Zn504   2.002   .     S
O499   Zn503   1.950   .     S
O500   Zn504   1.950   .     S
O501   Zn503   1.950   .     S
O502   Zn504   1.950   .     S
C505   C508    1.422   .     S
C505   O534    1.289   .     A
C505   O531    1.289   .     A
C506   C508    1.398   .     A
C506   H528    1.083   .     S
C507   C513    1.422   .     S
C507   C519    1.398   .     A
C507   C520    1.398   .     A
C508   C518    1.398   .     A
C509   Cl521   1.759   .     S
C509   N530    1.371   .     A
C510   Cl522   1.759   .     S
C510   N529    1.371   .     A
C510   C619    1.423   .     S
C511   N530    1.371   .     A
C511   Cl523   1.759   .     S
C512   N529    1.371   .     A
C512   Cl524   1.759   .     S
C512   C617    1.423   .     S
C513   O533    1.289   .     A
C513   O532    1.289   .     A
C514   O538    1.282   .     A
C514   C516    1.367   .     S
C514   O535    1.282   .     A
C515   C517    1.367   .     S
C515   O536    1.282   .     A
C515   O537    1.282   .     A
C517   C840    1.166   .     S
C518   H525    1.083   .     S
C519   H526    1.083   .     S
C519   C434    1.370   1_655 S
C520   H527    1.083   .     S
C520   C446    1.370   1_655 S
N529   Zn539   2.024   .     S
N530   Zn540   2.024   .     S
O531   Zn539   2.002   .     S
O532   Zn540   2.002   .     S
O533   Zn539   2.002   .     S
O534   Zn540   2.002   .     S
O535   Zn539   1.950   .     S
O536   Zn540   1.950   .     S
O537   Zn539   1.950   .     S
O538   Zn540   1.950   .     S
C541   C544    1.422   .     S
C541   O570    1.289   .     A
C541   O567    1.289   .     A
C542   C544    1.398   .     A
C542   H564    1.083   .     S
C542   C627    1.370   1_455 S
C543   C549    1.422   .     S
C543   C555    1.398   .     A
C543   C556    1.398   .     A
C544   C554    1.398   .     A
C545   Cl557   1.759   .     S
C545   N566    1.371   .     A
C546   Cl558   1.759   .     S
C546   N565    1.371   .     A
C546   C331    1.423   1_565 S
C547   N566    1.371   .     A
C547   Cl559   1.759   .     S
C548   N565    1.371   .     A
C548   Cl560   1.759   .     S
C548   C329    1.423   1_565 S
C549   O569    1.289   .     A
C549   O568    1.289   .     A
C550   O574    1.282   .     A
C550   C552    1.367   .     S
C550   O571    1.282   .     A
C551   C553    1.367   .     S
C551   O572    1.282   .     A
C551   O573    1.282   .     A
C553   C876    1.166   .     S
C554   H561    1.083   .     S
C554   C628    1.370   1_455 S
C555   H562    1.083   .     S
C555   C578    1.370   .     S
C556   H563    1.083   .     S
C556   C590    1.370   .     S
N565   Zn575   2.024   .     S
N566   Zn576   2.024   .     S
O567   Zn575   2.002   .     S
O568   Zn576   2.002   .     S
O569   Zn575   2.002   .     S
O570   Zn576   2.002   .     S
O571   Zn575   1.950   .     S
O572   Zn576   1.950   .     S
O573   Zn575   1.950   .     S
O574   Zn576   1.950   .     S
C577   C580    1.422   .     S
C577   O606    1.289   .     A
C577   O603    1.289   .     A
C578   C580    1.398   .     A
C578   H600    1.083   .     S
C579   C585    1.422   .     S
C579   C591    1.398   .     A
C579   C592    1.398   .     A
C580   C590    1.398   .     A
C581   Cl593   1.759   .     S
C581   N602    1.371   .     A
C582   Cl594   1.759   .     S
C582   N601    1.371   .     A
C582   C367    1.423   1_565 S
C583   N602    1.371   .     A
C583   Cl595   1.759   .     S
C584   N601    1.371   .     A
C584   Cl596   1.759   .     S
C584   C365    1.423   1_565 S
C585   O605    1.289   .     A
C585   O604    1.289   .     A
C586   O610    1.282   .     A
C586   C588    1.367   .     S
C586   O607    1.282   .     A
C587   C589    1.367   .     S
C587   O608    1.282   .     A
C587   O609    1.282   .     A
C589   C912    1.166   .     S
C590   H597    1.083   .     S
C591   H598    1.083   .     S
C591   C614    1.370   .     S
C592   H599    1.083   .     S
C592   C626    1.370   .     S
N601   Zn611   2.024   .     S
N602   Zn612   2.024   .     S
O603   Zn611   2.002   .     S
O604   Zn612   2.002   .     S
O605   Zn611   2.002   .     S
O606   Zn612   2.002   .     S
O607   Zn611   1.950   .     S
O608   Zn612   1.950   .     S
O609   Zn611   1.950   .     S
O610   Zn612   1.950   .     S
C613   C616    1.422   .     S
C613   O642    1.289   .     A
C613   O639    1.289   .     A
C614   C616    1.398   .     A
C614   H636    1.083   .     S
C615   C621    1.422   .     S
C615   C627    1.398   .     A
C615   C628    1.398   .     A
C616   C626    1.398   .     A
C617   Cl629   1.759   .     S
C617   N638    1.371   .     A
C618   Cl630   1.759   .     S
C618   N637    1.371   .     A
C618   C403    1.423   1_565 S
C619   N638    1.371   .     A
C619   Cl631   1.759   .     S
C620   N637    1.371   .     A
C620   Cl632   1.759   .     S
C620   C401    1.423   1_565 S
C621   O641    1.289   .     A
C621   O640    1.289   .     A
C622   O646    1.282   .     A
C622   C624    1.367   .     S
C622   O643    1.282   .     A
C623   C625    1.367   .     S
C623   O644    1.282   .     A
C623   O645    1.282   .     A
C625   C948    1.166   .     S
C626   H633    1.083   .     S
C627   H634    1.083   .     S
C627   C542    1.370   1_655 S
C628   H635    1.083   .     S
C628   C554    1.370   1_655 S
N637   Zn647   2.024   .     S
N638   Zn648   2.024   .     S
O639   Zn647   2.002   .     S
O640   Zn648   2.002   .     S
O641   Zn647   2.002   .     S
O642   Zn648   2.002   .     S
O643   Zn647   1.950   .     S
O644   Zn648   1.950   .     S
O645   Zn647   1.950   .     S
O646   Zn648   1.950   .     S
C649   C652    1.422   .     S
C649   O678    1.289   .     A
C649   O675    1.289   .     A
C650   C652    1.398   .     A
C650   H672    1.083   .     S
C650   C735    1.370   1_455 S
C651   C657    1.422   .     S
C651   C663    1.398   .     A
C651   C664    1.398   .     A
C652   C662    1.398   .     A
C653   Cl665   1.759   .     S
C653   N674    1.371   .     A
C653   C872    1.423   1_545 S
C654   Cl666   1.759   .     S
C654   N673    1.371   .     A
C654   C763    1.423   .     S
C655   N674    1.371   .     A
C655   Cl667   1.759   .     S
C655   C870    1.423   1_545 S
C656   N673    1.371   .     A
C656   Cl668   1.759   .     S
C656   C761    1.423   .     S
C657   O677    1.289   .     A
C657   O676    1.289   .     A
C658   O682    1.282   .     A
C658   C660    1.367   .     S
C658   O679    1.282   .     A
C659   C661    1.367   .     S
C659   O680    1.282   .     A
C659   O681    1.282   .     A
C661   C12     1.166   1_556 S
C662   H669    1.083   .     S
C662   C736    1.370   1_455 S
C663   H670    1.083   .     S
C663   C686    1.370   .     S
C664   H671    1.083   .     S
C664   C698    1.370   .     S
N673   Zn683   2.024   .     S
N674   Zn684   2.024   .     S
O675   Zn683   2.002   .     S
O676   Zn684   2.002   .     S
O677   Zn683   2.002   .     S
O678   Zn684   2.002   .     S
O679   Zn683   1.950   .     S
O680   Zn684   1.950   .     S
O681   Zn683   1.950   .     S
O682   Zn684   1.950   .     S
C685   C688    1.422   .     S
C685   O714    1.289   .     A
C685   O711    1.289   .     A
C686   C688    1.398   .     A
C686   H708    1.083   .     S
C687   C693    1.422   .     S
C687   C699    1.398   .     A
C687   C700    1.398   .     A
C688   C698    1.398   .     A
C689   Cl701   1.759   .     S
C689   N710    1.371   .     A
C689   C908    1.423   1_545 S
C690   Cl702   1.759   .     S
C690   N709    1.371   .     A
C690   C799    1.423   .     S
C691   N710    1.371   .     A
C691   Cl703   1.759   .     S
C691   C906    1.423   1_545 S
C692   N709    1.371   .     A
C692   Cl704   1.759   .     S
C692   C797    1.423   .     S
C693   O713    1.289   .     A
C693   O712    1.289   .     A
C694   O718    1.282   .     A
C694   C696    1.367   .     S
C694   O715    1.282   .     A
C695   C697    1.367   .     S
C695   O716    1.282   .     A
C695   O717    1.282   .     A
C697   C48     1.166   1_556 S
C698   H705    1.083   .     S
C699   H706    1.083   .     S
C699   C722    1.370   .     S
C700   H707    1.083   .     S
C700   C734    1.370   .     S
N709   Zn719   2.024   .     S
N710   Zn720   2.024   .     S
O711   Zn719   2.002   .     S
O712   Zn720   2.002   .     S
O713   Zn719   2.002   .     S
O714   Zn720   2.002   .     S
O715   Zn719   1.950   .     S
O716   Zn720   1.950   .     S
O717   Zn719   1.950   .     S
O718   Zn720   1.950   .     S
C721   C724    1.422   .     S
C721   O750    1.289   .     A
C721   O747    1.289   .     A
C722   C724    1.398   .     A
C722   H744    1.083   .     S
C723   C729    1.422   .     S
C723   C735    1.398   .     A
C723   C736    1.398   .     A
C724   C734    1.398   .     A
C725   Cl737   1.759   .     S
C725   N746    1.371   .     A
C725   C944    1.423   1_545 S
C726   Cl738   1.759   .     S
C726   N745    1.371   .     A
C726   C835    1.423   .     S
C727   N746    1.371   .     A
C727   Cl739   1.759   .     S
C727   C942    1.423   1_545 S
C728   N745    1.371   .     A
C728   Cl740   1.759   .     S
C728   C833    1.423   .     S
C729   O749    1.289   .     A
C729   O748    1.289   .     A
C730   O754    1.282   .     A
C730   C732    1.367   .     S
C730   O751    1.282   .     A
C731   C733    1.367   .     S
C731   O752    1.282   .     A
C731   O753    1.282   .     A
C733   C84     1.166   1_556 S
C734   H741    1.083   .     S
C735   H742    1.083   .     S
C735   C650    1.370   1_655 S
C736   H743    1.083   .     S
C736   C662    1.370   1_655 S
N745   Zn755   2.024   .     S
N746   Zn756   2.024   .     S
O747   Zn755   2.002   .     S
O748   Zn756   2.002   .     S
O749   Zn755   2.002   .     S
O750   Zn756   2.002   .     S
O751   Zn755   1.950   .     S
O752   Zn756   1.950   .     S
O753   Zn755   1.950   .     S
O754   Zn756   1.950   .     S
C757   C760    1.422   .     S
C757   O786    1.289   .     A
C757   O783    1.289   .     A
C758   C760    1.398   .     A
C758   H780    1.083   .     S
C758   C843    1.370   1_455 S
C759   C765    1.422   .     S
C759   C771    1.398   .     A
C759   C772    1.398   .     A
C760   C770    1.398   .     A
C761   Cl773   1.759   .     S
C761   N782    1.371   .     A
C762   Cl774   1.759   .     S
C762   N781    1.371   .     A
C762   C871    1.423   .     S
C763   N782    1.371   .     A
C763   Cl775   1.759   .     S
C764   N781    1.371   .     A
C764   Cl776   1.759   .     S
C764   C869    1.423   .     S
C765   O785    1.289   .     A
C765   O784    1.289   .     A
C766   O790    1.282   .     A
C766   C768    1.367   .     S
C766   O787    1.282   .     A
C767   C769    1.367   .     S
C767   O788    1.282   .     A
C767   O789    1.282   .     A
C769   C120    1.166   1_556 S
C770   H777    1.083   .     S
C770   C844    1.370   1_455 S
C771   H778    1.083   .     S
C771   C794    1.370   .     S
C772   H779    1.083   .     S
C772   C806    1.370   .     S
N781   Zn791   2.024   .     S
N782   Zn792   2.024   .     S
O783   Zn791   2.002   .     S
O784   Zn792   2.002   .     S
O785   Zn791   2.002   .     S
O786   Zn792   2.002   .     S
O787   Zn791   1.950   .     S
O788   Zn792   1.950   .     S
O789   Zn791   1.950   .     S
O790   Zn792   1.950   .     S
C793   C796    1.422   .     S
C793   O822    1.289   .     A
C793   O819    1.289   .     A
C794   C796    1.398   .     A
C794   H816    1.083   .     S
C795   C801    1.422   .     S
C795   C807    1.398   .     A
C795   C808    1.398   .     A
C796   C806    1.398   .     A
C797   Cl809   1.759   .     S
C797   N818    1.371   .     A
C798   Cl810   1.759   .     S
C798   N817    1.371   .     A
C798   C907    1.423   .     S
C799   N818    1.371   .     A
C799   Cl811   1.759   .     S
C800   N817    1.371   .     A
C800   Cl812   1.759   .     S
C800   C905    1.423   .     S
C801   O821    1.289   .     A
C801   O820    1.289   .     A
C802   O826    1.282   .     A
C802   C804    1.367   .     S
C802   O823    1.282   .     A
C803   C805    1.367   .     S
C803   O824    1.282   .     A
C803   O825    1.282   .     A
C805   C156    1.166   1_556 S
C806   H813    1.083   .     S
C807   H814    1.083   .     S
C807   C830    1.370   .     S
C808   H815    1.083   .     S
C808   C842    1.370   .     S
N817   Zn827   2.024   .     S
N818   Zn828   2.024   .     S
O819   Zn827   2.002   .     S
O820   Zn828   2.002   .     S
O821   Zn827   2.002   .     S
O822   Zn828   2.002   .     S
O823   Zn827   1.950   .     S
O824   Zn828   1.950   .     S
O825   Zn827   1.950   .     S
O826   Zn828   1.950   .     S
C829   C832    1.422   .     S
C829   O858    1.289   .     A
C829   O855    1.289   .     A
C830   C832    1.398   .     A
C830   H852    1.083   .     S
C831   C837    1.422   .     S
C831   C843    1.398   .     A
C831   C844    1.398   .     A
C832   C842    1.398   .     A
C833   Cl845   1.759   .     S
C833   N854    1.371   .     A
C834   Cl846   1.759   .     S
C834   N853    1.371   .     A
C834   C943    1.423   .     S
C835   N854    1.371   .     A
C835   Cl847   1.759   .     S
C836   N853    1.371   .     A
C836   Cl848   1.759   .     S
C836   C941    1.423   .     S
C837   O857    1.289   .     A
C837   O856    1.289   .     A
C838   O862    1.282   .     A
C838   C840    1.367   .     S
C838   O859    1.282   .     A
C839   C841    1.367   .     S
C839   O860    1.282   .     A
C839   O861    1.282   .     A
C841   C192    1.166   1_556 S
C842   H849    1.083   .     S
C843   H850    1.083   .     S
C843   C758    1.370   1_655 S
C844   H851    1.083   .     S
C844   C770    1.370   1_655 S
N853   Zn863   2.024   .     S
N854   Zn864   2.024   .     S
O855   Zn863   2.002   .     S
O856   Zn864   2.002   .     S
O857   Zn863   2.002   .     S
O858   Zn864   2.002   .     S
O859   Zn863   1.950   .     S
O860   Zn864   1.950   .     S
O861   Zn863   1.950   .     S
O862   Zn864   1.950   .     S
C865   C868    1.422   .     S
C865   O894    1.289   .     A
C865   O891    1.289   .     A
C866   C868    1.398   .     A
C866   H888    1.083   .     S
C866   C951    1.370   1_455 S
C867   C873    1.422   .     S
C867   C879    1.398   .     A
C867   C880    1.398   .     A
C868   C878    1.398   .     A
C869   Cl881   1.759   .     S
C869   N890    1.371   .     A
C870   Cl882   1.759   .     S
C870   N889    1.371   .     A
C870   C655    1.423   1_565 S
C871   N890    1.371   .     A
C871   Cl883   1.759   .     S
C872   N889    1.371   .     A
C872   Cl884   1.759   .     S
C872   C653    1.423   1_565 S
C873   O893    1.289   .     A
C873   O892    1.289   .     A
C874   O898    1.282   .     A
C874   C876    1.367   .     S
C874   O895    1.282   .     A
C875   C877    1.367   .     S
C875   O896    1.282   .     A
C875   O897    1.282   .     A
C877   C228    1.166   1_556 S
C878   H885    1.083   .     S
C878   C952    1.370   1_455 S
C879   H886    1.083   .     S
C879   C902    1.370   .     S
C880   H887    1.083   .     S
C880   C914    1.370   .     S
N889   Zn899   2.024   .     S
N890   Zn900   2.024   .     S
O891   Zn899   2.002   .     S
O892   Zn900   2.002   .     S
O893   Zn899   2.002   .     S
O894   Zn900   2.002   .     S
O895   Zn899   1.950   .     S
O896   Zn900   1.950   .     S
O897   Zn899   1.950   .     S
O898   Zn900   1.950   .     S
C901   C904    1.422   .     S
C901   O930    1.289   .     A
C901   O927    1.289   .     A
C902   C904    1.398   .     A
C902   H924    1.083   .     S
C903   C909    1.422   .     S
C903   C915    1.398   .     A
C903   C916    1.398   .     A
C904   C914    1.398   .     A
C905   Cl917   1.759   .     S
C905   N926    1.371   .     A
C906   Cl918   1.759   .     S
C906   N925    1.371   .     A
C906   C691    1.423   1_565 S
C907   N926    1.371   .     A
C907   Cl919   1.759   .     S
C908   N925    1.371   .     A
C908   Cl920   1.759   .     S
C908   C689    1.423   1_565 S
C909   O929    1.289   .     A
C909   O928    1.289   .     A
C910   O934    1.282   .     A
C910   C912    1.367   .     S
C910   O931    1.282   .     A
C911   C913    1.367   .     S
C911   O932    1.282   .     A
C911   O933    1.282   .     A
C913   C264    1.166   1_556 S
C914   H921    1.083   .     S
C915   H922    1.083   .     S
C915   C938    1.370   .     S
C916   H923    1.083   .     S
C916   C950    1.370   .     S
N925   Zn935   2.024   .     S
N926   Zn936   2.024   .     S
O927   Zn935   2.002   .     S
O928   Zn936   2.002   .     S
O929   Zn935   2.002   .     S
O930   Zn936   2.002   .     S
O931   Zn935   1.950   .     S
O932   Zn936   1.950   .     S
O933   Zn935   1.950   .     S
O934   Zn936   1.950   .     S
C937   C940    1.422   .     S
C937   O966    1.289   .     A
C937   O963    1.289   .     A
C938   C940    1.398   .     A
C938   H960    1.083   .     S
C939   C945    1.422   .     S
C939   C951    1.398   .     A
C939   C952    1.398   .     A
C940   C950    1.398   .     A
C941   Cl953   1.759   .     S
C941   N962    1.371   .     A
C942   Cl954   1.759   .     S
C942   N961    1.371   .     A
C942   C727    1.423   1_565 S
C943   N962    1.371   .     A
C943   Cl955   1.759   .     S
C944   N961    1.371   .     A
C944   Cl956   1.759   .     S
C944   C725    1.423   1_565 S
C945   O965    1.289   .     A
C945   O964    1.289   .     A
C946   O970    1.282   .     A
C946   C948    1.367   .     S
C946   O967    1.282   .     A
C947   C949    1.367   .     S
C947   O968    1.282   .     A
C947   O969    1.282   .     A
C949   C300    1.166   1_556 S
C950   H957    1.083   .     S
C951   H958    1.083   .     S
C951   C866    1.370   1_655 S
C952   H959    1.083   .     S
C952   C878    1.370   1_655 S
N961   Zn971   2.024   .     S
N962   Zn972   2.024   .     S
O963   Zn971   2.002   .     S
O964   Zn972   2.002   .     S
O965   Zn971   2.002   .     S
O966   Zn972   2.002   .     S
O967   Zn971   1.950   .     S
O968   Zn972   1.950   .     S
O969   Zn971   1.950   .     S
O970   Zn972   1.950   .     S
