data_str_m3_o1_o2_pcu_sym.125
_audit_creation_date              2020-01-03
_audit_creation_method            'Materials Studio'
_symmetry_space_group_name_H-M    'P1'
_symmetry_Int_Tables_number       1
_symmetry_cell_setting            triclinic
loop_
_symmetry_equiv_pos_as_xyz
  x,y,z
_cell_length_a                    32.2542
_cell_length_b                    29.8179
_cell_length_c                    29.7265
_cell_angle_alpha                 92.0711
_cell_angle_beta                  93.4645
_cell_angle_gamma                 93.2306
loop_
_atom_site_label
_atom_site_type_symbol
_atom_site_fract_x
_atom_site_fract_y
_atom_site_fract_z
_atom_site_U_iso_or_equiv
_atom_site_adp_type
_atom_site_occupancy
C1     C     0.08647   0.16536   0.25217   0.00000  Uiso   1.00
C2     C     0.24617   0.16771   0.24501   0.00000  Uiso   1.00
C3     C     0.16600   0.16604   0.16397   0.00000  Uiso   1.00
C4     C     0.15997   0.16695   0.33503   0.00000  Uiso   1.00
C5     C     0.18929   0.02693   0.28287   0.00000  Uiso   1.00
C6     C     0.14608   0.30686   0.21588   0.00000  Uiso   1.00
C7     C     0.14764   0.02130   0.21500   0.00000  Uiso   1.00
C8     C     0.18880   0.31224   0.28365   0.00000  Uiso   1.00
C9     C     0.01687   0.12478   0.23562   0.00000  Uiso   1.00
C10    C     0.31513   0.20839   0.25185   0.00000  Uiso   1.00
C11    C     0.30798   0.12930   0.22434   0.00000  Uiso   1.00
C12    C     0.02288   0.20287   0.26629   0.00000  Uiso   1.00
C13    C     0.19217   0.17587   0.04453   0.00000  Uiso   1.00
C14    C     0.13898   0.12259   0.44757   0.00000  Uiso   1.00
C15    C     0.15106   0.20324   0.45552   0.00000  Uiso   1.00
C16    C     0.12060   0.14629   0.04638   0.00000  Uiso   1.00
C17    C     0.19594   0.17951   0.09132   0.00000  Uiso   1.00
C18    C     0.13520   0.12529   0.40094   0.00000  Uiso   1.00
C19    C     0.14695   0.20684   0.40909   0.00000  Uiso   1.00
C20    C     0.12323   0.15028   0.09310   0.00000  Uiso   1.00
C21    C     0.16185   0.16467   0.11558   0.00000  Uiso   1.00
C22    C     0.14636   0.16688   0.38148   0.00000  Uiso   1.00
C23    C     0.15484   0.15897   0.02249   0.00000  Uiso   1.00
C24    C     0.14967   0.16121   0.47424   0.00000  Uiso   1.00
C25    C     0.29019   0.16974   0.23690   0.00000  Uiso   1.00
C26    C     0.04137   0.16285   0.25409   0.00000  Uiso   1.00
H27    H     0.21769   0.18754   0.02499   0.00000  Uiso   1.00
H28    H     0.13311   0.09068   0.46310   0.00000  Uiso   1.00
H29    H     0.15404   0.23335   0.47739   0.00000  Uiso   1.00
H30    H     0.09115   0.13580   0.02844   0.00000  Uiso   1.00
N31    N     0.16667   0.28573   0.25000   0.00000  Uiso   1.00
N32    N     0.16667   0.04760   0.25000   0.00000  Uiso   1.00
O33    O     0.10559   0.20487   0.25000   0.00000  Uiso   1.00
O34    O     0.22774   0.12846   0.25001   0.00000  Uiso   1.00
O35    O     0.22774   0.20487   0.25001   0.00000  Uiso   1.00
O36    O     0.10559   0.12846   0.25000   0.00000  Uiso   1.00
O37    O     0.16666   0.20489   0.18453   0.00000  Uiso   1.00
O38    O     0.16667   0.12845   0.31547   0.00000  Uiso   1.00
O39    O     0.16667   0.20489   0.31547   0.00000  Uiso   1.00
O40    O     0.16666   0.12845   0.18453   0.00000  Uiso   1.00
Zn41   Zn    0.16667   0.21771   0.25000   0.00000  Uiso   1.00
Zn42   Zn    0.16667   0.11563   0.25000   0.00000  Uiso   1.00
C43    C     0.21979   0.05435   0.31311   0.00000  Uiso   1.00
O44    O     0.21040   0.06768   0.35025   0.00000  Uiso   1.00
O45    O     0.26070   0.06100   0.30083   0.00000  Uiso   1.00
H46    H     0.27908   0.07926   0.32448   0.00000  Uiso   1.00
C47    C     0.12078   0.28027   0.18022   0.00000  Uiso   1.00
O48    O     0.13420   0.27467   0.14295   0.00000  Uiso   1.00
O49    O     0.08059   0.26400   0.18833   0.00000  Uiso   1.00
H50    H     0.06620   0.24662   0.16129   0.00000  Uiso   1.00
C51    C     0.13217   0.04241   0.17397   0.00000  Uiso   1.00
O52    O     0.10422   0.06788   0.17571   0.00000  Uiso   1.00
O53    O     0.14998   0.03357   0.13309   0.00000  Uiso   1.00
H54    H     0.13683   0.05028   0.10731   0.00000  Uiso   1.00
C55    C     0.21332   0.29207   0.32124   0.00000  Uiso   1.00
O56    O     0.23223   0.25866   0.31469   0.00000  Uiso   1.00
O57    O     0.21702   0.31300   0.36422   0.00000  Uiso   1.00
H58    H     0.23598   0.29720   0.38620   0.00000  Uiso   1.00
C59    C     0.23505   0.20197   0.11445   0.00000  Uiso   1.00
H60    H     0.24840   0.18041   0.14041   0.00000  Uiso   1.00
H61    H     0.25920   0.20933   0.09022   0.00000  Uiso   1.00
H62    H     0.22757   0.23426   0.13096   0.00000  Uiso   1.00
C63    C     0.11530   0.08477   0.37426   0.00000  Uiso   1.00
H64    H     0.10422   0.09301   0.33972   0.00000  Uiso   1.00
H65    H     0.13703   0.05734   0.37308   0.00000  Uiso   1.00
H66    H     0.08721   0.07209   0.39081   0.00000  Uiso   1.00
C67    C     0.13837   0.25293   0.39286   0.00000  Uiso   1.00
H68    H     0.13220   0.25504   0.35616   0.00000  Uiso   1.00
H69    H     0.10992   0.26411   0.40815   0.00000  Uiso   1.00
H70    H     0.16412   0.27704   0.40518   0.00000  Uiso   1.00
C71    C     0.08342   0.14296   0.11672   0.00000  Uiso   1.00
H72    H     0.07014   0.10814   0.10927   0.00000  Uiso   1.00
H73    H     0.08753   0.14904   0.15372   0.00000  Uiso   1.00
H74    H     0.06047   0.16660   0.10393   0.00000  Uiso   1.00
C75    C     0.03367   0.07952   0.23130   0.00000  Uiso   1.00
O76    O     0.02796   0.05725   0.19587   0.00000  Uiso   1.00
O77    O     0.05399   0.06139   0.26868   0.00000  Uiso   1.00
H78    H     0.06460   0.03082   0.26134   0.00000  Uiso   1.00
C79    C     0.29952   0.25443   0.24868   0.00000  Uiso   1.00
O80    O     0.30736   0.28283   0.27917   0.00000  Uiso   1.00
O81    O     0.27610   0.26527   0.20986   0.00000  Uiso   1.00
H82    H     0.26633   0.29696   0.21170   0.00000  Uiso   1.00
C83    C     0.28204   0.09229   0.19894   0.00000  Uiso   1.00
O84    O     0.28104   0.05398   0.21231   0.00000  Uiso   1.00
O85    O     0.25745   0.10202   0.16065   0.00000  Uiso   1.00
H86    H     0.24047   0.07468   0.14700   0.00000  Uiso   1.00
C87    C     0.04549   0.23667   0.29802   0.00000  Uiso   1.00
O88    O     0.05279   0.22710   0.33722   0.00000  Uiso   1.00
O89    O     0.05914   0.27853   0.28307   0.00000  Uiso   1.00
H90    H     0.07498   0.29791   0.30785   0.00000  Uiso   1.00
C91    C     0.41981   0.16536   0.25217   0.00000  Uiso   1.00
C92    C     0.57950   0.16771   0.24501   0.00000  Uiso   1.00
C93    C     0.49933   0.16604   0.16397   0.00000  Uiso   1.00
C94    C     0.49330   0.16695   0.33503   0.00000  Uiso   1.00
C95    C     0.52262   0.02693   0.28287   0.00000  Uiso   1.00
C96    C     0.47941   0.30686   0.21588   0.00000  Uiso   1.00
C97    C     0.48097   0.02130   0.21500   0.00000  Uiso   1.00
C98    C     0.52213   0.31224   0.28365   0.00000  Uiso   1.00
C99    C     0.35020   0.12478   0.23562   0.00000  Uiso   1.00
C100   C     0.64846   0.20839   0.25185   0.00000  Uiso   1.00
C101   C     0.64131   0.12930   0.22434   0.00000  Uiso   1.00
C102   C     0.35622   0.20287   0.26629   0.00000  Uiso   1.00
C103   C     0.52550   0.17587   0.04453   0.00000  Uiso   1.00
C104   C     0.47231   0.12259   0.44757   0.00000  Uiso   1.00
C105   C     0.48439   0.20324   0.45552   0.00000  Uiso   1.00
C106   C     0.45393   0.14629   0.04638   0.00000  Uiso   1.00
C107   C     0.52928   0.17951   0.09132   0.00000  Uiso   1.00
C108   C     0.46853   0.12529   0.40094   0.00000  Uiso   1.00
C109   C     0.48028   0.20684   0.40909   0.00000  Uiso   1.00
C110   C     0.45657   0.15028   0.09310   0.00000  Uiso   1.00
C111   C     0.49518   0.16467   0.11558   0.00000  Uiso   1.00
C112   C     0.47969   0.16688   0.38148   0.00000  Uiso   1.00
C113   C     0.48817   0.15897   0.02249   0.00000  Uiso   1.00
C114   C     0.48300   0.16121   0.47424   0.00000  Uiso   1.00
C115   C     0.62352   0.16974   0.23690   0.00000  Uiso   1.00
C116   C     0.37471   0.16285   0.25409   0.00000  Uiso   1.00
H117   H     0.55102   0.18754   0.02499   0.00000  Uiso   1.00
H118   H     0.46644   0.09068   0.46310   0.00000  Uiso   1.00
H119   H     0.48737   0.23335   0.47739   0.00000  Uiso   1.00
H120   H     0.42449   0.13580   0.02844   0.00000  Uiso   1.00
N121   N     0.50000   0.28573   0.25000   0.00000  Uiso   1.00
N122   N     0.50000   0.04760   0.25000   0.00000  Uiso   1.00
O123   O     0.43892   0.20487   0.25000   0.00000  Uiso   1.00
O124   O     0.56108   0.12846   0.25001   0.00000  Uiso   1.00
O125   O     0.56108   0.20487   0.25001   0.00000  Uiso   1.00
O126   O     0.43892   0.12846   0.25000   0.00000  Uiso   1.00
O127   O     0.50000   0.20489   0.18453   0.00000  Uiso   1.00
O128   O     0.50000   0.12845   0.31547   0.00000  Uiso   1.00
O129   O     0.50000   0.20489   0.31547   0.00000  Uiso   1.00
O130   O     0.50000   0.12845   0.18453   0.00000  Uiso   1.00
Zn131  Zn    0.50000   0.21771   0.25000   0.00000  Uiso   1.00
Zn132  Zn    0.50000   0.11563   0.25000   0.00000  Uiso   1.00
C133   C     0.55312   0.05435   0.31311   0.00000  Uiso   1.00
O134   O     0.54373   0.06768   0.35025   0.00000  Uiso   1.00
O135   O     0.59403   0.06100   0.30083   0.00000  Uiso   1.00
H136   H     0.61241   0.07926   0.32448   0.00000  Uiso   1.00
C137   C     0.45412   0.28027   0.18022   0.00000  Uiso   1.00
O138   O     0.46754   0.27467   0.14295   0.00000  Uiso   1.00
O139   O     0.41393   0.26400   0.18833   0.00000  Uiso   1.00
H140   H     0.39953   0.24662   0.16129   0.00000  Uiso   1.00
C141   C     0.46550   0.04241   0.17397   0.00000  Uiso   1.00
O142   O     0.43755   0.06788   0.17571   0.00000  Uiso   1.00
O143   O     0.48331   0.03357   0.13309   0.00000  Uiso   1.00
H144   H     0.47016   0.05028   0.10731   0.00000  Uiso   1.00
C145   C     0.54665   0.29207   0.32124   0.00000  Uiso   1.00
O146   O     0.56556   0.25866   0.31469   0.00000  Uiso   1.00
O147   O     0.55035   0.31300   0.36422   0.00000  Uiso   1.00
H148   H     0.56932   0.29720   0.38620   0.00000  Uiso   1.00
C149   C     0.56838   0.20197   0.11445   0.00000  Uiso   1.00
H150   H     0.58173   0.18041   0.14041   0.00000  Uiso   1.00
H151   H     0.59254   0.20933   0.09022   0.00000  Uiso   1.00
H152   H     0.56091   0.23426   0.13096   0.00000  Uiso   1.00
C153   C     0.44863   0.08477   0.37426   0.00000  Uiso   1.00
H154   H     0.43756   0.09301   0.33972   0.00000  Uiso   1.00
H155   H     0.47037   0.05734   0.37308   0.00000  Uiso   1.00
H156   H     0.42054   0.07209   0.39081   0.00000  Uiso   1.00
C157   C     0.47171   0.25293   0.39286   0.00000  Uiso   1.00
H158   H     0.46553   0.25504   0.35616   0.00000  Uiso   1.00
H159   H     0.44325   0.26411   0.40815   0.00000  Uiso   1.00
H160   H     0.49745   0.27704   0.40518   0.00000  Uiso   1.00
C161   C     0.41675   0.14296   0.11672   0.00000  Uiso   1.00
H162   H     0.40347   0.10814   0.10927   0.00000  Uiso   1.00
H163   H     0.42086   0.14904   0.15372   0.00000  Uiso   1.00
H164   H     0.39380   0.16660   0.10393   0.00000  Uiso   1.00
C165   C     0.36700   0.07952   0.23130   0.00000  Uiso   1.00
O166   O     0.36130   0.05725   0.19587   0.00000  Uiso   1.00
O167   O     0.38732   0.06139   0.26868   0.00000  Uiso   1.00
H168   H     0.39794   0.03082   0.26134   0.00000  Uiso   1.00
C169   C     0.63285   0.25443   0.24868   0.00000  Uiso   1.00
O170   O     0.64069   0.28283   0.27917   0.00000  Uiso   1.00
O171   O     0.60943   0.26527   0.20986   0.00000  Uiso   1.00
H172   H     0.59966   0.29696   0.21170   0.00000  Uiso   1.00
C173   C     0.61537   0.09229   0.19894   0.00000  Uiso   1.00
O174   O     0.61438   0.05398   0.21231   0.00000  Uiso   1.00
O175   O     0.59078   0.10202   0.16065   0.00000  Uiso   1.00
H176   H     0.57380   0.07468   0.14700   0.00000  Uiso   1.00
C177   C     0.37882   0.23667   0.29802   0.00000  Uiso   1.00
O178   O     0.38612   0.22710   0.33722   0.00000  Uiso   1.00
O179   O     0.39248   0.27853   0.28307   0.00000  Uiso   1.00
H180   H     0.40831   0.29791   0.30785   0.00000  Uiso   1.00
C181   C     0.75314   0.16536   0.25217   0.00000  Uiso   1.00
C182   C     0.91284   0.16771   0.24501   0.00000  Uiso   1.00
C183   C     0.83267   0.16604   0.16397   0.00000  Uiso   1.00
C184   C     0.82663   0.16695   0.33503   0.00000  Uiso   1.00
C185   C     0.85595   0.02693   0.28287   0.00000  Uiso   1.00
C186   C     0.81275   0.30686   0.21588   0.00000  Uiso   1.00
C187   C     0.81431   0.02130   0.21500   0.00000  Uiso   1.00
C188   C     0.85546   0.31224   0.28365   0.00000  Uiso   1.00
C189   C     0.68353   0.12478   0.23562   0.00000  Uiso   1.00
C190   C     0.98180   0.20839   0.25185   0.00000  Uiso   1.00
C191   C     0.97465   0.12930   0.22434   0.00000  Uiso   1.00
C192   C     0.68955   0.20287   0.26629   0.00000  Uiso   1.00
C193   C     0.85883   0.17587   0.04453   0.00000  Uiso   1.00
C194   C     0.80565   0.12259   0.44757   0.00000  Uiso   1.00
C195   C     0.81773   0.20324   0.45552   0.00000  Uiso   1.00
C196   C     0.78726   0.14629   0.04638   0.00000  Uiso   1.00
C197   C     0.86261   0.17951   0.09132   0.00000  Uiso   1.00
C198   C     0.80186   0.12529   0.40094   0.00000  Uiso   1.00
C199   C     0.81361   0.20684   0.40909   0.00000  Uiso   1.00
C200   C     0.78990   0.15028   0.09310   0.00000  Uiso   1.00
C201   C     0.82852   0.16467   0.11558   0.00000  Uiso   1.00
C202   C     0.81303   0.16688   0.38148   0.00000  Uiso   1.00
C203   C     0.82151   0.15897   0.02249   0.00000  Uiso   1.00
C204   C     0.81633   0.16121   0.47424   0.00000  Uiso   1.00
C205   C     0.95686   0.16974   0.23690   0.00000  Uiso   1.00
C206   C     0.70804   0.16285   0.25409   0.00000  Uiso   1.00
H207   H     0.88436   0.18754   0.02499   0.00000  Uiso   1.00
H208   H     0.79978   0.09068   0.46310   0.00000  Uiso   1.00
H209   H     0.82070   0.23335   0.47739   0.00000  Uiso   1.00
H210   H     0.75782   0.13580   0.02844   0.00000  Uiso   1.00
N211   N     0.83333   0.28573   0.25000   0.00000  Uiso   1.00
N212   N     0.83333   0.04760   0.25000   0.00000  Uiso   1.00
O213   O     0.77226   0.20487   0.25000   0.00000  Uiso   1.00
O214   O     0.89441   0.12846   0.25001   0.00000  Uiso   1.00
O215   O     0.89441   0.20487   0.25001   0.00000  Uiso   1.00
O216   O     0.77226   0.12846   0.25000   0.00000  Uiso   1.00
O217   O     0.83333   0.20489   0.18453   0.00000  Uiso   1.00
O218   O     0.83334   0.12845   0.31547   0.00000  Uiso   1.00
O219   O     0.83334   0.20489   0.31547   0.00000  Uiso   1.00
O220   O     0.83333   0.12845   0.18453   0.00000  Uiso   1.00
Zn221  Zn    0.83333   0.21771   0.25000   0.00000  Uiso   1.00
Zn222  Zn    0.83333   0.11563   0.25000   0.00000  Uiso   1.00
C223   C     0.88645   0.05435   0.31311   0.00000  Uiso   1.00
O224   O     0.87707   0.06768   0.35025   0.00000  Uiso   1.00
O225   O     0.92737   0.06100   0.30083   0.00000  Uiso   1.00
H226   H     0.94575   0.07926   0.32448   0.00000  Uiso   1.00
C227   C     0.78745   0.28027   0.18022   0.00000  Uiso   1.00
O228   O     0.80087   0.27467   0.14295   0.00000  Uiso   1.00
O229   O     0.74726   0.26400   0.18833   0.00000  Uiso   1.00
H230   H     0.73286   0.24662   0.16129   0.00000  Uiso   1.00
C231   C     0.79884   0.04241   0.17397   0.00000  Uiso   1.00
O232   O     0.77088   0.06788   0.17571   0.00000  Uiso   1.00
O233   O     0.81664   0.03357   0.13309   0.00000  Uiso   1.00
H234   H     0.80350   0.05028   0.10731   0.00000  Uiso   1.00
C235   C     0.87999   0.29207   0.32124   0.00000  Uiso   1.00
O236   O     0.89890   0.25866   0.31469   0.00000  Uiso   1.00
O237   O     0.88369   0.31300   0.36422   0.00000  Uiso   1.00
H238   H     0.90265   0.29720   0.38620   0.00000  Uiso   1.00
C239   C     0.90171   0.20197   0.11445   0.00000  Uiso   1.00
H240   H     0.91506   0.18041   0.14041   0.00000  Uiso   1.00
H241   H     0.92587   0.20933   0.09022   0.00000  Uiso   1.00
H242   H     0.89424   0.23426   0.13096   0.00000  Uiso   1.00
C243   C     0.78196   0.08477   0.37426   0.00000  Uiso   1.00
H244   H     0.77089   0.09301   0.33972   0.00000  Uiso   1.00
H245   H     0.80370   0.05734   0.37308   0.00000  Uiso   1.00
H246   H     0.75388   0.07209   0.39081   0.00000  Uiso   1.00
C247   C     0.80504   0.25293   0.39286   0.00000  Uiso   1.00
H248   H     0.79886   0.25504   0.35616   0.00000  Uiso   1.00
H249   H     0.77659   0.26411   0.40815   0.00000  Uiso   1.00
H250   H     0.83078   0.27704   0.40518   0.00000  Uiso   1.00
C251   C     0.75008   0.14296   0.11672   0.00000  Uiso   1.00
H252   H     0.73681   0.10814   0.10927   0.00000  Uiso   1.00
H253   H     0.75419   0.14904   0.15372   0.00000  Uiso   1.00
H254   H     0.72714   0.16660   0.10393   0.00000  Uiso   1.00
C255   C     0.70034   0.07952   0.23130   0.00000  Uiso   1.00
O256   O     0.69463   0.05725   0.19587   0.00000  Uiso   1.00
O257   O     0.72066   0.06139   0.26868   0.00000  Uiso   1.00
H258   H     0.73127   0.03082   0.26134   0.00000  Uiso   1.00
C259   C     0.96619   0.25443   0.24868   0.00000  Uiso   1.00
O260   O     0.97402   0.28283   0.27917   0.00000  Uiso   1.00
O261   O     0.94276   0.26527   0.20986   0.00000  Uiso   1.00
H262   H     0.93300   0.29696   0.21170   0.00000  Uiso   1.00
C263   C     0.94871   0.09229   0.19894   0.00000  Uiso   1.00
O264   O     0.94771   0.05398   0.21231   0.00000  Uiso   1.00
O265   O     0.92412   0.10202   0.16065   0.00000  Uiso   1.00
H266   H     0.90714   0.07468   0.14700   0.00000  Uiso   1.00
C267   C     0.71215   0.23667   0.29802   0.00000  Uiso   1.00
O268   O     0.71946   0.22710   0.33722   0.00000  Uiso   1.00
O269   O     0.72581   0.27853   0.28307   0.00000  Uiso   1.00
H270   H     0.74164   0.29791   0.30785   0.00000  Uiso   1.00
C271   C     0.08647   0.49869   0.25217   0.00000  Uiso   1.00
C272   C     0.24617   0.50104   0.24501   0.00000  Uiso   1.00
C273   C     0.16600   0.49938   0.16397   0.00000  Uiso   1.00
C274   C     0.15997   0.50028   0.33503   0.00000  Uiso   1.00
C275   C     0.18929   0.36027   0.28287   0.00000  Uiso   1.00
C276   C     0.14608   0.64019   0.21588   0.00000  Uiso   1.00
C277   C     0.14764   0.35464   0.21500   0.00000  Uiso   1.00
C278   C     0.18880   0.64557   0.28365   0.00000  Uiso   1.00
C279   C     0.01687   0.45811   0.23562   0.00000  Uiso   1.00
C280   C     0.31513   0.54172   0.25185   0.00000  Uiso   1.00
C281   C     0.30798   0.46263   0.22434   0.00000  Uiso   1.00
C282   C     0.02288   0.53620   0.26629   0.00000  Uiso   1.00
C283   C     0.19217   0.50920   0.04453   0.00000  Uiso   1.00
C284   C     0.13898   0.45592   0.44757   0.00000  Uiso   1.00
C285   C     0.15106   0.53657   0.45552   0.00000  Uiso   1.00
C286   C     0.12060   0.47962   0.04638   0.00000  Uiso   1.00
C287   C     0.19594   0.51284   0.09132   0.00000  Uiso   1.00
C288   C     0.13520   0.45862   0.40094   0.00000  Uiso   1.00
C289   C     0.14695   0.54018   0.40909   0.00000  Uiso   1.00
C290   C     0.12323   0.48361   0.09310   0.00000  Uiso   1.00
C291   C     0.16185   0.49800   0.11558   0.00000  Uiso   1.00
C292   C     0.14636   0.50022   0.38148   0.00000  Uiso   1.00
C293   C     0.15484   0.49231   0.02249   0.00000  Uiso   1.00
C294   C     0.14967   0.49454   0.47424   0.00000  Uiso   1.00
C295   C     0.29019   0.50307   0.23690   0.00000  Uiso   1.00
C296   C     0.04137   0.49619   0.25409   0.00000  Uiso   1.00
H297   H     0.21769   0.52087   0.02499   0.00000  Uiso   1.00
H298   H     0.13311   0.42401   0.46310   0.00000  Uiso   1.00
H299   H     0.15404   0.56668   0.47739   0.00000  Uiso   1.00
H300   H     0.09115   0.46914   0.02844   0.00000  Uiso   1.00
N301   N     0.16667   0.61907   0.25000   0.00000  Uiso   1.00
N302   N     0.16667   0.38093   0.25000   0.00000  Uiso   1.00
O303   O     0.10559   0.53821   0.25000   0.00000  Uiso   1.00
O304   O     0.22774   0.46179   0.25001   0.00000  Uiso   1.00
O305   O     0.22774   0.53821   0.25001   0.00000  Uiso   1.00
O306   O     0.10559   0.46179   0.25000   0.00000  Uiso   1.00
O307   O     0.16666   0.53822   0.18453   0.00000  Uiso   1.00
O308   O     0.16667   0.46178   0.31547   0.00000  Uiso   1.00
O309   O     0.16667   0.53822   0.31547   0.00000  Uiso   1.00
O310   O     0.16666   0.46178   0.18453   0.00000  Uiso   1.00
Zn311  Zn    0.16667   0.55104   0.25000   0.00000  Uiso   1.00
Zn312  Zn    0.16667   0.44896   0.25000   0.00000  Uiso   1.00
C313   C     0.21979   0.38769   0.31311   0.00000  Uiso   1.00
O314   O     0.21040   0.40101   0.35025   0.00000  Uiso   1.00
O315   O     0.26070   0.39433   0.30083   0.00000  Uiso   1.00
H316   H     0.27908   0.41259   0.32448   0.00000  Uiso   1.00
C317   C     0.12078   0.61360   0.18022   0.00000  Uiso   1.00
O318   O     0.13420   0.60800   0.14295   0.00000  Uiso   1.00
O319   O     0.08059   0.59733   0.18833   0.00000  Uiso   1.00
H320   H     0.06620   0.57995   0.16129   0.00000  Uiso   1.00
C321   C     0.13217   0.37575   0.17397   0.00000  Uiso   1.00
O322   O     0.10422   0.40122   0.17571   0.00000  Uiso   1.00
O323   O     0.14998   0.36690   0.13309   0.00000  Uiso   1.00
H324   H     0.13683   0.38361   0.10731   0.00000  Uiso   1.00
C325   C     0.21332   0.62541   0.32124   0.00000  Uiso   1.00
O326   O     0.23223   0.59199   0.31469   0.00000  Uiso   1.00
O327   O     0.21702   0.64633   0.36422   0.00000  Uiso   1.00
H328   H     0.23598   0.63053   0.38620   0.00000  Uiso   1.00
C329   C     0.23505   0.53531   0.11445   0.00000  Uiso   1.00
H330   H     0.24840   0.51374   0.14041   0.00000  Uiso   1.00
H331   H     0.25920   0.54267   0.09022   0.00000  Uiso   1.00
H332   H     0.22757   0.56759   0.13096   0.00000  Uiso   1.00
C333   C     0.11530   0.41810   0.37426   0.00000  Uiso   1.00
H334   H     0.10422   0.42635   0.33972   0.00000  Uiso   1.00
H335   H     0.13703   0.39067   0.37308   0.00000  Uiso   1.00
H336   H     0.08721   0.40542   0.39081   0.00000  Uiso   1.00
C337   C     0.13837   0.58626   0.39286   0.00000  Uiso   1.00
H338   H     0.13220   0.58837   0.35616   0.00000  Uiso   1.00
H339   H     0.10992   0.59744   0.40815   0.00000  Uiso   1.00
H340   H     0.16412   0.61037   0.40518   0.00000  Uiso   1.00
C341   C     0.08342   0.47629   0.11672   0.00000  Uiso   1.00
H342   H     0.07014   0.44148   0.10927   0.00000  Uiso   1.00
H343   H     0.08753   0.48237   0.15372   0.00000  Uiso   1.00
H344   H     0.06047   0.49993   0.10393   0.00000  Uiso   1.00
C345   C     0.03367   0.41285   0.23130   0.00000  Uiso   1.00
O346   O     0.02796   0.39058   0.19587   0.00000  Uiso   1.00
O347   O     0.05399   0.39472   0.26868   0.00000  Uiso   1.00
H348   H     0.06460   0.36415   0.26134   0.00000  Uiso   1.00
C349   C     0.29952   0.58776   0.24868   0.00000  Uiso   1.00
O350   O     0.30736   0.61616   0.27917   0.00000  Uiso   1.00
O351   O     0.27610   0.59860   0.20986   0.00000  Uiso   1.00
H352   H     0.26633   0.63029   0.21170   0.00000  Uiso   1.00
C353   C     0.28204   0.42563   0.19894   0.00000  Uiso   1.00
O354   O     0.28104   0.38731   0.21231   0.00000  Uiso   1.00
O355   O     0.25745   0.43535   0.16065   0.00000  Uiso   1.00
H356   H     0.24047   0.40802   0.14700   0.00000  Uiso   1.00
C357   C     0.04549   0.57001   0.29802   0.00000  Uiso   1.00
O358   O     0.05279   0.56044   0.33722   0.00000  Uiso   1.00
O359   O     0.05914   0.61187   0.28307   0.00000  Uiso   1.00
H360   H     0.07498   0.63125   0.30785   0.00000  Uiso   1.00
C361   C     0.41981   0.49869   0.25217   0.00000  Uiso   1.00
C362   C     0.57950   0.50104   0.24501   0.00000  Uiso   1.00
C363   C     0.49933   0.49938   0.16397   0.00000  Uiso   1.00
C364   C     0.49330   0.50028   0.33503   0.00000  Uiso   1.00
C365   C     0.52262   0.36027   0.28287   0.00000  Uiso   1.00
C366   C     0.47941   0.64019   0.21588   0.00000  Uiso   1.00
C367   C     0.48097   0.35464   0.21500   0.00000  Uiso   1.00
C368   C     0.52213   0.64557   0.28365   0.00000  Uiso   1.00
C369   C     0.35020   0.45811   0.23562   0.00000  Uiso   1.00
C370   C     0.64846   0.54172   0.25185   0.00000  Uiso   1.00
C371   C     0.64131   0.46263   0.22434   0.00000  Uiso   1.00
C372   C     0.35622   0.53620   0.26629   0.00000  Uiso   1.00
C373   C     0.52550   0.50920   0.04453   0.00000  Uiso   1.00
C374   C     0.47231   0.45592   0.44757   0.00000  Uiso   1.00
C375   C     0.48439   0.53657   0.45552   0.00000  Uiso   1.00
C376   C     0.45393   0.47962   0.04638   0.00000  Uiso   1.00
C377   C     0.52928   0.51284   0.09132   0.00000  Uiso   1.00
C378   C     0.46853   0.45862   0.40094   0.00000  Uiso   1.00
C379   C     0.48028   0.54018   0.40909   0.00000  Uiso   1.00
C380   C     0.45657   0.48361   0.09310   0.00000  Uiso   1.00
C381   C     0.49518   0.49800   0.11558   0.00000  Uiso   1.00
C382   C     0.47969   0.50022   0.38148   0.00000  Uiso   1.00
C383   C     0.48817   0.49231   0.02249   0.00000  Uiso   1.00
C384   C     0.48300   0.49454   0.47424   0.00000  Uiso   1.00
C385   C     0.62352   0.50307   0.23690   0.00000  Uiso   1.00
C386   C     0.37471   0.49619   0.25409   0.00000  Uiso   1.00
H387   H     0.55102   0.52087   0.02499   0.00000  Uiso   1.00
H388   H     0.46644   0.42401   0.46310   0.00000  Uiso   1.00
H389   H     0.48737   0.56668   0.47739   0.00000  Uiso   1.00
H390   H     0.42449   0.46914   0.02844   0.00000  Uiso   1.00
N391   N     0.50000   0.61907   0.25000   0.00000  Uiso   1.00
N392   N     0.50000   0.38093   0.25000   0.00000  Uiso   1.00
O393   O     0.43892   0.53821   0.25000   0.00000  Uiso   1.00
O394   O     0.56108   0.46179   0.25001   0.00000  Uiso   1.00
O395   O     0.56108   0.53821   0.25001   0.00000  Uiso   1.00
O396   O     0.43892   0.46179   0.25000   0.00000  Uiso   1.00
O397   O     0.50000   0.53822   0.18453   0.00000  Uiso   1.00
O398   O     0.50000   0.46178   0.31547   0.00000  Uiso   1.00
O399   O     0.50000   0.53822   0.31547   0.00000  Uiso   1.00
O400   O     0.50000   0.46178   0.18453   0.00000  Uiso   1.00
Zn401  Zn    0.50000   0.55104   0.25000   0.00000  Uiso   1.00
Zn402  Zn    0.50000   0.44896   0.25000   0.00000  Uiso   1.00
C403   C     0.55312   0.38769   0.31311   0.00000  Uiso   1.00
O404   O     0.54373   0.40101   0.35025   0.00000  Uiso   1.00
O405   O     0.59403   0.39433   0.30083   0.00000  Uiso   1.00
H406   H     0.61241   0.41259   0.32448   0.00000  Uiso   1.00
C407   C     0.45412   0.61360   0.18022   0.00000  Uiso   1.00
O408   O     0.46754   0.60800   0.14295   0.00000  Uiso   1.00
O409   O     0.41393   0.59733   0.18833   0.00000  Uiso   1.00
H410   H     0.39953   0.57995   0.16129   0.00000  Uiso   1.00
C411   C     0.46550   0.37575   0.17397   0.00000  Uiso   1.00
O412   O     0.43755   0.40122   0.17571   0.00000  Uiso   1.00
O413   O     0.48331   0.36690   0.13309   0.00000  Uiso   1.00
H414   H     0.47016   0.38361   0.10731   0.00000  Uiso   1.00
C415   C     0.54665   0.62541   0.32124   0.00000  Uiso   1.00
O416   O     0.56556   0.59199   0.31469   0.00000  Uiso   1.00
O417   O     0.55035   0.64633   0.36422   0.00000  Uiso   1.00
H418   H     0.56932   0.63053   0.38620   0.00000  Uiso   1.00
C419   C     0.56838   0.53531   0.11445   0.00000  Uiso   1.00
H420   H     0.58173   0.51374   0.14041   0.00000  Uiso   1.00
H421   H     0.59254   0.54267   0.09022   0.00000  Uiso   1.00
H422   H     0.56091   0.56759   0.13096   0.00000  Uiso   1.00
C423   C     0.44863   0.41810   0.37426   0.00000  Uiso   1.00
H424   H     0.43756   0.42635   0.33972   0.00000  Uiso   1.00
H425   H     0.47037   0.39067   0.37308   0.00000  Uiso   1.00
H426   H     0.42054   0.40542   0.39081   0.00000  Uiso   1.00
C427   C     0.47171   0.58626   0.39286   0.00000  Uiso   1.00
H428   H     0.46553   0.58837   0.35616   0.00000  Uiso   1.00
H429   H     0.44325   0.59744   0.40815   0.00000  Uiso   1.00
H430   H     0.49745   0.61037   0.40518   0.00000  Uiso   1.00
C431   C     0.41675   0.47629   0.11672   0.00000  Uiso   1.00
H432   H     0.40347   0.44148   0.10927   0.00000  Uiso   1.00
H433   H     0.42086   0.48237   0.15372   0.00000  Uiso   1.00
H434   H     0.39380   0.49993   0.10393   0.00000  Uiso   1.00
C435   C     0.36700   0.41285   0.23130   0.00000  Uiso   1.00
O436   O     0.36130   0.39058   0.19587   0.00000  Uiso   1.00
O437   O     0.38732   0.39472   0.26868   0.00000  Uiso   1.00
H438   H     0.39794   0.36415   0.26134   0.00000  Uiso   1.00
C439   C     0.63285   0.58776   0.24868   0.00000  Uiso   1.00
O440   O     0.64069   0.61616   0.27917   0.00000  Uiso   1.00
O441   O     0.60943   0.59860   0.20986   0.00000  Uiso   1.00
H442   H     0.59966   0.63029   0.21170   0.00000  Uiso   1.00
C443   C     0.61537   0.42563   0.19894   0.00000  Uiso   1.00
O444   O     0.61438   0.38731   0.21231   0.00000  Uiso   1.00
O445   O     0.59078   0.43535   0.16065   0.00000  Uiso   1.00
H446   H     0.57380   0.40802   0.14700   0.00000  Uiso   1.00
C447   C     0.37882   0.57001   0.29802   0.00000  Uiso   1.00
O448   O     0.38612   0.56044   0.33722   0.00000  Uiso   1.00
O449   O     0.39248   0.61187   0.28307   0.00000  Uiso   1.00
H450   H     0.40831   0.63125   0.30785   0.00000  Uiso   1.00
C451   C     0.75314   0.49869   0.25217   0.00000  Uiso   1.00
C452   C     0.91284   0.50104   0.24501   0.00000  Uiso   1.00
C453   C     0.83267   0.49938   0.16397   0.00000  Uiso   1.00
C454   C     0.82663   0.50028   0.33503   0.00000  Uiso   1.00
C455   C     0.85595   0.36027   0.28287   0.00000  Uiso   1.00
C456   C     0.81275   0.64019   0.21588   0.00000  Uiso   1.00
C457   C     0.81431   0.35464   0.21500   0.00000  Uiso   1.00
C458   C     0.85546   0.64557   0.28365   0.00000  Uiso   1.00
C459   C     0.68353   0.45811   0.23562   0.00000  Uiso   1.00
C460   C     0.98180   0.54172   0.25185   0.00000  Uiso   1.00
C461   C     0.97465   0.46263   0.22434   0.00000  Uiso   1.00
C462   C     0.68955   0.53620   0.26629   0.00000  Uiso   1.00
C463   C     0.85883   0.50920   0.04453   0.00000  Uiso   1.00
C464   C     0.80565   0.45592   0.44757   0.00000  Uiso   1.00
C465   C     0.81773   0.53657   0.45552   0.00000  Uiso   1.00
C466   C     0.78726   0.47962   0.04638   0.00000  Uiso   1.00
C467   C     0.86261   0.51284   0.09132   0.00000  Uiso   1.00
C468   C     0.80186   0.45862   0.40094   0.00000  Uiso   1.00
C469   C     0.81361   0.54018   0.40909   0.00000  Uiso   1.00
C470   C     0.78990   0.48361   0.09310   0.00000  Uiso   1.00
C471   C     0.82852   0.49800   0.11558   0.00000  Uiso   1.00
C472   C     0.81303   0.50022   0.38148   0.00000  Uiso   1.00
C473   C     0.82151   0.49231   0.02249   0.00000  Uiso   1.00
C474   C     0.81633   0.49454   0.47424   0.00000  Uiso   1.00
C475   C     0.95686   0.50307   0.23690   0.00000  Uiso   1.00
C476   C     0.70804   0.49619   0.25409   0.00000  Uiso   1.00
H477   H     0.88436   0.52087   0.02499   0.00000  Uiso   1.00
H478   H     0.79978   0.42401   0.46310   0.00000  Uiso   1.00
H479   H     0.82070   0.56668   0.47739   0.00000  Uiso   1.00
H480   H     0.75782   0.46914   0.02844   0.00000  Uiso   1.00
N481   N     0.83333   0.61907   0.25000   0.00000  Uiso   1.00
N482   N     0.83333   0.38093   0.25000   0.00000  Uiso   1.00
O483   O     0.77226   0.53821   0.25000   0.00000  Uiso   1.00
O484   O     0.89441   0.46179   0.25001   0.00000  Uiso   1.00
O485   O     0.89441   0.53821   0.25001   0.00000  Uiso   1.00
O486   O     0.77226   0.46179   0.25000   0.00000  Uiso   1.00
O487   O     0.83333   0.53822   0.18453   0.00000  Uiso   1.00
O488   O     0.83334   0.46178   0.31547   0.00000  Uiso   1.00
O489   O     0.83334   0.53822   0.31547   0.00000  Uiso   1.00
O490   O     0.83333   0.46178   0.18453   0.00000  Uiso   1.00
Zn491  Zn    0.83333   0.55104   0.25000   0.00000  Uiso   1.00
Zn492  Zn    0.83333   0.44896   0.25000   0.00000  Uiso   1.00
C493   C     0.88645   0.38769   0.31311   0.00000  Uiso   1.00
O494   O     0.87707   0.40101   0.35025   0.00000  Uiso   1.00
O495   O     0.92737   0.39433   0.30083   0.00000  Uiso   1.00
H496   H     0.94575   0.41259   0.32448   0.00000  Uiso   1.00
C497   C     0.78745   0.61360   0.18022   0.00000  Uiso   1.00
O498   O     0.80087   0.60800   0.14295   0.00000  Uiso   1.00
O499   O     0.74726   0.59733   0.18833   0.00000  Uiso   1.00
H500   H     0.73286   0.57995   0.16129   0.00000  Uiso   1.00
C501   C     0.79884   0.37575   0.17397   0.00000  Uiso   1.00
O502   O     0.77088   0.40122   0.17571   0.00000  Uiso   1.00
O503   O     0.81664   0.36690   0.13309   0.00000  Uiso   1.00
H504   H     0.80350   0.38361   0.10731   0.00000  Uiso   1.00
C505   C     0.87999   0.62541   0.32124   0.00000  Uiso   1.00
O506   O     0.89890   0.59199   0.31469   0.00000  Uiso   1.00
O507   O     0.88369   0.64633   0.36422   0.00000  Uiso   1.00
H508   H     0.90265   0.63053   0.38620   0.00000  Uiso   1.00
C509   C     0.90171   0.53531   0.11445   0.00000  Uiso   1.00
H510   H     0.91506   0.51374   0.14041   0.00000  Uiso   1.00
H511   H     0.92587   0.54267   0.09022   0.00000  Uiso   1.00
H512   H     0.89424   0.56759   0.13096   0.00000  Uiso   1.00
C513   C     0.78196   0.41810   0.37426   0.00000  Uiso   1.00
H514   H     0.77089   0.42635   0.33972   0.00000  Uiso   1.00
H515   H     0.80370   0.39067   0.37308   0.00000  Uiso   1.00
H516   H     0.75388   0.40542   0.39081   0.00000  Uiso   1.00
C517   C     0.80504   0.58626   0.39286   0.00000  Uiso   1.00
H518   H     0.79886   0.58837   0.35616   0.00000  Uiso   1.00
H519   H     0.77659   0.59744   0.40815   0.00000  Uiso   1.00
H520   H     0.83078   0.61037   0.40518   0.00000  Uiso   1.00
C521   C     0.75008   0.47629   0.11672   0.00000  Uiso   1.00
H522   H     0.73681   0.44148   0.10927   0.00000  Uiso   1.00
H523   H     0.75419   0.48237   0.15372   0.00000  Uiso   1.00
H524   H     0.72714   0.49993   0.10393   0.00000  Uiso   1.00
C525   C     0.70034   0.41285   0.23130   0.00000  Uiso   1.00
O526   O     0.69463   0.39058   0.19587   0.00000  Uiso   1.00
O527   O     0.72066   0.39472   0.26868   0.00000  Uiso   1.00
H528   H     0.73127   0.36415   0.26134   0.00000  Uiso   1.00
C529   C     0.96619   0.58776   0.24868   0.00000  Uiso   1.00
O530   O     0.97402   0.61616   0.27917   0.00000  Uiso   1.00
O531   O     0.94276   0.59860   0.20986   0.00000  Uiso   1.00
H532   H     0.93300   0.63029   0.21170   0.00000  Uiso   1.00
C533   C     0.94871   0.42563   0.19894   0.00000  Uiso   1.00
O534   O     0.94771   0.38731   0.21231   0.00000  Uiso   1.00
O535   O     0.92412   0.43535   0.16065   0.00000  Uiso   1.00
H536   H     0.90714   0.40802   0.14700   0.00000  Uiso   1.00
C537   C     0.71215   0.57001   0.29802   0.00000  Uiso   1.00
O538   O     0.71946   0.56044   0.33722   0.00000  Uiso   1.00
O539   O     0.72581   0.61187   0.28307   0.00000  Uiso   1.00
H540   H     0.74164   0.63125   0.30785   0.00000  Uiso   1.00
C541   C     0.08647   0.83202   0.25217   0.00000  Uiso   1.00
C542   C     0.24617   0.83437   0.24501   0.00000  Uiso   1.00
C543   C     0.16600   0.83271   0.16397   0.00000  Uiso   1.00
C544   C     0.15997   0.83362   0.33503   0.00000  Uiso   1.00
C545   C     0.18929   0.69360   0.28287   0.00000  Uiso   1.00
C546   C     0.14608   0.97353   0.21588   0.00000  Uiso   1.00
C547   C     0.14764   0.68797   0.21500   0.00000  Uiso   1.00
C548   C     0.18880   0.97890   0.28365   0.00000  Uiso   1.00
C549   C     0.01687   0.79144   0.23562   0.00000  Uiso   1.00
C550   C     0.31513   0.87506   0.25185   0.00000  Uiso   1.00
C551   C     0.30798   0.79596   0.22434   0.00000  Uiso   1.00
C552   C     0.02288   0.86953   0.26629   0.00000  Uiso   1.00
C553   C     0.19217   0.84253   0.04453   0.00000  Uiso   1.00
C554   C     0.13898   0.78926   0.44757   0.00000  Uiso   1.00
C555   C     0.15106   0.86991   0.45552   0.00000  Uiso   1.00
C556   C     0.12060   0.81296   0.04638   0.00000  Uiso   1.00
C557   C     0.19594   0.84618   0.09132   0.00000  Uiso   1.00
C558   C     0.13520   0.79196   0.40094   0.00000  Uiso   1.00
C559   C     0.14695   0.87351   0.40909   0.00000  Uiso   1.00
C560   C     0.12323   0.81694   0.09310   0.00000  Uiso   1.00
C561   C     0.16185   0.83133   0.11558   0.00000  Uiso   1.00
C562   C     0.14636   0.83355   0.38148   0.00000  Uiso   1.00
C563   C     0.15484   0.82564   0.02249   0.00000  Uiso   1.00
C564   C     0.14967   0.82787   0.47424   0.00000  Uiso   1.00
C565   C     0.29019   0.83641   0.23690   0.00000  Uiso   1.00
C566   C     0.04137   0.82952   0.25409   0.00000  Uiso   1.00
H567   H     0.21769   0.85420   0.02499   0.00000  Uiso   1.00
H568   H     0.13311   0.75734   0.46310   0.00000  Uiso   1.00
H569   H     0.15404   0.90002   0.47739   0.00000  Uiso   1.00
H570   H     0.09115   0.80247   0.02844   0.00000  Uiso   1.00
N571   N     0.16667   0.95240   0.25000   0.00000  Uiso   1.00
N572   N     0.16667   0.71427   0.25000   0.00000  Uiso   1.00
O573   O     0.10559   0.87154   0.25000   0.00000  Uiso   1.00
O574   O     0.22774   0.79513   0.25001   0.00000  Uiso   1.00
O575   O     0.22774   0.87154   0.25001   0.00000  Uiso   1.00
O576   O     0.10559   0.79513   0.25000   0.00000  Uiso   1.00
O577   O     0.16666   0.87155   0.18453   0.00000  Uiso   1.00
O578   O     0.16667   0.79511   0.31547   0.00000  Uiso   1.00
O579   O     0.16667   0.87155   0.31547   0.00000  Uiso   1.00
O580   O     0.16666   0.79511   0.18453   0.00000  Uiso   1.00
Zn581  Zn    0.16667   0.88437   0.25000   0.00000  Uiso   1.00
Zn582  Zn    0.16667   0.78229   0.25000   0.00000  Uiso   1.00
C583   C     0.21979   0.72102   0.31311   0.00000  Uiso   1.00
O584   O     0.21040   0.73435   0.35025   0.00000  Uiso   1.00
O585   O     0.26070   0.72767   0.30083   0.00000  Uiso   1.00
H586   H     0.27908   0.74592   0.32448   0.00000  Uiso   1.00
C587   C     0.12078   0.94693   0.18022   0.00000  Uiso   1.00
O588   O     0.13420   0.94133   0.14295   0.00000  Uiso   1.00
O589   O     0.08059   0.93067   0.18833   0.00000  Uiso   1.00
H590   H     0.06620   0.91328   0.16129   0.00000  Uiso   1.00
C591   C     0.13217   0.70908   0.17397   0.00000  Uiso   1.00
O592   O     0.10422   0.73455   0.17571   0.00000  Uiso   1.00
O593   O     0.14998   0.70023   0.13309   0.00000  Uiso   1.00
H594   H     0.13683   0.71695   0.10731   0.00000  Uiso   1.00
C595   C     0.21332   0.95874   0.32124   0.00000  Uiso   1.00
O596   O     0.23223   0.92532   0.31469   0.00000  Uiso   1.00
O597   O     0.21702   0.97966   0.36422   0.00000  Uiso   1.00
H598   H     0.23598   0.96387   0.38620   0.00000  Uiso   1.00
C599   C     0.23505   0.86864   0.11445   0.00000  Uiso   1.00
H600   H     0.24840   0.84707   0.14041   0.00000  Uiso   1.00
H601   H     0.25920   0.87600   0.09022   0.00000  Uiso   1.00
H602   H     0.22757   0.90092   0.13096   0.00000  Uiso   1.00
C603   C     0.11530   0.75143   0.37426   0.00000  Uiso   1.00
H604   H     0.10422   0.75968   0.33972   0.00000  Uiso   1.00
H605   H     0.13703   0.72401   0.37308   0.00000  Uiso   1.00
H606   H     0.08721   0.73876   0.39081   0.00000  Uiso   1.00
C607   C     0.13837   0.91959   0.39286   0.00000  Uiso   1.00
H608   H     0.13220   0.92170   0.35616   0.00000  Uiso   1.00
H609   H     0.10992   0.93078   0.40815   0.00000  Uiso   1.00
H610   H     0.16412   0.94370   0.40518   0.00000  Uiso   1.00
C611   C     0.08342   0.80962   0.11672   0.00000  Uiso   1.00
H612   H     0.07014   0.77481   0.10927   0.00000  Uiso   1.00
H613   H     0.08753   0.81570   0.15372   0.00000  Uiso   1.00
H614   H     0.06047   0.83327   0.10393   0.00000  Uiso   1.00
C615   C     0.03367   0.74619   0.23130   0.00000  Uiso   1.00
O616   O     0.02796   0.72392   0.19587   0.00000  Uiso   1.00
O617   O     0.05399   0.72805   0.26868   0.00000  Uiso   1.00
H618   H     0.06460   0.69749   0.26134   0.00000  Uiso   1.00
C619   C     0.29952   0.92110   0.24868   0.00000  Uiso   1.00
O620   O     0.30736   0.94950   0.27917   0.00000  Uiso   1.00
O621   O     0.27610   0.93194   0.20986   0.00000  Uiso   1.00
H622   H     0.26633   0.96362   0.21170   0.00000  Uiso   1.00
C623   C     0.28204   0.75896   0.19894   0.00000  Uiso   1.00
O624   O     0.28104   0.72064   0.21231   0.00000  Uiso   1.00
O625   O     0.25745   0.76869   0.16065   0.00000  Uiso   1.00
H626   H     0.24047   0.74135   0.14700   0.00000  Uiso   1.00
C627   C     0.04549   0.90334   0.29802   0.00000  Uiso   1.00
O628   O     0.05279   0.89377   0.33722   0.00000  Uiso   1.00
O629   O     0.05914   0.94520   0.28307   0.00000  Uiso   1.00
H630   H     0.07498   0.96458   0.30785   0.00000  Uiso   1.00
C631   C     0.41981   0.83202   0.25217   0.00000  Uiso   1.00
C632   C     0.57950   0.83437   0.24501   0.00000  Uiso   1.00
C633   C     0.49933   0.83271   0.16397   0.00000  Uiso   1.00
C634   C     0.49330   0.83362   0.33503   0.00000  Uiso   1.00
C635   C     0.52262   0.69360   0.28287   0.00000  Uiso   1.00
C636   C     0.47941   0.97353   0.21588   0.00000  Uiso   1.00
C637   C     0.48097   0.68797   0.21500   0.00000  Uiso   1.00
C638   C     0.52213   0.97890   0.28365   0.00000  Uiso   1.00
C639   C     0.35020   0.79144   0.23562   0.00000  Uiso   1.00
C640   C     0.64846   0.87506   0.25185   0.00000  Uiso   1.00
C641   C     0.64131   0.79596   0.22434   0.00000  Uiso   1.00
C642   C     0.35622   0.86953   0.26629   0.00000  Uiso   1.00
C643   C     0.52550   0.84253   0.04453   0.00000  Uiso   1.00
C644   C     0.47231   0.78926   0.44757   0.00000  Uiso   1.00
C645   C     0.48439   0.86991   0.45552   0.00000  Uiso   1.00
C646   C     0.45393   0.81296   0.04638   0.00000  Uiso   1.00
C647   C     0.52928   0.84618   0.09132   0.00000  Uiso   1.00
C648   C     0.46853   0.79196   0.40094   0.00000  Uiso   1.00
C649   C     0.48028   0.87351   0.40909   0.00000  Uiso   1.00
C650   C     0.45657   0.81694   0.09310   0.00000  Uiso   1.00
C651   C     0.49518   0.83133   0.11558   0.00000  Uiso   1.00
C652   C     0.47969   0.83355   0.38148   0.00000  Uiso   1.00
C653   C     0.48817   0.82564   0.02249   0.00000  Uiso   1.00
C654   C     0.48300   0.82787   0.47424   0.00000  Uiso   1.00
C655   C     0.62352   0.83641   0.23690   0.00000  Uiso   1.00
C656   C     0.37471   0.82952   0.25409   0.00000  Uiso   1.00
H657   H     0.55102   0.85420   0.02499   0.00000  Uiso   1.00
H658   H     0.46644   0.75734   0.46310   0.00000  Uiso   1.00
H659   H     0.48737   0.90002   0.47739   0.00000  Uiso   1.00
H660   H     0.42449   0.80247   0.02844   0.00000  Uiso   1.00
N661   N     0.50000   0.95240   0.25000   0.00000  Uiso   1.00
N662   N     0.50000   0.71427   0.25000   0.00000  Uiso   1.00
O663   O     0.43892   0.87154   0.25000   0.00000  Uiso   1.00
O664   O     0.56108   0.79513   0.25001   0.00000  Uiso   1.00
O665   O     0.56108   0.87154   0.25001   0.00000  Uiso   1.00
O666   O     0.43892   0.79513   0.25000   0.00000  Uiso   1.00
O667   O     0.50000   0.87155   0.18453   0.00000  Uiso   1.00
O668   O     0.50000   0.79511   0.31547   0.00000  Uiso   1.00
O669   O     0.50000   0.87155   0.31547   0.00000  Uiso   1.00
O670   O     0.50000   0.79511   0.18453   0.00000  Uiso   1.00
Zn671  Zn    0.50000   0.88437   0.25000   0.00000  Uiso   1.00
Zn672  Zn    0.50000   0.78229   0.25000   0.00000  Uiso   1.00
C673   C     0.55312   0.72102   0.31311   0.00000  Uiso   1.00
O674   O     0.54373   0.73435   0.35025   0.00000  Uiso   1.00
O675   O     0.59403   0.72767   0.30083   0.00000  Uiso   1.00
H676   H     0.61241   0.74592   0.32448   0.00000  Uiso   1.00
C677   C     0.45412   0.94693   0.18022   0.00000  Uiso   1.00
O678   O     0.46754   0.94133   0.14295   0.00000  Uiso   1.00
O679   O     0.41393   0.93067   0.18833   0.00000  Uiso   1.00
H680   H     0.39953   0.91328   0.16129   0.00000  Uiso   1.00
C681   C     0.46550   0.70908   0.17397   0.00000  Uiso   1.00
O682   O     0.43755   0.73455   0.17571   0.00000  Uiso   1.00
O683   O     0.48331   0.70023   0.13309   0.00000  Uiso   1.00
H684   H     0.47016   0.71695   0.10731   0.00000  Uiso   1.00
C685   C     0.54665   0.95874   0.32124   0.00000  Uiso   1.00
O686   O     0.56556   0.92532   0.31469   0.00000  Uiso   1.00
O687   O     0.55035   0.97966   0.36422   0.00000  Uiso   1.00
H688   H     0.56932   0.96387   0.38620   0.00000  Uiso   1.00
C689   C     0.56838   0.86864   0.11445   0.00000  Uiso   1.00
H690   H     0.58173   0.84707   0.14041   0.00000  Uiso   1.00
H691   H     0.59254   0.87600   0.09022   0.00000  Uiso   1.00
H692   H     0.56091   0.90092   0.13096   0.00000  Uiso   1.00
C693   C     0.44863   0.75143   0.37426   0.00000  Uiso   1.00
H694   H     0.43756   0.75968   0.33972   0.00000  Uiso   1.00
H695   H     0.47037   0.72401   0.37308   0.00000  Uiso   1.00
H696   H     0.42054   0.73876   0.39081   0.00000  Uiso   1.00
C697   C     0.47171   0.91959   0.39286   0.00000  Uiso   1.00
H698   H     0.46553   0.92170   0.35616   0.00000  Uiso   1.00
H699   H     0.44325   0.93078   0.40815   0.00000  Uiso   1.00
H700   H     0.49745   0.94370   0.40518   0.00000  Uiso   1.00
C701   C     0.41675   0.80962   0.11672   0.00000  Uiso   1.00
H702   H     0.40347   0.77481   0.10927   0.00000  Uiso   1.00
H703   H     0.42086   0.81570   0.15372   0.00000  Uiso   1.00
H704   H     0.39380   0.83327   0.10393   0.00000  Uiso   1.00
C705   C     0.36700   0.74619   0.23130   0.00000  Uiso   1.00
O706   O     0.36130   0.72392   0.19587   0.00000  Uiso   1.00
O707   O     0.38732   0.72805   0.26868   0.00000  Uiso   1.00
H708   H     0.39794   0.69749   0.26134   0.00000  Uiso   1.00
C709   C     0.63285   0.92110   0.24868   0.00000  Uiso   1.00
O710   O     0.64069   0.94950   0.27917   0.00000  Uiso   1.00
O711   O     0.60943   0.93194   0.20986   0.00000  Uiso   1.00
H712   H     0.59966   0.96362   0.21170   0.00000  Uiso   1.00
C713   C     0.61537   0.75896   0.19894   0.00000  Uiso   1.00
O714   O     0.61438   0.72064   0.21231   0.00000  Uiso   1.00
O715   O     0.59078   0.76869   0.16065   0.00000  Uiso   1.00
H716   H     0.57380   0.74135   0.14700   0.00000  Uiso   1.00
C717   C     0.37882   0.90334   0.29802   0.00000  Uiso   1.00
O718   O     0.38612   0.89377   0.33722   0.00000  Uiso   1.00
O719   O     0.39248   0.94520   0.28307   0.00000  Uiso   1.00
H720   H     0.40831   0.96458   0.30785   0.00000  Uiso   1.00
C721   C     0.75314   0.83202   0.25217   0.00000  Uiso   1.00
C722   C     0.91284   0.83437   0.24501   0.00000  Uiso   1.00
C723   C     0.83267   0.83271   0.16397   0.00000  Uiso   1.00
C724   C     0.82663   0.83362   0.33503   0.00000  Uiso   1.00
C725   C     0.85595   0.69360   0.28287   0.00000  Uiso   1.00
C726   C     0.81275   0.97353   0.21588   0.00000  Uiso   1.00
C727   C     0.81431   0.68797   0.21500   0.00000  Uiso   1.00
C728   C     0.85546   0.97890   0.28365   0.00000  Uiso   1.00
C729   C     0.68353   0.79144   0.23562   0.00000  Uiso   1.00
C730   C     0.98180   0.87506   0.25185   0.00000  Uiso   1.00
C731   C     0.97465   0.79596   0.22434   0.00000  Uiso   1.00
C732   C     0.68955   0.86953   0.26629   0.00000  Uiso   1.00
C733   C     0.85883   0.84253   0.04453   0.00000  Uiso   1.00
C734   C     0.80565   0.78926   0.44757   0.00000  Uiso   1.00
C735   C     0.81773   0.86991   0.45552   0.00000  Uiso   1.00
C736   C     0.78726   0.81296   0.04638   0.00000  Uiso   1.00
C737   C     0.86261   0.84618   0.09132   0.00000  Uiso   1.00
C738   C     0.80186   0.79196   0.40094   0.00000  Uiso   1.00
C739   C     0.81361   0.87351   0.40909   0.00000  Uiso   1.00
C740   C     0.78990   0.81694   0.09310   0.00000  Uiso   1.00
C741   C     0.82852   0.83133   0.11558   0.00000  Uiso   1.00
C742   C     0.81303   0.83355   0.38148   0.00000  Uiso   1.00
C743   C     0.82151   0.82564   0.02249   0.00000  Uiso   1.00
C744   C     0.81633   0.82787   0.47424   0.00000  Uiso   1.00
C745   C     0.95686   0.83641   0.23690   0.00000  Uiso   1.00
C746   C     0.70804   0.82952   0.25409   0.00000  Uiso   1.00
H747   H     0.88436   0.85420   0.02499   0.00000  Uiso   1.00
H748   H     0.79978   0.75734   0.46310   0.00000  Uiso   1.00
H749   H     0.82070   0.90002   0.47739   0.00000  Uiso   1.00
H750   H     0.75782   0.80247   0.02844   0.00000  Uiso   1.00
N751   N     0.83333   0.95240   0.25000   0.00000  Uiso   1.00
N752   N     0.83333   0.71427   0.25000   0.00000  Uiso   1.00
O753   O     0.77226   0.87154   0.25000   0.00000  Uiso   1.00
O754   O     0.89441   0.79513   0.25001   0.00000  Uiso   1.00
O755   O     0.89441   0.87154   0.25001   0.00000  Uiso   1.00
O756   O     0.77226   0.79513   0.25000   0.00000  Uiso   1.00
O757   O     0.83333   0.87155   0.18453   0.00000  Uiso   1.00
O758   O     0.83334   0.79511   0.31547   0.00000  Uiso   1.00
O759   O     0.83334   0.87155   0.31547   0.00000  Uiso   1.00
O760   O     0.83333   0.79511   0.18453   0.00000  Uiso   1.00
Zn761  Zn    0.83333   0.88437   0.25000   0.00000  Uiso   1.00
Zn762  Zn    0.83333   0.78229   0.25000   0.00000  Uiso   1.00
C763   C     0.88645   0.72102   0.31311   0.00000  Uiso   1.00
O764   O     0.87707   0.73435   0.35025   0.00000  Uiso   1.00
O765   O     0.92737   0.72767   0.30083   0.00000  Uiso   1.00
H766   H     0.94575   0.74592   0.32448   0.00000  Uiso   1.00
C767   C     0.78745   0.94693   0.18022   0.00000  Uiso   1.00
O768   O     0.80087   0.94133   0.14295   0.00000  Uiso   1.00
O769   O     0.74726   0.93067   0.18833   0.00000  Uiso   1.00
H770   H     0.73286   0.91328   0.16129   0.00000  Uiso   1.00
C771   C     0.79884   0.70908   0.17397   0.00000  Uiso   1.00
O772   O     0.77088   0.73455   0.17571   0.00000  Uiso   1.00
O773   O     0.81664   0.70023   0.13309   0.00000  Uiso   1.00
H774   H     0.80350   0.71695   0.10731   0.00000  Uiso   1.00
C775   C     0.87999   0.95874   0.32124   0.00000  Uiso   1.00
O776   O     0.89890   0.92532   0.31469   0.00000  Uiso   1.00
O777   O     0.88369   0.97966   0.36422   0.00000  Uiso   1.00
H778   H     0.90265   0.96387   0.38620   0.00000  Uiso   1.00
C779   C     0.90171   0.86864   0.11445   0.00000  Uiso   1.00
H780   H     0.91506   0.84707   0.14041   0.00000  Uiso   1.00
H781   H     0.92587   0.87600   0.09022   0.00000  Uiso   1.00
H782   H     0.89424   0.90092   0.13096   0.00000  Uiso   1.00
C783   C     0.78196   0.75143   0.37426   0.00000  Uiso   1.00
H784   H     0.77089   0.75968   0.33972   0.00000  Uiso   1.00
H785   H     0.80370   0.72401   0.37308   0.00000  Uiso   1.00
H786   H     0.75388   0.73876   0.39081   0.00000  Uiso   1.00
C787   C     0.80504   0.91959   0.39286   0.00000  Uiso   1.00
H788   H     0.79886   0.92170   0.35616   0.00000  Uiso   1.00
H789   H     0.77659   0.93078   0.40815   0.00000  Uiso   1.00
H790   H     0.83078   0.94370   0.40518   0.00000  Uiso   1.00
C791   C     0.75008   0.80962   0.11672   0.00000  Uiso   1.00
H792   H     0.73681   0.77481   0.10927   0.00000  Uiso   1.00
H793   H     0.75419   0.81570   0.15372   0.00000  Uiso   1.00
H794   H     0.72714   0.83327   0.10393   0.00000  Uiso   1.00
C795   C     0.70034   0.74619   0.23130   0.00000  Uiso   1.00
O796   O     0.69463   0.72392   0.19587   0.00000  Uiso   1.00
O797   O     0.72066   0.72805   0.26868   0.00000  Uiso   1.00
H798   H     0.73127   0.69749   0.26134   0.00000  Uiso   1.00
C799   C     0.96619   0.92110   0.24868   0.00000  Uiso   1.00
O800   O     0.97402   0.94950   0.27917   0.00000  Uiso   1.00
O801   O     0.94276   0.93194   0.20986   0.00000  Uiso   1.00
H802   H     0.93300   0.96362   0.21170   0.00000  Uiso   1.00
C803   C     0.94871   0.75896   0.19894   0.00000  Uiso   1.00
O804   O     0.94771   0.72064   0.21231   0.00000  Uiso   1.00
O805   O     0.92412   0.76869   0.16065   0.00000  Uiso   1.00
H806   H     0.90714   0.74135   0.14700   0.00000  Uiso   1.00
C807   C     0.71215   0.90334   0.29802   0.00000  Uiso   1.00
O808   O     0.71946   0.89377   0.33722   0.00000  Uiso   1.00
O809   O     0.72581   0.94520   0.28307   0.00000  Uiso   1.00
H810   H     0.74164   0.96458   0.30785   0.00000  Uiso   1.00
C811   C     0.08647   0.16536   0.75217   0.00000  Uiso   1.00
C812   C     0.24617   0.16771   0.74501   0.00000  Uiso   1.00
C813   C     0.16600   0.16604   0.66397   0.00000  Uiso   1.00
C814   C     0.15997   0.16695   0.83503   0.00000  Uiso   1.00
C815   C     0.18929   0.02693   0.78287   0.00000  Uiso   1.00
C816   C     0.14608   0.30686   0.71588   0.00000  Uiso   1.00
C817   C     0.14764   0.02130   0.71500   0.00000  Uiso   1.00
C818   C     0.18880   0.31224   0.78365   0.00000  Uiso   1.00
C819   C     0.01687   0.12478   0.73562   0.00000  Uiso   1.00
C820   C     0.31513   0.20839   0.75185   0.00000  Uiso   1.00
C821   C     0.30798   0.12930   0.72434   0.00000  Uiso   1.00
C822   C     0.02288   0.20287   0.76629   0.00000  Uiso   1.00
C823   C     0.19217   0.17587   0.54453   0.00000  Uiso   1.00
C824   C     0.13898   0.12259   0.94757   0.00000  Uiso   1.00
C825   C     0.15106   0.20324   0.95552   0.00000  Uiso   1.00
C826   C     0.12060   0.14629   0.54638   0.00000  Uiso   1.00
C827   C     0.19594   0.17951   0.59132   0.00000  Uiso   1.00
C828   C     0.13520   0.12529   0.90094   0.00000  Uiso   1.00
C829   C     0.14695   0.20684   0.90909   0.00000  Uiso   1.00
C830   C     0.12323   0.15028   0.59310   0.00000  Uiso   1.00
C831   C     0.16185   0.16467   0.61558   0.00000  Uiso   1.00
C832   C     0.14636   0.16688   0.88148   0.00000  Uiso   1.00
C833   C     0.15484   0.15897   0.52249   0.00000  Uiso   1.00
C834   C     0.14967   0.16121   0.97424   0.00000  Uiso   1.00
C835   C     0.29019   0.16974   0.73690   0.00000  Uiso   1.00
C836   C     0.04137   0.16285   0.75409   0.00000  Uiso   1.00
H837   H     0.21769   0.18754   0.52499   0.00000  Uiso   1.00
H838   H     0.13311   0.09068   0.96310   0.00000  Uiso   1.00
H839   H     0.15404   0.23335   0.97739   0.00000  Uiso   1.00
H840   H     0.09115   0.13580   0.52844   0.00000  Uiso   1.00
N841   N     0.16667   0.28573   0.75000   0.00000  Uiso   1.00
N842   N     0.16667   0.04760   0.75000   0.00000  Uiso   1.00
O843   O     0.10559   0.20487   0.75000   0.00000  Uiso   1.00
O844   O     0.22774   0.12846   0.75001   0.00000  Uiso   1.00
O845   O     0.22774   0.20487   0.75001   0.00000  Uiso   1.00
O846   O     0.10559   0.12846   0.75000   0.00000  Uiso   1.00
O847   O     0.16666   0.20489   0.68453   0.00000  Uiso   1.00
O848   O     0.16667   0.12845   0.81547   0.00000  Uiso   1.00
O849   O     0.16667   0.20489   0.81547   0.00000  Uiso   1.00
O850   O     0.16666   0.12845   0.68453   0.00000  Uiso   1.00
Zn851  Zn    0.16667   0.21771   0.75000   0.00000  Uiso   1.00
Zn852  Zn    0.16667   0.11563   0.75000   0.00000  Uiso   1.00
C853   C     0.21979   0.05435   0.81311   0.00000  Uiso   1.00
O854   O     0.21040   0.06768   0.85025   0.00000  Uiso   1.00
O855   O     0.26070   0.06100   0.80083   0.00000  Uiso   1.00
H856   H     0.27908   0.07926   0.82448   0.00000  Uiso   1.00
C857   C     0.12078   0.28027   0.68022   0.00000  Uiso   1.00
O858   O     0.13420   0.27467   0.64295   0.00000  Uiso   1.00
O859   O     0.08059   0.26400   0.68833   0.00000  Uiso   1.00
H860   H     0.06620   0.24662   0.66129   0.00000  Uiso   1.00
C861   C     0.13217   0.04241   0.67397   0.00000  Uiso   1.00
O862   O     0.10422   0.06788   0.67571   0.00000  Uiso   1.00
O863   O     0.14998   0.03357   0.63309   0.00000  Uiso   1.00
H864   H     0.13683   0.05028   0.60731   0.00000  Uiso   1.00
C865   C     0.21332   0.29207   0.82124   0.00000  Uiso   1.00
O866   O     0.23223   0.25866   0.81469   0.00000  Uiso   1.00
O867   O     0.21702   0.31300   0.86422   0.00000  Uiso   1.00
H868   H     0.23598   0.29720   0.88620   0.00000  Uiso   1.00
C869   C     0.23505   0.20197   0.61445   0.00000  Uiso   1.00
H870   H     0.24840   0.18041   0.64041   0.00000  Uiso   1.00
H871   H     0.25920   0.20933   0.59022   0.00000  Uiso   1.00
H872   H     0.22757   0.23426   0.63096   0.00000  Uiso   1.00
C873   C     0.11530   0.08477   0.87426   0.00000  Uiso   1.00
H874   H     0.10422   0.09301   0.83972   0.00000  Uiso   1.00
H875   H     0.13703   0.05734   0.87308   0.00000  Uiso   1.00
H876   H     0.08721   0.07209   0.89081   0.00000  Uiso   1.00
C877   C     0.13837   0.25293   0.89286   0.00000  Uiso   1.00
H878   H     0.13220   0.25504   0.85616   0.00000  Uiso   1.00
H879   H     0.10992   0.26411   0.90815   0.00000  Uiso   1.00
H880   H     0.16412   0.27704   0.90518   0.00000  Uiso   1.00
C881   C     0.08342   0.14296   0.61672   0.00000  Uiso   1.00
H882   H     0.07014   0.10814   0.60927   0.00000  Uiso   1.00
H883   H     0.08753   0.14904   0.65372   0.00000  Uiso   1.00
H884   H     0.06047   0.16660   0.60393   0.00000  Uiso   1.00
C885   C     0.03367   0.07952   0.73130   0.00000  Uiso   1.00
O886   O     0.02796   0.05725   0.69587   0.00000  Uiso   1.00
O887   O     0.05399   0.06139   0.76868   0.00000  Uiso   1.00
H888   H     0.06460   0.03082   0.76134   0.00000  Uiso   1.00
C889   C     0.29952   0.25443   0.74868   0.00000  Uiso   1.00
O890   O     0.30736   0.28283   0.77917   0.00000  Uiso   1.00
O891   O     0.27610   0.26527   0.70986   0.00000  Uiso   1.00
H892   H     0.26633   0.29696   0.71170   0.00000  Uiso   1.00
C893   C     0.28204   0.09229   0.69894   0.00000  Uiso   1.00
O894   O     0.28104   0.05398   0.71231   0.00000  Uiso   1.00
O895   O     0.25745   0.10202   0.66065   0.00000  Uiso   1.00
H896   H     0.24047   0.07468   0.64700   0.00000  Uiso   1.00
C897   C     0.04549   0.23667   0.79802   0.00000  Uiso   1.00
O898   O     0.05279   0.22710   0.83722   0.00000  Uiso   1.00
O899   O     0.05914   0.27853   0.78307   0.00000  Uiso   1.00
H900   H     0.07498   0.29791   0.80785   0.00000  Uiso   1.00
C901   C     0.41981   0.16536   0.75217   0.00000  Uiso   1.00
C902   C     0.57950   0.16771   0.74501   0.00000  Uiso   1.00
C903   C     0.49933   0.16604   0.66397   0.00000  Uiso   1.00
C904   C     0.49330   0.16695   0.83503   0.00000  Uiso   1.00
C905   C     0.52262   0.02693   0.78287   0.00000  Uiso   1.00
C906   C     0.47941   0.30686   0.71588   0.00000  Uiso   1.00
C907   C     0.48097   0.02130   0.71500   0.00000  Uiso   1.00
C908   C     0.52213   0.31224   0.78365   0.00000  Uiso   1.00
C909   C     0.35020   0.12478   0.73562   0.00000  Uiso   1.00
C910   C     0.64846   0.20839   0.75185   0.00000  Uiso   1.00
C911   C     0.64131   0.12930   0.72434   0.00000  Uiso   1.00
C912   C     0.35622   0.20287   0.76629   0.00000  Uiso   1.00
C913   C     0.52550   0.17587   0.54453   0.00000  Uiso   1.00
C914   C     0.47231   0.12259   0.94757   0.00000  Uiso   1.00
C915   C     0.48439   0.20324   0.95552   0.00000  Uiso   1.00
C916   C     0.45393   0.14629   0.54638   0.00000  Uiso   1.00
C917   C     0.52928   0.17951   0.59132   0.00000  Uiso   1.00
C918   C     0.46853   0.12529   0.90094   0.00000  Uiso   1.00
C919   C     0.48028   0.20684   0.90909   0.00000  Uiso   1.00
C920   C     0.45657   0.15028   0.59310   0.00000  Uiso   1.00
C921   C     0.49518   0.16467   0.61558   0.00000  Uiso   1.00
C922   C     0.47969   0.16688   0.88148   0.00000  Uiso   1.00
C923   C     0.48817   0.15897   0.52249   0.00000  Uiso   1.00
C924   C     0.48300   0.16121   0.97424   0.00000  Uiso   1.00
C925   C     0.62352   0.16974   0.73690   0.00000  Uiso   1.00
C926   C     0.37471   0.16285   0.75409   0.00000  Uiso   1.00
H927   H     0.55102   0.18754   0.52499   0.00000  Uiso   1.00
H928   H     0.46644   0.09068   0.96310   0.00000  Uiso   1.00
H929   H     0.48737   0.23335   0.97739   0.00000  Uiso   1.00
H930   H     0.42449   0.13580   0.52844   0.00000  Uiso   1.00
N931   N     0.50000   0.28573   0.75000   0.00000  Uiso   1.00
N932   N     0.50000   0.04760   0.75000   0.00000  Uiso   1.00
O933   O     0.43892   0.20487   0.75000   0.00000  Uiso   1.00
O934   O     0.56108   0.12846   0.75001   0.00000  Uiso   1.00
O935   O     0.56108   0.20487   0.75001   0.00000  Uiso   1.00
O936   O     0.43892   0.12846   0.75000   0.00000  Uiso   1.00
O937   O     0.50000   0.20489   0.68453   0.00000  Uiso   1.00
O938   O     0.50000   0.12845   0.81547   0.00000  Uiso   1.00
O939   O     0.50000   0.20489   0.81547   0.00000  Uiso   1.00
O940   O     0.50000   0.12845   0.68453   0.00000  Uiso   1.00
Zn941  Zn    0.50000   0.21771   0.75000   0.00000  Uiso   1.00
Zn942  Zn    0.50000   0.11563   0.75000   0.00000  Uiso   1.00
C943   C     0.55312   0.05435   0.81311   0.00000  Uiso   1.00
O944   O     0.54373   0.06768   0.85025   0.00000  Uiso   1.00
O945   O     0.59403   0.06100   0.80083   0.00000  Uiso   1.00
H946   H     0.61241   0.07926   0.82448   0.00000  Uiso   1.00
C947   C     0.45412   0.28027   0.68022   0.00000  Uiso   1.00
O948   O     0.46754   0.27467   0.64295   0.00000  Uiso   1.00
O949   O     0.41393   0.26400   0.68833   0.00000  Uiso   1.00
H950   H     0.39953   0.24662   0.66129   0.00000  Uiso   1.00
C951   C     0.46550   0.04241   0.67397   0.00000  Uiso   1.00
O952   O     0.43755   0.06788   0.67571   0.00000  Uiso   1.00
O953   O     0.48331   0.03357   0.63309   0.00000  Uiso   1.00
H954   H     0.47016   0.05028   0.60731   0.00000  Uiso   1.00
C955   C     0.54665   0.29207   0.82124   0.00000  Uiso   1.00
O956   O     0.56556   0.25866   0.81469   0.00000  Uiso   1.00
O957   O     0.55035   0.31300   0.86422   0.00000  Uiso   1.00
H958   H     0.56932   0.29720   0.88620   0.00000  Uiso   1.00
C959   C     0.56838   0.20197   0.61445   0.00000  Uiso   1.00
H960   H     0.58173   0.18041   0.64041   0.00000  Uiso   1.00
H961   H     0.59254   0.20933   0.59022   0.00000  Uiso   1.00
H962   H     0.56091   0.23426   0.63096   0.00000  Uiso   1.00
C963   C     0.44863   0.08477   0.87426   0.00000  Uiso   1.00
H964   H     0.43756   0.09301   0.83972   0.00000  Uiso   1.00
H965   H     0.47037   0.05734   0.87308   0.00000  Uiso   1.00
H966   H     0.42054   0.07209   0.89081   0.00000  Uiso   1.00
C967   C     0.47171   0.25293   0.89286   0.00000  Uiso   1.00
H968   H     0.46553   0.25504   0.85616   0.00000  Uiso   1.00
H969   H     0.44325   0.26411   0.90815   0.00000  Uiso   1.00
H970   H     0.49745   0.27704   0.90518   0.00000  Uiso   1.00
C971   C     0.41675   0.14296   0.61672   0.00000  Uiso   1.00
H972   H     0.40347   0.10814   0.60927   0.00000  Uiso   1.00
H973   H     0.42086   0.14904   0.65372   0.00000  Uiso   1.00
H974   H     0.39380   0.16660   0.60393   0.00000  Uiso   1.00
C975   C     0.36700   0.07952   0.73130   0.00000  Uiso   1.00
O976   O     0.36130   0.05725   0.69587   0.00000  Uiso   1.00
O977   O     0.38732   0.06139   0.76868   0.00000  Uiso   1.00
H978   H     0.39794   0.03082   0.76134   0.00000  Uiso   1.00
C979   C     0.63285   0.25443   0.74868   0.00000  Uiso   1.00
O980   O     0.64069   0.28283   0.77917   0.00000  Uiso   1.00
O981   O     0.60943   0.26527   0.70986   0.00000  Uiso   1.00
H982   H     0.59966   0.29696   0.71170   0.00000  Uiso   1.00
C983   C     0.61537   0.09229   0.69894   0.00000  Uiso   1.00
O984   O     0.61438   0.05398   0.71231   0.00000  Uiso   1.00
O985   O     0.59078   0.10202   0.66065   0.00000  Uiso   1.00
H986   H     0.57380   0.07468   0.64700   0.00000  Uiso   1.00
C987   C     0.37882   0.23667   0.79802   0.00000  Uiso   1.00
O988   O     0.38612   0.22710   0.83722   0.00000  Uiso   1.00
O989   O     0.39248   0.27853   0.78307   0.00000  Uiso   1.00
H990   H     0.40831   0.29791   0.80785   0.00000  Uiso   1.00
C991   C     0.75314   0.16536   0.75217   0.00000  Uiso   1.00
C992   C     0.91284   0.16771   0.74501   0.00000  Uiso   1.00
C993   C     0.83267   0.16604   0.66397   0.00000  Uiso   1.00
C994   C     0.82663   0.16695   0.83503   0.00000  Uiso   1.00
C995   C     0.85595   0.02693   0.78287   0.00000  Uiso   1.00
C996   C     0.81275   0.30686   0.71588   0.00000  Uiso   1.00
C997   C     0.81431   0.02130   0.71500   0.00000  Uiso   1.00
C998   C     0.85546   0.31224   0.78365   0.00000  Uiso   1.00
C999   C     0.68353   0.12478   0.73562   0.00000  Uiso   1.00
C1000  C     0.98180   0.20839   0.75185   0.00000  Uiso   1.00
C1001  C     0.97465   0.12930   0.72434   0.00000  Uiso   1.00
C1002  C     0.68955   0.20287   0.76629   0.00000  Uiso   1.00
C1003  C     0.85883   0.17587   0.54453   0.00000  Uiso   1.00
C1004  C     0.80565   0.12259   0.94757   0.00000  Uiso   1.00
C1005  C     0.81773   0.20324   0.95552   0.00000  Uiso   1.00
C1006  C     0.78726   0.14629   0.54638   0.00000  Uiso   1.00
C1007  C     0.86261   0.17951   0.59132   0.00000  Uiso   1.00
C1008  C     0.80186   0.12529   0.90094   0.00000  Uiso   1.00
C1009  C     0.81361   0.20684   0.90909   0.00000  Uiso   1.00
C1010  C     0.78990   0.15028   0.59310   0.00000  Uiso   1.00
C1011  C     0.82852   0.16467   0.61558   0.00000  Uiso   1.00
C1012  C     0.81303   0.16688   0.88148   0.00000  Uiso   1.00
C1013  C     0.82151   0.15897   0.52249   0.00000  Uiso   1.00
C1014  C     0.81633   0.16121   0.97424   0.00000  Uiso   1.00
C1015  C     0.95686   0.16974   0.73690   0.00000  Uiso   1.00
C1016  C     0.70804   0.16285   0.75409   0.00000  Uiso   1.00
H1017  H     0.88436   0.18754   0.52499   0.00000  Uiso   1.00
H1018  H     0.79978   0.09068   0.96310   0.00000  Uiso   1.00
H1019  H     0.82070   0.23335   0.97739   0.00000  Uiso   1.00
H1020  H     0.75782   0.13580   0.52844   0.00000  Uiso   1.00
N1021  N     0.83333   0.28573   0.75000   0.00000  Uiso   1.00
N1022  N     0.83333   0.04760   0.75000   0.00000  Uiso   1.00
O1023  O     0.77226   0.20487   0.75000   0.00000  Uiso   1.00
O1024  O     0.89441   0.12846   0.75001   0.00000  Uiso   1.00
O1025  O     0.89441   0.20487   0.75001   0.00000  Uiso   1.00
O1026  O     0.77226   0.12846   0.75000   0.00000  Uiso   1.00
O1027  O     0.83333   0.20489   0.68453   0.00000  Uiso   1.00
O1028  O     0.83334   0.12845   0.81547   0.00000  Uiso   1.00
O1029  O     0.83334   0.20489   0.81547   0.00000  Uiso   1.00
O1030  O     0.83333   0.12845   0.68453   0.00000  Uiso   1.00
Zn1031 Zn    0.83333   0.21771   0.75000   0.00000  Uiso   1.00
Zn1032 Zn    0.83333   0.11563   0.75000   0.00000  Uiso   1.00
C1033  C     0.88645   0.05435   0.81311   0.00000  Uiso   1.00
O1034  O     0.87707   0.06768   0.85025   0.00000  Uiso   1.00
O1035  O     0.92737   0.06100   0.80083   0.00000  Uiso   1.00
H1036  H     0.94575   0.07926   0.82448   0.00000  Uiso   1.00
C1037  C     0.78745   0.28027   0.68022   0.00000  Uiso   1.00
O1038  O     0.80087   0.27467   0.64295   0.00000  Uiso   1.00
O1039  O     0.74726   0.26400   0.68833   0.00000  Uiso   1.00
H1040  H     0.73286   0.24662   0.66129   0.00000  Uiso   1.00
C1041  C     0.79884   0.04241   0.67397   0.00000  Uiso   1.00
O1042  O     0.77088   0.06788   0.67571   0.00000  Uiso   1.00
O1043  O     0.81664   0.03357   0.63309   0.00000  Uiso   1.00
H1044  H     0.80350   0.05028   0.60731   0.00000  Uiso   1.00
C1045  C     0.87999   0.29207   0.82124   0.00000  Uiso   1.00
O1046  O     0.89890   0.25866   0.81469   0.00000  Uiso   1.00
O1047  O     0.88369   0.31300   0.86422   0.00000  Uiso   1.00
H1048  H     0.90265   0.29720   0.88620   0.00000  Uiso   1.00
C1049  C     0.90171   0.20197   0.61445   0.00000  Uiso   1.00
H1050  H     0.91506   0.18041   0.64041   0.00000  Uiso   1.00
H1051  H     0.92587   0.20933   0.59022   0.00000  Uiso   1.00
H1052  H     0.89424   0.23426   0.63096   0.00000  Uiso   1.00
C1053  C     0.78196   0.08477   0.87426   0.00000  Uiso   1.00
H1054  H     0.77089   0.09301   0.83972   0.00000  Uiso   1.00
H1055  H     0.80370   0.05734   0.87308   0.00000  Uiso   1.00
H1056  H     0.75388   0.07209   0.89081   0.00000  Uiso   1.00
C1057  C     0.80504   0.25293   0.89286   0.00000  Uiso   1.00
H1058  H     0.79886   0.25504   0.85616   0.00000  Uiso   1.00
H1059  H     0.77659   0.26411   0.90815   0.00000  Uiso   1.00
H1060  H     0.83078   0.27704   0.90518   0.00000  Uiso   1.00
C1061  C     0.75008   0.14296   0.61672   0.00000  Uiso   1.00
H1062  H     0.73681   0.10814   0.60927   0.00000  Uiso   1.00
H1063  H     0.75419   0.14904   0.65372   0.00000  Uiso   1.00
H1064  H     0.72714   0.16660   0.60393   0.00000  Uiso   1.00
C1065  C     0.70034   0.07952   0.73130   0.00000  Uiso   1.00
O1066  O     0.69463   0.05725   0.69587   0.00000  Uiso   1.00
O1067  O     0.72066   0.06139   0.76868   0.00000  Uiso   1.00
H1068  H     0.73127   0.03082   0.76134   0.00000  Uiso   1.00
C1069  C     0.96619   0.25443   0.74868   0.00000  Uiso   1.00
O1070  O     0.97402   0.28283   0.77917   0.00000  Uiso   1.00
O1071  O     0.94276   0.26527   0.70986   0.00000  Uiso   1.00
H1072  H     0.93300   0.29696   0.71170   0.00000  Uiso   1.00
C1073  C     0.94871   0.09229   0.69894   0.00000  Uiso   1.00
O1074  O     0.94771   0.05398   0.71231   0.00000  Uiso   1.00
O1075  O     0.92412   0.10202   0.66065   0.00000  Uiso   1.00
H1076  H     0.90714   0.07468   0.64700   0.00000  Uiso   1.00
C1077  C     0.71215   0.23667   0.79802   0.00000  Uiso   1.00
O1078  O     0.71946   0.22710   0.83722   0.00000  Uiso   1.00
O1079  O     0.72581   0.27853   0.78307   0.00000  Uiso   1.00
H1080  H     0.74164   0.29791   0.80785   0.00000  Uiso   1.00
C1081  C     0.08647   0.49869   0.75217   0.00000  Uiso   1.00
C1082  C     0.24617   0.50104   0.74501   0.00000  Uiso   1.00
C1083  C     0.16600   0.49938   0.66397   0.00000  Uiso   1.00
C1084  C     0.15997   0.50028   0.83503   0.00000  Uiso   1.00
C1085  C     0.18929   0.36027   0.78287   0.00000  Uiso   1.00
C1086  C     0.14608   0.64019   0.71588   0.00000  Uiso   1.00
C1087  C     0.14764   0.35464   0.71500   0.00000  Uiso   1.00
C1088  C     0.18880   0.64557   0.78365   0.00000  Uiso   1.00
C1089  C     0.01687   0.45811   0.73562   0.00000  Uiso   1.00
C1090  C     0.31513   0.54172   0.75185   0.00000  Uiso   1.00
C1091  C     0.30798   0.46263   0.72434   0.00000  Uiso   1.00
C1092  C     0.02288   0.53620   0.76629   0.00000  Uiso   1.00
C1093  C     0.19217   0.50920   0.54453   0.00000  Uiso   1.00
C1094  C     0.13898   0.45592   0.94757   0.00000  Uiso   1.00
C1095  C     0.15106   0.53657   0.95552   0.00000  Uiso   1.00
C1096  C     0.12060   0.47962   0.54638   0.00000  Uiso   1.00
C1097  C     0.19594   0.51284   0.59132   0.00000  Uiso   1.00
C1098  C     0.13520   0.45862   0.90094   0.00000  Uiso   1.00
C1099  C     0.14695   0.54018   0.90909   0.00000  Uiso   1.00
C1100  C     0.12323   0.48361   0.59310   0.00000  Uiso   1.00
C1101  C     0.16185   0.49800   0.61558   0.00000  Uiso   1.00
C1102  C     0.14636   0.50022   0.88148   0.00000  Uiso   1.00
C1103  C     0.15484   0.49231   0.52249   0.00000  Uiso   1.00
C1104  C     0.14967   0.49454   0.97424   0.00000  Uiso   1.00
C1105  C     0.29019   0.50307   0.73690   0.00000  Uiso   1.00
C1106  C     0.04137   0.49619   0.75409   0.00000  Uiso   1.00
H1107  H     0.21769   0.52087   0.52499   0.00000  Uiso   1.00
H1108  H     0.13311   0.42401   0.96310   0.00000  Uiso   1.00
H1109  H     0.15404   0.56668   0.97739   0.00000  Uiso   1.00
H1110  H     0.09115   0.46914   0.52844   0.00000  Uiso   1.00
N1111  N     0.16667   0.61907   0.75000   0.00000  Uiso   1.00
N1112  N     0.16667   0.38093   0.75000   0.00000  Uiso   1.00
O1113  O     0.10559   0.53821   0.75000   0.00000  Uiso   1.00
O1114  O     0.22774   0.46179   0.75001   0.00000  Uiso   1.00
O1115  O     0.22774   0.53821   0.75001   0.00000  Uiso   1.00
O1116  O     0.10559   0.46179   0.75000   0.00000  Uiso   1.00
O1117  O     0.16666   0.53822   0.68453   0.00000  Uiso   1.00
O1118  O     0.16667   0.46178   0.81547   0.00000  Uiso   1.00
O1119  O     0.16667   0.53822   0.81547   0.00000  Uiso   1.00
O1120  O     0.16666   0.46178   0.68453   0.00000  Uiso   1.00
Zn1121 Zn    0.16667   0.55104   0.75000   0.00000  Uiso   1.00
Zn1122 Zn    0.16667   0.44896   0.75000   0.00000  Uiso   1.00
C1123  C     0.21979   0.38769   0.81311   0.00000  Uiso   1.00
O1124  O     0.21040   0.40101   0.85025   0.00000  Uiso   1.00
O1125  O     0.26070   0.39433   0.80083   0.00000  Uiso   1.00
H1126  H     0.27908   0.41259   0.82448   0.00000  Uiso   1.00
C1127  C     0.12078   0.61360   0.68022   0.00000  Uiso   1.00
O1128  O     0.13420   0.60800   0.64295   0.00000  Uiso   1.00
O1129  O     0.08059   0.59733   0.68833   0.00000  Uiso   1.00
H1130  H     0.06620   0.57995   0.66129   0.00000  Uiso   1.00
C1131  C     0.13217   0.37575   0.67397   0.00000  Uiso   1.00
O1132  O     0.10422   0.40122   0.67571   0.00000  Uiso   1.00
O1133  O     0.14998   0.36690   0.63309   0.00000  Uiso   1.00
H1134  H     0.13683   0.38361   0.60731   0.00000  Uiso   1.00
C1135  C     0.21332   0.62541   0.82124   0.00000  Uiso   1.00
O1136  O     0.23223   0.59199   0.81469   0.00000  Uiso   1.00
O1137  O     0.21702   0.64633   0.86422   0.00000  Uiso   1.00
H1138  H     0.23598   0.63053   0.88620   0.00000  Uiso   1.00
C1139  C     0.23505   0.53531   0.61445   0.00000  Uiso   1.00
H1140  H     0.24840   0.51374   0.64041   0.00000  Uiso   1.00
H1141  H     0.25920   0.54267   0.59022   0.00000  Uiso   1.00
H1142  H     0.22757   0.56759   0.63096   0.00000  Uiso   1.00
C1143  C     0.11530   0.41810   0.87426   0.00000  Uiso   1.00
H1144  H     0.10422   0.42635   0.83972   0.00000  Uiso   1.00
H1145  H     0.13703   0.39067   0.87308   0.00000  Uiso   1.00
H1146  H     0.08721   0.40542   0.89081   0.00000  Uiso   1.00
C1147  C     0.13837   0.58626   0.89286   0.00000  Uiso   1.00
H1148  H     0.13220   0.58837   0.85616   0.00000  Uiso   1.00
H1149  H     0.10992   0.59744   0.90815   0.00000  Uiso   1.00
H1150  H     0.16412   0.61037   0.90518   0.00000  Uiso   1.00
C1151  C     0.08342   0.47629   0.61672   0.00000  Uiso   1.00
H1152  H     0.07014   0.44148   0.60927   0.00000  Uiso   1.00
H1153  H     0.08753   0.48237   0.65372   0.00000  Uiso   1.00
H1154  H     0.06047   0.49993   0.60393   0.00000  Uiso   1.00
C1155  C     0.03367   0.41285   0.73130   0.00000  Uiso   1.00
O1156  O     0.02796   0.39058   0.69587   0.00000  Uiso   1.00
O1157  O     0.05399   0.39472   0.76868   0.00000  Uiso   1.00
H1158  H     0.06460   0.36415   0.76134   0.00000  Uiso   1.00
C1159  C     0.29952   0.58776   0.74868   0.00000  Uiso   1.00
O1160  O     0.30736   0.61616   0.77917   0.00000  Uiso   1.00
O1161  O     0.27610   0.59860   0.70986   0.00000  Uiso   1.00
H1162  H     0.26633   0.63029   0.71170   0.00000  Uiso   1.00
C1163  C     0.28204   0.42563   0.69894   0.00000  Uiso   1.00
O1164  O     0.28104   0.38731   0.71231   0.00000  Uiso   1.00
O1165  O     0.25745   0.43535   0.66065   0.00000  Uiso   1.00
H1166  H     0.24047   0.40802   0.64700   0.00000  Uiso   1.00
C1167  C     0.04549   0.57001   0.79802   0.00000  Uiso   1.00
O1168  O     0.05279   0.56044   0.83722   0.00000  Uiso   1.00
O1169  O     0.05914   0.61187   0.78307   0.00000  Uiso   1.00
H1170  H     0.07498   0.63125   0.80785   0.00000  Uiso   1.00
C1171  C     0.41981   0.49869   0.75217   0.00000  Uiso   1.00
C1172  C     0.57950   0.50104   0.74501   0.00000  Uiso   1.00
C1173  C     0.49933   0.49938   0.66397   0.00000  Uiso   1.00
C1174  C     0.49330   0.50028   0.83503   0.00000  Uiso   1.00
C1175  C     0.52262   0.36027   0.78287   0.00000  Uiso   1.00
C1176  C     0.47941   0.64019   0.71588   0.00000  Uiso   1.00
C1177  C     0.48097   0.35464   0.71500   0.00000  Uiso   1.00
C1178  C     0.52213   0.64557   0.78365   0.00000  Uiso   1.00
C1179  C     0.35020   0.45811   0.73562   0.00000  Uiso   1.00
C1180  C     0.64846   0.54172   0.75185   0.00000  Uiso   1.00
C1181  C     0.64131   0.46263   0.72434   0.00000  Uiso   1.00
C1182  C     0.35622   0.53620   0.76629   0.00000  Uiso   1.00
C1183  C     0.52550   0.50920   0.54453   0.00000  Uiso   1.00
C1184  C     0.47231   0.45592   0.94757   0.00000  Uiso   1.00
C1185  C     0.48439   0.53657   0.95552   0.00000  Uiso   1.00
C1186  C     0.45393   0.47962   0.54638   0.00000  Uiso   1.00
C1187  C     0.52928   0.51284   0.59132   0.00000  Uiso   1.00
C1188  C     0.46853   0.45862   0.90094   0.00000  Uiso   1.00
C1189  C     0.48028   0.54018   0.90909   0.00000  Uiso   1.00
C1190  C     0.45657   0.48361   0.59310   0.00000  Uiso   1.00
C1191  C     0.49518   0.49800   0.61558   0.00000  Uiso   1.00
C1192  C     0.47969   0.50022   0.88148   0.00000  Uiso   1.00
C1193  C     0.48817   0.49231   0.52249   0.00000  Uiso   1.00
C1194  C     0.48300   0.49454   0.97424   0.00000  Uiso   1.00
C1195  C     0.62352   0.50307   0.73690   0.00000  Uiso   1.00
C1196  C     0.37471   0.49619   0.75409   0.00000  Uiso   1.00
H1197  H     0.55102   0.52087   0.52499   0.00000  Uiso   1.00
H1198  H     0.46644   0.42401   0.96310   0.00000  Uiso   1.00
H1199  H     0.48737   0.56668   0.97739   0.00000  Uiso   1.00
H1200  H     0.42449   0.46914   0.52844   0.00000  Uiso   1.00
N1201  N     0.50000   0.61907   0.75000   0.00000  Uiso   1.00
N1202  N     0.50000   0.38093   0.75000   0.00000  Uiso   1.00
O1203  O     0.43892   0.53821   0.75000   0.00000  Uiso   1.00
O1204  O     0.56108   0.46179   0.75001   0.00000  Uiso   1.00
O1205  O     0.56108   0.53821   0.75001   0.00000  Uiso   1.00
O1206  O     0.43892   0.46179   0.75000   0.00000  Uiso   1.00
O1207  O     0.50000   0.53822   0.68453   0.00000  Uiso   1.00
O1208  O     0.50000   0.46178   0.81547   0.00000  Uiso   1.00
O1209  O     0.50000   0.53822   0.81547   0.00000  Uiso   1.00
O1210  O     0.50000   0.46178   0.68453   0.00000  Uiso   1.00
Zn1211 Zn    0.50000   0.55104   0.75000   0.00000  Uiso   1.00
Zn1212 Zn    0.50000   0.44896   0.75000   0.00000  Uiso   1.00
C1213  C     0.55312   0.38769   0.81311   0.00000  Uiso   1.00
O1214  O     0.54373   0.40101   0.85025   0.00000  Uiso   1.00
O1215  O     0.59403   0.39433   0.80083   0.00000  Uiso   1.00
H1216  H     0.61241   0.41259   0.82448   0.00000  Uiso   1.00
C1217  C     0.45412   0.61360   0.68022   0.00000  Uiso   1.00
O1218  O     0.46754   0.60800   0.64295   0.00000  Uiso   1.00
O1219  O     0.41393   0.59733   0.68833   0.00000  Uiso   1.00
H1220  H     0.39953   0.57995   0.66129   0.00000  Uiso   1.00
C1221  C     0.46550   0.37575   0.67397   0.00000  Uiso   1.00
O1222  O     0.43755   0.40122   0.67571   0.00000  Uiso   1.00
O1223  O     0.48331   0.36690   0.63309   0.00000  Uiso   1.00
H1224  H     0.47016   0.38361   0.60731   0.00000  Uiso   1.00
C1225  C     0.54665   0.62541   0.82124   0.00000  Uiso   1.00
O1226  O     0.56556   0.59199   0.81469   0.00000  Uiso   1.00
O1227  O     0.55035   0.64633   0.86422   0.00000  Uiso   1.00
H1228  H     0.56932   0.63053   0.88620   0.00000  Uiso   1.00
C1229  C     0.56838   0.53531   0.61445   0.00000  Uiso   1.00
H1230  H     0.58173   0.51374   0.64041   0.00000  Uiso   1.00
H1231  H     0.59254   0.54267   0.59022   0.00000  Uiso   1.00
H1232  H     0.56091   0.56759   0.63096   0.00000  Uiso   1.00
C1233  C     0.44863   0.41810   0.87426   0.00000  Uiso   1.00
H1234  H     0.43756   0.42635   0.83972   0.00000  Uiso   1.00
H1235  H     0.47037   0.39067   0.87308   0.00000  Uiso   1.00
H1236  H     0.42054   0.40542   0.89081   0.00000  Uiso   1.00
C1237  C     0.47171   0.58626   0.89286   0.00000  Uiso   1.00
H1238  H     0.46553   0.58837   0.85616   0.00000  Uiso   1.00
H1239  H     0.44325   0.59744   0.90815   0.00000  Uiso   1.00
H1240  H     0.49745   0.61037   0.90518   0.00000  Uiso   1.00
C1241  C     0.41675   0.47629   0.61672   0.00000  Uiso   1.00
H1242  H     0.40347   0.44148   0.60927   0.00000  Uiso   1.00
H1243  H     0.42086   0.48237   0.65372   0.00000  Uiso   1.00
H1244  H     0.39380   0.49993   0.60393   0.00000  Uiso   1.00
C1245  C     0.36700   0.41285   0.73130   0.00000  Uiso   1.00
O1246  O     0.36130   0.39058   0.69587   0.00000  Uiso   1.00
O1247  O     0.38732   0.39472   0.76868   0.00000  Uiso   1.00
H1248  H     0.39794   0.36415   0.76134   0.00000  Uiso   1.00
C1249  C     0.63285   0.58776   0.74868   0.00000  Uiso   1.00
O1250  O     0.64069   0.61616   0.77917   0.00000  Uiso   1.00
O1251  O     0.60943   0.59860   0.70986   0.00000  Uiso   1.00
H1252  H     0.59966   0.63029   0.71170   0.00000  Uiso   1.00
C1253  C     0.61537   0.42563   0.69894   0.00000  Uiso   1.00
O1254  O     0.61438   0.38731   0.71231   0.00000  Uiso   1.00
O1255  O     0.59078   0.43535   0.66065   0.00000  Uiso   1.00
H1256  H     0.57380   0.40802   0.64700   0.00000  Uiso   1.00
C1257  C     0.37882   0.57001   0.79802   0.00000  Uiso   1.00
O1258  O     0.38612   0.56044   0.83722   0.00000  Uiso   1.00
O1259  O     0.39248   0.61187   0.78307   0.00000  Uiso   1.00
H1260  H     0.40831   0.63125   0.80785   0.00000  Uiso   1.00
C1261  C     0.75314   0.49869   0.75217   0.00000  Uiso   1.00
C1262  C     0.91284   0.50104   0.74501   0.00000  Uiso   1.00
C1263  C     0.83267   0.49938   0.66397   0.00000  Uiso   1.00
C1264  C     0.82663   0.50028   0.83503   0.00000  Uiso   1.00
C1265  C     0.85595   0.36027   0.78287   0.00000  Uiso   1.00
C1266  C     0.81275   0.64019   0.71588   0.00000  Uiso   1.00
C1267  C     0.81431   0.35464   0.71500   0.00000  Uiso   1.00
C1268  C     0.85546   0.64557   0.78365   0.00000  Uiso   1.00
C1269  C     0.68353   0.45811   0.73562   0.00000  Uiso   1.00
C1270  C     0.98180   0.54172   0.75185   0.00000  Uiso   1.00
C1271  C     0.97465   0.46263   0.72434   0.00000  Uiso   1.00
C1272  C     0.68955   0.53620   0.76629   0.00000  Uiso   1.00
C1273  C     0.85883   0.50920   0.54453   0.00000  Uiso   1.00
C1274  C     0.80565   0.45592   0.94757   0.00000  Uiso   1.00
C1275  C     0.81773   0.53657   0.95552   0.00000  Uiso   1.00
C1276  C     0.78726   0.47962   0.54638   0.00000  Uiso   1.00
C1277  C     0.86261   0.51284   0.59132   0.00000  Uiso   1.00
C1278  C     0.80186   0.45862   0.90094   0.00000  Uiso   1.00
C1279  C     0.81361   0.54018   0.90909   0.00000  Uiso   1.00
C1280  C     0.78990   0.48361   0.59310   0.00000  Uiso   1.00
C1281  C     0.82852   0.49800   0.61558   0.00000  Uiso   1.00
C1282  C     0.81303   0.50022   0.88148   0.00000  Uiso   1.00
C1283  C     0.82151   0.49231   0.52249   0.00000  Uiso   1.00
C1284  C     0.81633   0.49454   0.97424   0.00000  Uiso   1.00
C1285  C     0.95686   0.50307   0.73690   0.00000  Uiso   1.00
C1286  C     0.70804   0.49619   0.75409   0.00000  Uiso   1.00
H1287  H     0.88436   0.52087   0.52499   0.00000  Uiso   1.00
H1288  H     0.79978   0.42401   0.96310   0.00000  Uiso   1.00
H1289  H     0.82070   0.56668   0.97739   0.00000  Uiso   1.00
H1290  H     0.75782   0.46914   0.52844   0.00000  Uiso   1.00
N1291  N     0.83333   0.61907   0.75000   0.00000  Uiso   1.00
N1292  N     0.83333   0.38093   0.75000   0.00000  Uiso   1.00
O1293  O     0.77226   0.53821   0.75000   0.00000  Uiso   1.00
O1294  O     0.89441   0.46179   0.75001   0.00000  Uiso   1.00
O1295  O     0.89441   0.53821   0.75001   0.00000  Uiso   1.00
O1296  O     0.77226   0.46179   0.75000   0.00000  Uiso   1.00
O1297  O     0.83333   0.53822   0.68453   0.00000  Uiso   1.00
O1298  O     0.83334   0.46178   0.81547   0.00000  Uiso   1.00
O1299  O     0.83334   0.53822   0.81547   0.00000  Uiso   1.00
O1300  O     0.83333   0.46178   0.68453   0.00000  Uiso   1.00
Zn1301 Zn    0.83333   0.55104   0.75000   0.00000  Uiso   1.00
Zn1302 Zn    0.83333   0.44896   0.75000   0.00000  Uiso   1.00
C1303  C     0.88645   0.38769   0.81311   0.00000  Uiso   1.00
O1304  O     0.87707   0.40101   0.85025   0.00000  Uiso   1.00
O1305  O     0.92737   0.39433   0.80083   0.00000  Uiso   1.00
H1306  H     0.94575   0.41259   0.82448   0.00000  Uiso   1.00
C1307  C     0.78745   0.61360   0.68022   0.00000  Uiso   1.00
O1308  O     0.80087   0.60800   0.64295   0.00000  Uiso   1.00
O1309  O     0.74726   0.59733   0.68833   0.00000  Uiso   1.00
H1310  H     0.73286   0.57995   0.66129   0.00000  Uiso   1.00
C1311  C     0.79884   0.37575   0.67397   0.00000  Uiso   1.00
O1312  O     0.77088   0.40122   0.67571   0.00000  Uiso   1.00
O1313  O     0.81664   0.36690   0.63309   0.00000  Uiso   1.00
H1314  H     0.80350   0.38361   0.60731   0.00000  Uiso   1.00
C1315  C     0.87999   0.62541   0.82124   0.00000  Uiso   1.00
O1316  O     0.89890   0.59199   0.81469   0.00000  Uiso   1.00
O1317  O     0.88369   0.64633   0.86422   0.00000  Uiso   1.00
H1318  H     0.90265   0.63053   0.88620   0.00000  Uiso   1.00
C1319  C     0.90171   0.53531   0.61445   0.00000  Uiso   1.00
H1320  H     0.91506   0.51374   0.64041   0.00000  Uiso   1.00
H1321  H     0.92587   0.54267   0.59022   0.00000  Uiso   1.00
H1322  H     0.89424   0.56759   0.63096   0.00000  Uiso   1.00
C1323  C     0.78196   0.41810   0.87426   0.00000  Uiso   1.00
H1324  H     0.77089   0.42635   0.83972   0.00000  Uiso   1.00
H1325  H     0.80370   0.39067   0.87308   0.00000  Uiso   1.00
H1326  H     0.75388   0.40542   0.89081   0.00000  Uiso   1.00
C1327  C     0.80504   0.58626   0.89286   0.00000  Uiso   1.00
H1328  H     0.79886   0.58837   0.85616   0.00000  Uiso   1.00
H1329  H     0.77659   0.59744   0.90815   0.00000  Uiso   1.00
H1330  H     0.83078   0.61037   0.90518   0.00000  Uiso   1.00
C1331  C     0.75008   0.47629   0.61672   0.00000  Uiso   1.00
H1332  H     0.73681   0.44148   0.60927   0.00000  Uiso   1.00
H1333  H     0.75419   0.48237   0.65372   0.00000  Uiso   1.00
H1334  H     0.72714   0.49993   0.60393   0.00000  Uiso   1.00
C1335  C     0.70034   0.41285   0.73130   0.00000  Uiso   1.00
O1336  O     0.69463   0.39058   0.69587   0.00000  Uiso   1.00
O1337  O     0.72066   0.39472   0.76868   0.00000  Uiso   1.00
H1338  H     0.73127   0.36415   0.76134   0.00000  Uiso   1.00
C1339  C     0.96619   0.58776   0.74868   0.00000  Uiso   1.00
O1340  O     0.97402   0.61616   0.77917   0.00000  Uiso   1.00
O1341  O     0.94276   0.59860   0.70986   0.00000  Uiso   1.00
H1342  H     0.93300   0.63029   0.71170   0.00000  Uiso   1.00
C1343  C     0.94871   0.42563   0.69894   0.00000  Uiso   1.00
O1344  O     0.94771   0.38731   0.71231   0.00000  Uiso   1.00
O1345  O     0.92412   0.43535   0.66065   0.00000  Uiso   1.00
H1346  H     0.90714   0.40802   0.64700   0.00000  Uiso   1.00
C1347  C     0.71215   0.57001   0.79802   0.00000  Uiso   1.00
O1348  O     0.71946   0.56044   0.83722   0.00000  Uiso   1.00
O1349  O     0.72581   0.61187   0.78307   0.00000  Uiso   1.00
H1350  H     0.74164   0.63125   0.80785   0.00000  Uiso   1.00
C1351  C     0.08647   0.83202   0.75217   0.00000  Uiso   1.00
C1352  C     0.24617   0.83437   0.74501   0.00000  Uiso   1.00
C1353  C     0.16600   0.83271   0.66397   0.00000  Uiso   1.00
C1354  C     0.15997   0.83362   0.83503   0.00000  Uiso   1.00
C1355  C     0.18929   0.69360   0.78287   0.00000  Uiso   1.00
C1356  C     0.14608   0.97353   0.71588   0.00000  Uiso   1.00
C1357  C     0.14764   0.68797   0.71500   0.00000  Uiso   1.00
C1358  C     0.18880   0.97890   0.78365   0.00000  Uiso   1.00
C1359  C     0.01687   0.79144   0.73562   0.00000  Uiso   1.00
C1360  C     0.31513   0.87506   0.75185   0.00000  Uiso   1.00
C1361  C     0.30798   0.79596   0.72434   0.00000  Uiso   1.00
C1362  C     0.02288   0.86953   0.76629   0.00000  Uiso   1.00
C1363  C     0.19217   0.84253   0.54453   0.00000  Uiso   1.00
C1364  C     0.13898   0.78926   0.94757   0.00000  Uiso   1.00
C1365  C     0.15106   0.86991   0.95552   0.00000  Uiso   1.00
C1366  C     0.12060   0.81296   0.54638   0.00000  Uiso   1.00
C1367  C     0.19594   0.84618   0.59132   0.00000  Uiso   1.00
C1368  C     0.13520   0.79196   0.90094   0.00000  Uiso   1.00
C1369  C     0.14695   0.87351   0.90909   0.00000  Uiso   1.00
C1370  C     0.12323   0.81694   0.59310   0.00000  Uiso   1.00
C1371  C     0.16185   0.83133   0.61558   0.00000  Uiso   1.00
C1372  C     0.14636   0.83355   0.88148   0.00000  Uiso   1.00
C1373  C     0.15484   0.82564   0.52249   0.00000  Uiso   1.00
C1374  C     0.14967   0.82787   0.97424   0.00000  Uiso   1.00
C1375  C     0.29019   0.83641   0.73690   0.00000  Uiso   1.00
C1376  C     0.04137   0.82952   0.75409   0.00000  Uiso   1.00
H1377  H     0.21769   0.85420   0.52499   0.00000  Uiso   1.00
H1378  H     0.13311   0.75734   0.96310   0.00000  Uiso   1.00
H1379  H     0.15404   0.90002   0.97739   0.00000  Uiso   1.00
H1380  H     0.09115   0.80247   0.52844   0.00000  Uiso   1.00
N1381  N     0.16667   0.95240   0.75000   0.00000  Uiso   1.00
N1382  N     0.16667   0.71427   0.75000   0.00000  Uiso   1.00
O1383  O     0.10559   0.87154   0.75000   0.00000  Uiso   1.00
O1384  O     0.22774   0.79513   0.75001   0.00000  Uiso   1.00
O1385  O     0.22774   0.87154   0.75001   0.00000  Uiso   1.00
O1386  O     0.10559   0.79513   0.75000   0.00000  Uiso   1.00
O1387  O     0.16666   0.87155   0.68453   0.00000  Uiso   1.00
O1388  O     0.16667   0.79511   0.81547   0.00000  Uiso   1.00
O1389  O     0.16667   0.87155   0.81547   0.00000  Uiso   1.00
O1390  O     0.16666   0.79511   0.68453   0.00000  Uiso   1.00
Zn1391 Zn    0.16667   0.88437   0.75000   0.00000  Uiso   1.00
Zn1392 Zn    0.16667   0.78229   0.75000   0.00000  Uiso   1.00
C1393  C     0.21979   0.72102   0.81311   0.00000  Uiso   1.00
O1394  O     0.21040   0.73435   0.85025   0.00000  Uiso   1.00
O1395  O     0.26070   0.72767   0.80083   0.00000  Uiso   1.00
H1396  H     0.27908   0.74592   0.82448   0.00000  Uiso   1.00
C1397  C     0.12078   0.94693   0.68022   0.00000  Uiso   1.00
O1398  O     0.13420   0.94133   0.64295   0.00000  Uiso   1.00
O1399  O     0.08059   0.93067   0.68833   0.00000  Uiso   1.00
H1400  H     0.06620   0.91328   0.66129   0.00000  Uiso   1.00
C1401  C     0.13217   0.70908   0.67397   0.00000  Uiso   1.00
O1402  O     0.10422   0.73455   0.67571   0.00000  Uiso   1.00
O1403  O     0.14998   0.70023   0.63309   0.00000  Uiso   1.00
H1404  H     0.13683   0.71695   0.60731   0.00000  Uiso   1.00
C1405  C     0.21332   0.95874   0.82124   0.00000  Uiso   1.00
O1406  O     0.23223   0.92532   0.81469   0.00000  Uiso   1.00
O1407  O     0.21702   0.97966   0.86422   0.00000  Uiso   1.00
H1408  H     0.23598   0.96387   0.88620   0.00000  Uiso   1.00
C1409  C     0.23505   0.86864   0.61445   0.00000  Uiso   1.00
H1410  H     0.24840   0.84707   0.64041   0.00000  Uiso   1.00
H1411  H     0.25920   0.87600   0.59022   0.00000  Uiso   1.00
H1412  H     0.22757   0.90092   0.63096   0.00000  Uiso   1.00
C1413  C     0.11530   0.75143   0.87426   0.00000  Uiso   1.00
H1414  H     0.10422   0.75968   0.83972   0.00000  Uiso   1.00
H1415  H     0.13703   0.72401   0.87308   0.00000  Uiso   1.00
H1416  H     0.08721   0.73876   0.89081   0.00000  Uiso   1.00
C1417  C     0.13837   0.91959   0.89286   0.00000  Uiso   1.00
H1418  H     0.13220   0.92170   0.85616   0.00000  Uiso   1.00
H1419  H     0.10992   0.93078   0.90815   0.00000  Uiso   1.00
H1420  H     0.16412   0.94370   0.90518   0.00000  Uiso   1.00
C1421  C     0.08342   0.80962   0.61672   0.00000  Uiso   1.00
H1422  H     0.07014   0.77481   0.60927   0.00000  Uiso   1.00
H1423  H     0.08753   0.81570   0.65372   0.00000  Uiso   1.00
H1424  H     0.06047   0.83327   0.60393   0.00000  Uiso   1.00
C1425  C     0.03367   0.74619   0.73130   0.00000  Uiso   1.00
O1426  O     0.02796   0.72392   0.69587   0.00000  Uiso   1.00
O1427  O     0.05399   0.72805   0.76868   0.00000  Uiso   1.00
H1428  H     0.06460   0.69749   0.76134   0.00000  Uiso   1.00
C1429  C     0.29952   0.92110   0.74868   0.00000  Uiso   1.00
O1430  O     0.30736   0.94950   0.77917   0.00000  Uiso   1.00
O1431  O     0.27610   0.93194   0.70986   0.00000  Uiso   1.00
H1432  H     0.26633   0.96362   0.71170   0.00000  Uiso   1.00
C1433  C     0.28204   0.75896   0.69894   0.00000  Uiso   1.00
O1434  O     0.28104   0.72064   0.71231   0.00000  Uiso   1.00
O1435  O     0.25745   0.76869   0.66065   0.00000  Uiso   1.00
H1436  H     0.24047   0.74135   0.64700   0.00000  Uiso   1.00
C1437  C     0.04549   0.90334   0.79802   0.00000  Uiso   1.00
O1438  O     0.05279   0.89377   0.83722   0.00000  Uiso   1.00
O1439  O     0.05914   0.94520   0.78307   0.00000  Uiso   1.00
H1440  H     0.07498   0.96458   0.80785   0.00000  Uiso   1.00
C1441  C     0.41981   0.83202   0.75217   0.00000  Uiso   1.00
C1442  C     0.57950   0.83437   0.74501   0.00000  Uiso   1.00
C1443  C     0.49933   0.83271   0.66397   0.00000  Uiso   1.00
C1444  C     0.49330   0.83362   0.83503   0.00000  Uiso   1.00
C1445  C     0.52262   0.69360   0.78287   0.00000  Uiso   1.00
C1446  C     0.47941   0.97353   0.71588   0.00000  Uiso   1.00
C1447  C     0.48097   0.68797   0.71500   0.00000  Uiso   1.00
C1448  C     0.52213   0.97890   0.78365   0.00000  Uiso   1.00
C1449  C     0.35020   0.79144   0.73562   0.00000  Uiso   1.00
C1450  C     0.64846   0.87506   0.75185   0.00000  Uiso   1.00
C1451  C     0.64131   0.79596   0.72434   0.00000  Uiso   1.00
C1452  C     0.35622   0.86953   0.76629   0.00000  Uiso   1.00
C1453  C     0.52550   0.84253   0.54453   0.00000  Uiso   1.00
C1454  C     0.47231   0.78926   0.94757   0.00000  Uiso   1.00
C1455  C     0.48439   0.86991   0.95552   0.00000  Uiso   1.00
C1456  C     0.45393   0.81296   0.54638   0.00000  Uiso   1.00
C1457  C     0.52928   0.84618   0.59132   0.00000  Uiso   1.00
C1458  C     0.46853   0.79196   0.90094   0.00000  Uiso   1.00
C1459  C     0.48028   0.87351   0.90909   0.00000  Uiso   1.00
C1460  C     0.45657   0.81694   0.59310   0.00000  Uiso   1.00
C1461  C     0.49518   0.83133   0.61558   0.00000  Uiso   1.00
C1462  C     0.47969   0.83355   0.88148   0.00000  Uiso   1.00
C1463  C     0.48817   0.82564   0.52249   0.00000  Uiso   1.00
C1464  C     0.48300   0.82787   0.97424   0.00000  Uiso   1.00
C1465  C     0.62352   0.83641   0.73690   0.00000  Uiso   1.00
C1466  C     0.37471   0.82952   0.75409   0.00000  Uiso   1.00
H1467  H     0.55102   0.85420   0.52499   0.00000  Uiso   1.00
H1468  H     0.46644   0.75734   0.96310   0.00000  Uiso   1.00
H1469  H     0.48737   0.90002   0.97739   0.00000  Uiso   1.00
H1470  H     0.42449   0.80247   0.52844   0.00000  Uiso   1.00
N1471  N     0.50000   0.95240   0.75000   0.00000  Uiso   1.00
N1472  N     0.50000   0.71427   0.75000   0.00000  Uiso   1.00
O1473  O     0.43892   0.87154   0.75000   0.00000  Uiso   1.00
O1474  O     0.56108   0.79513   0.75001   0.00000  Uiso   1.00
O1475  O     0.56108   0.87154   0.75001   0.00000  Uiso   1.00
O1476  O     0.43892   0.79513   0.75000   0.00000  Uiso   1.00
O1477  O     0.50000   0.87155   0.68453   0.00000  Uiso   1.00
O1478  O     0.50000   0.79511   0.81547   0.00000  Uiso   1.00
O1479  O     0.50000   0.87155   0.81547   0.00000  Uiso   1.00
O1480  O     0.50000   0.79511   0.68453   0.00000  Uiso   1.00
Zn1481 Zn    0.50000   0.88437   0.75000   0.00000  Uiso   1.00
Zn1482 Zn    0.50000   0.78229   0.75000   0.00000  Uiso   1.00
C1483  C     0.55312   0.72102   0.81311   0.00000  Uiso   1.00
O1484  O     0.54373   0.73435   0.85025   0.00000  Uiso   1.00
O1485  O     0.59403   0.72767   0.80083   0.00000  Uiso   1.00
H1486  H     0.61241   0.74592   0.82448   0.00000  Uiso   1.00
C1487  C     0.45412   0.94693   0.68022   0.00000  Uiso   1.00
O1488  O     0.46754   0.94133   0.64295   0.00000  Uiso   1.00
O1489  O     0.41393   0.93067   0.68833   0.00000  Uiso   1.00
H1490  H     0.39953   0.91328   0.66129   0.00000  Uiso   1.00
C1491  C     0.46550   0.70908   0.67397   0.00000  Uiso   1.00
O1492  O     0.43755   0.73455   0.67571   0.00000  Uiso   1.00
O1493  O     0.48331   0.70023   0.63309   0.00000  Uiso   1.00
H1494  H     0.47016   0.71695   0.60731   0.00000  Uiso   1.00
C1495  C     0.54665   0.95874   0.82124   0.00000  Uiso   1.00
O1496  O     0.56556   0.92532   0.81469   0.00000  Uiso   1.00
O1497  O     0.55035   0.97966   0.86422   0.00000  Uiso   1.00
H1498  H     0.56932   0.96387   0.88620   0.00000  Uiso   1.00
C1499  C     0.56838   0.86864   0.61445   0.00000  Uiso   1.00
H1500  H     0.58173   0.84707   0.64041   0.00000  Uiso   1.00
H1501  H     0.59254   0.87600   0.59022   0.00000  Uiso   1.00
H1502  H     0.56091   0.90092   0.63096   0.00000  Uiso   1.00
C1503  C     0.44863   0.75143   0.87426   0.00000  Uiso   1.00
H1504  H     0.43756   0.75968   0.83972   0.00000  Uiso   1.00
H1505  H     0.47037   0.72401   0.87308   0.00000  Uiso   1.00
H1506  H     0.42054   0.73876   0.89081   0.00000  Uiso   1.00
C1507  C     0.47171   0.91959   0.89286   0.00000  Uiso   1.00
H1508  H     0.46553   0.92170   0.85616   0.00000  Uiso   1.00
H1509  H     0.44325   0.93078   0.90815   0.00000  Uiso   1.00
H1510  H     0.49745   0.94370   0.90518   0.00000  Uiso   1.00
C1511  C     0.41675   0.80962   0.61672   0.00000  Uiso   1.00
H1512  H     0.40347   0.77481   0.60927   0.00000  Uiso   1.00
H1513  H     0.42086   0.81570   0.65372   0.00000  Uiso   1.00
H1514  H     0.39380   0.83327   0.60393   0.00000  Uiso   1.00
C1515  C     0.36700   0.74619   0.73130   0.00000  Uiso   1.00
O1516  O     0.36130   0.72392   0.69587   0.00000  Uiso   1.00
O1517  O     0.38732   0.72805   0.76868   0.00000  Uiso   1.00
H1518  H     0.39794   0.69749   0.76134   0.00000  Uiso   1.00
C1519  C     0.63285   0.92110   0.74868   0.00000  Uiso   1.00
O1520  O     0.64069   0.94950   0.77917   0.00000  Uiso   1.00
O1521  O     0.60943   0.93194   0.70986   0.00000  Uiso   1.00
H1522  H     0.59966   0.96362   0.71170   0.00000  Uiso   1.00
C1523  C     0.61537   0.75896   0.69894   0.00000  Uiso   1.00
O1524  O     0.61438   0.72064   0.71231   0.00000  Uiso   1.00
O1525  O     0.59078   0.76869   0.66065   0.00000  Uiso   1.00
H1526  H     0.57380   0.74135   0.64700   0.00000  Uiso   1.00
C1527  C     0.37882   0.90334   0.79802   0.00000  Uiso   1.00
O1528  O     0.38612   0.89377   0.83722   0.00000  Uiso   1.00
O1529  O     0.39248   0.94520   0.78307   0.00000  Uiso   1.00
H1530  H     0.40831   0.96458   0.80785   0.00000  Uiso   1.00
C1531  C     0.75314   0.83202   0.75217   0.00000  Uiso   1.00
C1532  C     0.91284   0.83437   0.74501   0.00000  Uiso   1.00
C1533  C     0.83267   0.83271   0.66397   0.00000  Uiso   1.00
C1534  C     0.82663   0.83362   0.83503   0.00000  Uiso   1.00
C1535  C     0.85595   0.69360   0.78287   0.00000  Uiso   1.00
C1536  C     0.81275   0.97353   0.71588   0.00000  Uiso   1.00
C1537  C     0.81431   0.68797   0.71500   0.00000  Uiso   1.00
C1538  C     0.85546   0.97890   0.78365   0.00000  Uiso   1.00
C1539  C     0.68353   0.79144   0.73562   0.00000  Uiso   1.00
C1540  C     0.98180   0.87506   0.75185   0.00000  Uiso   1.00
C1541  C     0.97465   0.79596   0.72434   0.00000  Uiso   1.00
C1542  C     0.68955   0.86953   0.76629   0.00000  Uiso   1.00
C1543  C     0.85883   0.84253   0.54453   0.00000  Uiso   1.00
C1544  C     0.80565   0.78926   0.94757   0.00000  Uiso   1.00
C1545  C     0.81773   0.86991   0.95552   0.00000  Uiso   1.00
C1546  C     0.78726   0.81296   0.54638   0.00000  Uiso   1.00
C1547  C     0.86261   0.84618   0.59132   0.00000  Uiso   1.00
C1548  C     0.80186   0.79196   0.90094   0.00000  Uiso   1.00
C1549  C     0.81361   0.87351   0.90909   0.00000  Uiso   1.00
C1550  C     0.78990   0.81694   0.59310   0.00000  Uiso   1.00
C1551  C     0.82852   0.83133   0.61558   0.00000  Uiso   1.00
C1552  C     0.81303   0.83355   0.88148   0.00000  Uiso   1.00
C1553  C     0.82151   0.82564   0.52249   0.00000  Uiso   1.00
C1554  C     0.81633   0.82787   0.97424   0.00000  Uiso   1.00
C1555  C     0.95686   0.83641   0.73690   0.00000  Uiso   1.00
C1556  C     0.70804   0.82952   0.75409   0.00000  Uiso   1.00
H1557  H     0.88436   0.85420   0.52499   0.00000  Uiso   1.00
H1558  H     0.79978   0.75734   0.96310   0.00000  Uiso   1.00
H1559  H     0.82070   0.90002   0.97739   0.00000  Uiso   1.00
H1560  H     0.75782   0.80247   0.52844   0.00000  Uiso   1.00
N1561  N     0.83333   0.95240   0.75000   0.00000  Uiso   1.00
N1562  N     0.83333   0.71427   0.75000   0.00000  Uiso   1.00
O1563  O     0.77226   0.87154   0.75000   0.00000  Uiso   1.00
O1564  O     0.89441   0.79513   0.75001   0.00000  Uiso   1.00
O1565  O     0.89441   0.87154   0.75001   0.00000  Uiso   1.00
O1566  O     0.77226   0.79513   0.75000   0.00000  Uiso   1.00
O1567  O     0.83333   0.87155   0.68453   0.00000  Uiso   1.00
O1568  O     0.83334   0.79511   0.81547   0.00000  Uiso   1.00
O1569  O     0.83334   0.87155   0.81547   0.00000  Uiso   1.00
O1570  O     0.83333   0.79511   0.68453   0.00000  Uiso   1.00
Zn1571 Zn    0.83333   0.88437   0.75000   0.00000  Uiso   1.00
Zn1572 Zn    0.83333   0.78229   0.75000   0.00000  Uiso   1.00
C1573  C     0.88645   0.72102   0.81311   0.00000  Uiso   1.00
O1574  O     0.87707   0.73435   0.85025   0.00000  Uiso   1.00
O1575  O     0.92737   0.72767   0.80083   0.00000  Uiso   1.00
H1576  H     0.94575   0.74592   0.82448   0.00000  Uiso   1.00
C1577  C     0.78745   0.94693   0.68022   0.00000  Uiso   1.00
O1578  O     0.80087   0.94133   0.64295   0.00000  Uiso   1.00
O1579  O     0.74726   0.93067   0.68833   0.00000  Uiso   1.00
H1580  H     0.73286   0.91328   0.66129   0.00000  Uiso   1.00
C1581  C     0.79884   0.70908   0.67397   0.00000  Uiso   1.00
O1582  O     0.77088   0.73455   0.67571   0.00000  Uiso   1.00
O1583  O     0.81664   0.70023   0.63309   0.00000  Uiso   1.00
H1584  H     0.80350   0.71695   0.60731   0.00000  Uiso   1.00
C1585  C     0.87999   0.95874   0.82124   0.00000  Uiso   1.00
O1586  O     0.89890   0.92532   0.81469   0.00000  Uiso   1.00
O1587  O     0.88369   0.97966   0.86422   0.00000  Uiso   1.00
H1588  H     0.90265   0.96387   0.88620   0.00000  Uiso   1.00
C1589  C     0.90171   0.86864   0.61445   0.00000  Uiso   1.00
H1590  H     0.91506   0.84707   0.64041   0.00000  Uiso   1.00
H1591  H     0.92587   0.87600   0.59022   0.00000  Uiso   1.00
H1592  H     0.89424   0.90092   0.63096   0.00000  Uiso   1.00
C1593  C     0.78196   0.75143   0.87426   0.00000  Uiso   1.00
H1594  H     0.77089   0.75968   0.83972   0.00000  Uiso   1.00
H1595  H     0.80370   0.72401   0.87308   0.00000  Uiso   1.00
H1596  H     0.75388   0.73876   0.89081   0.00000  Uiso   1.00
C1597  C     0.80504   0.91959   0.89286   0.00000  Uiso   1.00
H1598  H     0.79886   0.92170   0.85616   0.00000  Uiso   1.00
H1599  H     0.77659   0.93078   0.90815   0.00000  Uiso   1.00
H1600  H     0.83078   0.94370   0.90518   0.00000  Uiso   1.00
C1601  C     0.75008   0.80962   0.61672   0.00000  Uiso   1.00
H1602  H     0.73681   0.77481   0.60927   0.00000  Uiso   1.00
H1603  H     0.75419   0.81570   0.65372   0.00000  Uiso   1.00
H1604  H     0.72714   0.83327   0.60393   0.00000  Uiso   1.00
C1605  C     0.70034   0.74619   0.73130   0.00000  Uiso   1.00
O1606  O     0.69463   0.72392   0.69587   0.00000  Uiso   1.00
O1607  O     0.72066   0.72805   0.76868   0.00000  Uiso   1.00
H1608  H     0.73127   0.69749   0.76134   0.00000  Uiso   1.00
C1609  C     0.96619   0.92110   0.74868   0.00000  Uiso   1.00
O1610  O     0.97402   0.94950   0.77917   0.00000  Uiso   1.00
O1611  O     0.94276   0.93194   0.70986   0.00000  Uiso   1.00
H1612  H     0.93300   0.96362   0.71170   0.00000  Uiso   1.00
C1613  C     0.94871   0.75896   0.69894   0.00000  Uiso   1.00
O1614  O     0.94771   0.72064   0.71231   0.00000  Uiso   1.00
O1615  O     0.92412   0.76869   0.66065   0.00000  Uiso   1.00
H1616  H     0.90714   0.74135   0.64700   0.00000  Uiso   1.00
C1617  C     0.71215   0.90334   0.79802   0.00000  Uiso   1.00
O1618  O     0.71946   0.89377   0.83722   0.00000  Uiso   1.00
O1619  O     0.72581   0.94520   0.78307   0.00000  Uiso   1.00
H1620  H     0.74164   0.96458   0.80785   0.00000  Uiso   1.00
loop_
_geom_bond_atom_site_label_1
_geom_bond_atom_site_label_2
_geom_bond_distance
_geom_bond_site_symmetry_2
_ccdc_geom_bond_type
C1     O33     1.304   .     A
C1     C26     1.457   .     S
C1     O36     1.293   .     A
C2     O35     1.295   .     A
C2     O34     1.300   .     A
C2     C25     1.453   .     S
C3     O40     1.297   .     A
C3     C21     1.436   .     S
C3     O37     1.288   .     A
C4     C22     1.474   .     S
C4     O39     1.304   .     A
C4     O38     1.303   .     A
C5     N32     1.369   .     A
C5     C43     1.481   .     S
C5     C548    1.432   1_545 S
C6     N31     1.371   .     A
C6     C47     1.476   .     S
C6     C277    1.424   .     S
C7     N32     1.372   .     A
C7     C51     1.466   .     S
C7     C546    1.424   1_545 S
C8     C55     1.494   .     S
C8     N31     1.388   .     A
C8     C275    1.432   .     S
C9     C26     1.420   .     A
C9     C75     1.486   .     S
C9     C191    1.398   1_455 S
C10    C25     1.410   .     A
C10    C79     1.493   .     S
C10    C102    1.389   .     S
C11    C25     1.412   .     A
C11    C83     1.499   .     S
C11    C99     1.398   .     S
C12    C26     1.409   .     A
C12    C87     1.484   .     S
C12    C190    1.389   1_455 S
C13    C23     1.395   .     A
C13    C17     1.389   .     A
C13    H27     1.085   .     S
C14    H28     1.085   .     S
C14    C18     1.390   .     A
C14    C24     1.389   .     A
C15    C19     1.387   .     A
C15    H29     1.086   .     S
C15    C24     1.389   .     A
C16    H30     1.085   .     S
C16    C20     1.387   .     A
C16    C23     1.391   .     A
C17    C21     1.410   .     A
C17    C59     1.510   .     S
C18    C63     1.511   .     S
C18    C22     1.424   .     A
C19    C67     1.507   .     S
C19    C22     1.421   .     A
C20    C71     1.509   .     S
C20    C21     1.414   .     A
C23    C834    1.438   1_554 S
C24    C833    1.438   .     S
N31    Zn41    2.028   .     S
N32    Zn42    2.028   .     S
O33    Zn41    1.986   .     S
O34    Zn42    1.986   .     S
O35    Zn41    2.028   .     S
O36    Zn42    2.028   .     S
O37    Zn41    1.970   .     S
O38    Zn42    1.970   .     S
O39    Zn41    1.997   .     S
O40    Zn42    1.997   .     S
C43    O44     1.221   .     D
C43    O45     1.396   .     S
O45    H46     1.014   .     S
C47    O49     1.396   .     S
C47    O48     1.223   .     D
O49    H50     1.014   .     S
C51    O52     1.213   .     D
C51    O53     1.398   .     S
O53    H54     1.014   .     S
C55    O56     1.213   .     D
C55    O57     1.397   .     S
O57    H58     1.014   .     S
C59    H60     1.105   .     S
C59    H61     1.111   .     S
C59    H62     1.110   .     S
C63    H65     1.108   .     S
C63    H66     1.111   .     S
C63    H64     1.107   .     S
C67    H68     1.102   .     S
C67    H69     1.111   .     S
C67    H70     1.103   .     S
C71    H74     1.111   .     S
C71    H73     1.107   .     S
C71    H72     1.110   .     S
C75    O76     1.223   .     D
C75    O77     1.397   .     S
O77    H78     1.013   .     S
C79    O80     1.223   .     D
C79    O81     1.399   .     S
O81    H82     1.013   .     S
C83    O84     1.222   .     D
C83    O85     1.396   .     S
O85    H86     1.014   .     S
C87    O88     1.222   .     D
C87    O89     1.397   .     S
O89    H90     1.014   .     S
C91    O123    1.304   .     A
C91    C116    1.457   .     S
C91    O126    1.293   .     A
C92    O125    1.295   .     A
C92    O124    1.300   .     A
C92    C115    1.453   .     S
C93    O130    1.297   .     A
C93    C111    1.436   .     S
C93    O127    1.288   .     A
C94    C112    1.474   .     S
C94    O129    1.304   .     A
C94    O128    1.303   .     A
C95    N122    1.369   .     A
C95    C133    1.481   .     S
C95    C638    1.432   1_545 S
C96    N121    1.371   .     A
C96    C137    1.476   .     S
C96    C367    1.424   .     S
C97    N122    1.372   .     A
C97    C141    1.466   .     S
C97    C636    1.424   1_545 S
C98    C145    1.494   .     S
C98    N121    1.388   .     A
C98    C365    1.432   .     S
C99    C116    1.420   .     A
C99    C165    1.486   .     S
C100   C115    1.410   .     A
C100   C169    1.493   .     S
C100   C192    1.389   .     S
C101   C115    1.412   .     A
C101   C173    1.499   .     S
C101   C189    1.398   .     S
C102   C116    1.409   .     A
C102   C177    1.484   .     S
C103   C113    1.395   .     A
C103   C107    1.389   .     A
C103   H117    1.085   .     S
C104   H118    1.085   .     S
C104   C108    1.390   .     A
C104   C114    1.389   .     A
C105   C109    1.387   .     A
C105   H119    1.086   .     S
C105   C114    1.389   .     A
C106   H120    1.085   .     S
C106   C110    1.387   .     A
C106   C113    1.391   .     A
C107   C111    1.410   .     A
C107   C149    1.510   .     S
C108   C153    1.511   .     S
C108   C112    1.424   .     A
C109   C157    1.507   .     S
C109   C112    1.421   .     A
C110   C161    1.509   .     S
C110   C111    1.414   .     A
C113   C924    1.438   1_554 S
C114   C923    1.438   .     S
N121   Zn131   2.028   .     S
N122   Zn132   2.028   .     S
O123   Zn131   1.986   .     S
O124   Zn132   1.986   .     S
O125   Zn131   2.028   .     S
O126   Zn132   2.028   .     S
O127   Zn131   1.970   .     S
O128   Zn132   1.970   .     S
O129   Zn131   1.997   .     S
O130   Zn132   1.997   .     S
C133   O134    1.221   .     D
C133   O135    1.396   .     S
O135   H136    1.014   .     S
C137   O139    1.396   .     S
C137   O138    1.223   .     D
O139   H140    1.014   .     S
C141   O142    1.213   .     D
C141   O143    1.398   .     S
O143   H144    1.014   .     S
C145   O146    1.213   .     D
C145   O147    1.397   .     S
O147   H148    1.014   .     S
C149   H150    1.105   .     S
C149   H151    1.111   .     S
C149   H152    1.110   .     S
C153   H155    1.108   .     S
C153   H156    1.111   .     S
C153   H154    1.107   .     S
C157   H158    1.102   .     S
C157   H159    1.111   .     S
C157   H160    1.103   .     S
C161   H164    1.111   .     S
C161   H163    1.107   .     S
C161   H162    1.110   .     S
C165   O166    1.223   .     D
C165   O167    1.397   .     S
O167   H168    1.013   .     S
C169   O170    1.223   .     D
C169   O171    1.399   .     S
O171   H172    1.013   .     S
C173   O174    1.222   .     D
C173   O175    1.396   .     S
O175   H176    1.014   .     S
C177   O178    1.222   .     D
C177   O179    1.397   .     S
O179   H180    1.014   .     S
C181   O213    1.304   .     A
C181   C206    1.457   .     S
C181   O216    1.293   .     A
C182   O215    1.295   .     A
C182   O214    1.300   .     A
C182   C205    1.453   .     S
C183   O220    1.297   .     A
C183   C201    1.436   .     S
C183   O217    1.288   .     A
C184   C202    1.474   .     S
C184   O219    1.304   .     A
C184   O218    1.303   .     A
C185   N212    1.369   .     A
C185   C223    1.481   .     S
C185   C728    1.432   1_545 S
C186   N211    1.371   .     A
C186   C227    1.476   .     S
C186   C457    1.424   .     S
C187   N212    1.372   .     A
C187   C231    1.466   .     S
C187   C726    1.424   1_545 S
C188   C235    1.494   .     S
C188   N211    1.388   .     A
C188   C455    1.432   .     S
C189   C206    1.420   .     A
C189   C255    1.486   .     S
C190   C205    1.410   .     A
C190   C259    1.493   .     S
C190   C12     1.389   1_655 S
C191   C205    1.412   .     A
C191   C263    1.499   .     S
C191   C9      1.398   1_655 S
C192   C206    1.409   .     A
C192   C267    1.484   .     S
C193   C203    1.395   .     A
C193   C197    1.389   .     A
C193   H207    1.085   .     S
C194   H208    1.085   .     S
C194   C198    1.390   .     A
C194   C204    1.389   .     A
C195   C199    1.387   .     A
C195   H209    1.086   .     S
C195   C204    1.389   .     A
C196   H210    1.085   .     S
C196   C200    1.387   .     A
C196   C203    1.391   .     A
C197   C201    1.410   .     A
C197   C239    1.510   .     S
C198   C243    1.511   .     S
C198   C202    1.424   .     A
C199   C247    1.507   .     S
C199   C202    1.421   .     A
C200   C251    1.509   .     S
C200   C201    1.414   .     A
C203   C1014   1.438   1_554 S
C204   C1013   1.438   .     S
N211   Zn221   2.028   .     S
N212   Zn222   2.028   .     S
O213   Zn221   1.986   .     S
O214   Zn222   1.986   .     S
O215   Zn221   2.028   .     S
O216   Zn222   2.028   .     S
O217   Zn221   1.970   .     S
O218   Zn222   1.970   .     S
O219   Zn221   1.997   .     S
O220   Zn222   1.997   .     S
C223   O224    1.221   .     D
C223   O225    1.396   .     S
O225   H226    1.014   .     S
C227   O229    1.396   .     S
C227   O228    1.223   .     D
O229   H230    1.014   .     S
C231   O232    1.213   .     D
C231   O233    1.398   .     S
O233   H234    1.014   .     S
C235   O236    1.213   .     D
C235   O237    1.397   .     S
O237   H238    1.014   .     S
C239   H240    1.105   .     S
C239   H241    1.111   .     S
C239   H242    1.110   .     S
C243   H245    1.108   .     S
C243   H246    1.111   .     S
C243   H244    1.107   .     S
C247   H248    1.102   .     S
C247   H249    1.111   .     S
C247   H250    1.103   .     S
C251   H254    1.111   .     S
C251   H253    1.107   .     S
C251   H252    1.110   .     S
C255   O256    1.223   .     D
C255   O257    1.397   .     S
O257   H258    1.013   .     S
C259   O260    1.223   .     D
C259   O261    1.399   .     S
O261   H262    1.013   .     S
C263   O264    1.222   .     D
C263   O265    1.396   .     S
O265   H266    1.014   .     S
C267   O268    1.222   .     D
C267   O269    1.397   .     S
O269   H270    1.014   .     S
C271   O303    1.304   .     A
C271   C296    1.457   .     S
C271   O306    1.293   .     A
C272   O305    1.295   .     A
C272   O304    1.300   .     A
C272   C295    1.453   .     S
C273   O310    1.297   .     A
C273   C291    1.436   .     S
C273   O307    1.288   .     A
C274   C292    1.474   .     S
C274   O309    1.304   .     A
C274   O308    1.303   .     A
C275   N302    1.369   .     A
C275   C313    1.481   .     S
C276   N301    1.371   .     A
C276   C317    1.476   .     S
C276   C547    1.424   .     S
C277   N302    1.372   .     A
C277   C321    1.466   .     S
C278   C325    1.494   .     S
C278   N301    1.388   .     A
C278   C545    1.432   .     S
C279   C296    1.420   .     A
C279   C345    1.486   .     S
C279   C461    1.398   1_455 S
C280   C295    1.410   .     A
C280   C349    1.493   .     S
C280   C372    1.389   .     S
C281   C295    1.412   .     A
C281   C353    1.499   .     S
C281   C369    1.398   .     S
C282   C296    1.409   .     A
C282   C357    1.484   .     S
C282   C460    1.389   1_455 S
C283   C293    1.395   .     A
C283   C287    1.389   .     A
C283   H297    1.085   .     S
C284   H298    1.085   .     S
C284   C288    1.390   .     A
C284   C294    1.389   .     A
C285   C289    1.387   .     A
C285   H299    1.086   .     S
C285   C294    1.389   .     A
C286   H300    1.085   .     S
C286   C290    1.387   .     A
C286   C293    1.391   .     A
C287   C291    1.410   .     A
C287   C329    1.510   .     S
C288   C333    1.511   .     S
C288   C292    1.424   .     A
C289   C337    1.507   .     S
C289   C292    1.421   .     A
C290   C341    1.509   .     S
C290   C291    1.414   .     A
C293   C1104   1.438   1_554 S
C294   C1103   1.438   .     S
N301   Zn311   2.028   .     S
N302   Zn312   2.028   .     S
O303   Zn311   1.986   .     S
O304   Zn312   1.986   .     S
O305   Zn311   2.028   .     S
O306   Zn312   2.028   .     S
O307   Zn311   1.970   .     S
O308   Zn312   1.970   .     S
O309   Zn311   1.997   .     S
O310   Zn312   1.997   .     S
C313   O314    1.221   .     D
C313   O315    1.396   .     S
O315   H316    1.014   .     S
C317   O319    1.396   .     S
C317   O318    1.223   .     D
O319   H320    1.014   .     S
C321   O322    1.213   .     D
C321   O323    1.398   .     S
O323   H324    1.014   .     S
C325   O326    1.213   .     D
C325   O327    1.397   .     S
O327   H328    1.014   .     S
C329   H330    1.105   .     S
C329   H331    1.111   .     S
C329   H332    1.110   .     S
C333   H335    1.108   .     S
C333   H336    1.111   .     S
C333   H334    1.107   .     S
C337   H338    1.102   .     S
C337   H339    1.111   .     S
C337   H340    1.103   .     S
C341   H344    1.111   .     S
C341   H343    1.107   .     S
C341   H342    1.110   .     S
C345   O346    1.223   .     D
C345   O347    1.397   .     S
O347   H348    1.013   .     S
C349   O350    1.223   .     D
C349   O351    1.399   .     S
O351   H352    1.013   .     S
C353   O354    1.222   .     D
C353   O355    1.396   .     S
O355   H356    1.014   .     S
C357   O358    1.222   .     D
C357   O359    1.397   .     S
O359   H360    1.014   .     S
C361   O393    1.304   .     A
C361   C386    1.457   .     S
C361   O396    1.293   .     A
C362   O395    1.295   .     A
C362   O394    1.300   .     A
C362   C385    1.453   .     S
C363   O400    1.297   .     A
C363   C381    1.436   .     S
C363   O397    1.288   .     A
C364   C382    1.474   .     S
C364   O399    1.304   .     A
C364   O398    1.303   .     A
C365   N392    1.369   .     A
C365   C403    1.481   .     S
C366   N391    1.371   .     A
C366   C407    1.476   .     S
C366   C637    1.424   .     S
C367   N392    1.372   .     A
C367   C411    1.466   .     S
C368   C415    1.494   .     S
C368   N391    1.388   .     A
C368   C635    1.432   .     S
C369   C386    1.420   .     A
C369   C435    1.486   .     S
C370   C385    1.410   .     A
C370   C439    1.493   .     S
C370   C462    1.389   .     S
C371   C385    1.412   .     A
C371   C443    1.499   .     S
C371   C459    1.398   .     S
C372   C386    1.409   .     A
C372   C447    1.484   .     S
C373   C383    1.395   .     A
C373   C377    1.389   .     A
C373   H387    1.085   .     S
C374   H388    1.085   .     S
C374   C378    1.390   .     A
C374   C384    1.389   .     A
C375   C379    1.387   .     A
C375   H389    1.086   .     S
C375   C384    1.389   .     A
C376   H390    1.085   .     S
C376   C380    1.387   .     A
C376   C383    1.391   .     A
C377   C381    1.410   .     A
C377   C419    1.510   .     S
C378   C423    1.511   .     S
C378   C382    1.424   .     A
C379   C427    1.507   .     S
C379   C382    1.421   .     A
C380   C431    1.509   .     S
C380   C381    1.414   .     A
C383   C1194   1.438   1_554 S
C384   C1193   1.438   .     S
N391   Zn401   2.028   .     S
N392   Zn402   2.028   .     S
O393   Zn401   1.986   .     S
O394   Zn402   1.986   .     S
O395   Zn401   2.028   .     S
O396   Zn402   2.028   .     S
O397   Zn401   1.970   .     S
O398   Zn402   1.970   .     S
O399   Zn401   1.997   .     S
O400   Zn402   1.997   .     S
C403   O404    1.221   .     D
C403   O405    1.396   .     S
O405   H406    1.014   .     S
C407   O409    1.396   .     S
C407   O408    1.223   .     D
O409   H410    1.014   .     S
C411   O412    1.213   .     D
C411   O413    1.398   .     S
O413   H414    1.014   .     S
C415   O416    1.213   .     D
C415   O417    1.397   .     S
O417   H418    1.014   .     S
C419   H420    1.105   .     S
C419   H421    1.111   .     S
C419   H422    1.110   .     S
C423   H425    1.108   .     S
C423   H426    1.111   .     S
C423   H424    1.107   .     S
C427   H428    1.102   .     S
C427   H429    1.111   .     S
C427   H430    1.103   .     S
C431   H434    1.111   .     S
C431   H433    1.107   .     S
C431   H432    1.110   .     S
C435   O436    1.223   .     D
C435   O437    1.397   .     S
O437   H438    1.013   .     S
C439   O440    1.223   .     D
C439   O441    1.399   .     S
O441   H442    1.013   .     S
C443   O444    1.222   .     D
C443   O445    1.396   .     S
O445   H446    1.014   .     S
C447   O448    1.222   .     D
C447   O449    1.397   .     S
O449   H450    1.014   .     S
C451   O483    1.304   .     A
C451   C476    1.457   .     S
C451   O486    1.293   .     A
C452   O485    1.295   .     A
C452   O484    1.300   .     A
C452   C475    1.453   .     S
C453   O490    1.297   .     A
C453   C471    1.436   .     S
C453   O487    1.288   .     A
C454   C472    1.474   .     S
C454   O489    1.304   .     A
C454   O488    1.303   .     A
C455   N482    1.369   .     A
C455   C493    1.481   .     S
C456   N481    1.371   .     A
C456   C497    1.476   .     S
C456   C727    1.424   .     S
C457   N482    1.372   .     A
C457   C501    1.466   .     S
C458   C505    1.494   .     S
C458   N481    1.388   .     A
C458   C725    1.432   .     S
C459   C476    1.420   .     A
C459   C525    1.486   .     S
C460   C475    1.410   .     A
C460   C529    1.493   .     S
C460   C282    1.389   1_655 S
C461   C475    1.412   .     A
C461   C533    1.499   .     S
C461   C279    1.398   1_655 S
C462   C476    1.409   .     A
C462   C537    1.484   .     S
C463   C473    1.395   .     A
C463   C467    1.389   .     A
C463   H477    1.085   .     S
C464   H478    1.085   .     S
C464   C468    1.390   .     A
C464   C474    1.389   .     A
C465   C469    1.387   .     A
C465   H479    1.086   .     S
C465   C474    1.389   .     A
C466   H480    1.085   .     S
C466   C470    1.387   .     A
C466   C473    1.391   .     A
C467   C471    1.410   .     A
C467   C509    1.510   .     S
C468   C513    1.511   .     S
C468   C472    1.424   .     A
C469   C517    1.507   .     S
C469   C472    1.421   .     A
C470   C521    1.509   .     S
C470   C471    1.414   .     A
C473   C1284   1.438   1_554 S
C474   C1283   1.438   .     S
N481   Zn491   2.028   .     S
N482   Zn492   2.028   .     S
O483   Zn491   1.986   .     S
O484   Zn492   1.986   .     S
O485   Zn491   2.028   .     S
O486   Zn492   2.028   .     S
O487   Zn491   1.970   .     S
O488   Zn492   1.970   .     S
O489   Zn491   1.997   .     S
O490   Zn492   1.997   .     S
C493   O494    1.221   .     D
C493   O495    1.396   .     S
O495   H496    1.014   .     S
C497   O499    1.396   .     S
C497   O498    1.223   .     D
O499   H500    1.014   .     S
C501   O502    1.213   .     D
C501   O503    1.398   .     S
O503   H504    1.014   .     S
C505   O506    1.213   .     D
C505   O507    1.397   .     S
O507   H508    1.014   .     S
C509   H510    1.105   .     S
C509   H511    1.111   .     S
C509   H512    1.110   .     S
C513   H515    1.108   .     S
C513   H516    1.111   .     S
C513   H514    1.107   .     S
C517   H518    1.102   .     S
C517   H519    1.111   .     S
C517   H520    1.103   .     S
C521   H524    1.111   .     S
C521   H523    1.107   .     S
C521   H522    1.110   .     S
C525   O526    1.223   .     D
C525   O527    1.397   .     S
O527   H528    1.013   .     S
C529   O530    1.223   .     D
C529   O531    1.399   .     S
O531   H532    1.013   .     S
C533   O534    1.222   .     D
C533   O535    1.396   .     S
O535   H536    1.014   .     S
C537   O538    1.222   .     D
C537   O539    1.397   .     S
O539   H540    1.014   .     S
C541   O573    1.304   .     A
C541   C566    1.457   .     S
C541   O576    1.293   .     A
C542   O575    1.295   .     A
C542   O574    1.300   .     A
C542   C565    1.453   .     S
C543   O580    1.297   .     A
C543   C561    1.436   .     S
C543   O577    1.288   .     A
C544   C562    1.474   .     S
C544   O579    1.304   .     A
C544   O578    1.303   .     A
C545   N572    1.369   .     A
C545   C583    1.481   .     S
C546   N571    1.371   .     A
C546   C587    1.476   .     S
C546   C7      1.424   1_565 S
C547   N572    1.372   .     A
C547   C591    1.466   .     S
C548   C595    1.494   .     S
C548   N571    1.388   .     A
C548   C5      1.432   1_565 S
C549   C566    1.420   .     A
C549   C615    1.486   .     S
C549   C731    1.398   1_455 S
C550   C565    1.410   .     A
C550   C619    1.493   .     S
C550   C642    1.389   .     S
C551   C565    1.412   .     A
C551   C623    1.499   .     S
C551   C639    1.398   .     S
C552   C566    1.409   .     A
C552   C627    1.484   .     S
C552   C730    1.389   1_455 S
C553   C563    1.395   .     A
C553   C557    1.389   .     A
C553   H567    1.085   .     S
C554   H568    1.085   .     S
C554   C558    1.390   .     A
C554   C564    1.389   .     A
C555   C559    1.387   .     A
C555   H569    1.086   .     S
C555   C564    1.389   .     A
C556   H570    1.085   .     S
C556   C560    1.387   .     A
C556   C563    1.391   .     A
C557   C561    1.410   .     A
C557   C599    1.510   .     S
C558   C603    1.511   .     S
C558   C562    1.424   .     A
C559   C607    1.507   .     S
C559   C562    1.421   .     A
C560   C611    1.509   .     S
C560   C561    1.414   .     A
C563   C1374   1.438   1_554 S
C564   C1373   1.438   .     S
N571   Zn581   2.028   .     S
N572   Zn582   2.028   .     S
O573   Zn581   1.986   .     S
O574   Zn582   1.986   .     S
O575   Zn581   2.028   .     S
O576   Zn582   2.028   .     S
O577   Zn581   1.970   .     S
O578   Zn582   1.970   .     S
O579   Zn581   1.997   .     S
O580   Zn582   1.997   .     S
C583   O584    1.221   .     D
C583   O585    1.396   .     S
O585   H586    1.014   .     S
C587   O589    1.396   .     S
C587   O588    1.223   .     D
O589   H590    1.014   .     S
C591   O592    1.213   .     D
C591   O593    1.398   .     S
O593   H594    1.014   .     S
C595   O596    1.213   .     D
C595   O597    1.397   .     S
O597   H598    1.014   .     S
C599   H600    1.105   .     S
C599   H601    1.111   .     S
C599   H602    1.110   .     S
C603   H605    1.108   .     S
C603   H606    1.111   .     S
C603   H604    1.107   .     S
C607   H608    1.102   .     S
C607   H609    1.111   .     S
C607   H610    1.103   .     S
C611   H614    1.111   .     S
C611   H613    1.107   .     S
C611   H612    1.110   .     S
C615   O616    1.223   .     D
C615   O617    1.397   .     S
O617   H618    1.013   .     S
C619   O620    1.223   .     D
C619   O621    1.399   .     S
O621   H622    1.013   .     S
C623   O624    1.222   .     D
C623   O625    1.396   .     S
O625   H626    1.014   .     S
C627   O628    1.222   .     D
C627   O629    1.397   .     S
O629   H630    1.014   .     S
C631   O663    1.304   .     A
C631   C656    1.457   .     S
C631   O666    1.293   .     A
C632   O665    1.295   .     A
C632   O664    1.300   .     A
C632   C655    1.453   .     S
C633   O670    1.297   .     A
C633   C651    1.436   .     S
C633   O667    1.288   .     A
C634   C652    1.474   .     S
C634   O669    1.304   .     A
C634   O668    1.303   .     A
C635   N662    1.369   .     A
C635   C673    1.481   .     S
C636   N661    1.371   .     A
C636   C677    1.476   .     S
C636   C97     1.424   1_565 S
C637   N662    1.372   .     A
C637   C681    1.466   .     S
C638   C685    1.494   .     S
C638   N661    1.388   .     A
C638   C95     1.432   1_565 S
C639   C656    1.420   .     A
C639   C705    1.486   .     S
C640   C655    1.410   .     A
C640   C709    1.493   .     S
C640   C732    1.389   .     S
C641   C655    1.412   .     A
C641   C713    1.499   .     S
C641   C729    1.398   .     S
C642   C656    1.409   .     A
C642   C717    1.484   .     S
C643   C653    1.395   .     A
C643   C647    1.389   .     A
C643   H657    1.085   .     S
C644   H658    1.085   .     S
C644   C648    1.390   .     A
C644   C654    1.389   .     A
C645   C649    1.387   .     A
C645   H659    1.086   .     S
C645   C654    1.389   .     A
C646   H660    1.085   .     S
C646   C650    1.387   .     A
C646   C653    1.391   .     A
C647   C651    1.410   .     A
C647   C689    1.510   .     S
C648   C693    1.511   .     S
C648   C652    1.424   .     A
C649   C697    1.507   .     S
C649   C652    1.421   .     A
C650   C701    1.509   .     S
C650   C651    1.414   .     A
C653   C1464   1.438   1_554 S
C654   C1463   1.438   .     S
N661   Zn671   2.028   .     S
N662   Zn672   2.028   .     S
O663   Zn671   1.986   .     S
O664   Zn672   1.986   .     S
O665   Zn671   2.028   .     S
O666   Zn672   2.028   .     S
O667   Zn671   1.970   .     S
O668   Zn672   1.970   .     S
O669   Zn671   1.997   .     S
O670   Zn672   1.997   .     S
C673   O674    1.221   .     D
C673   O675    1.396   .     S
O675   H676    1.014   .     S
C677   O679    1.396   .     S
C677   O678    1.223   .     D
O679   H680    1.014   .     S
C681   O682    1.213   .     D
C681   O683    1.398   .     S
O683   H684    1.014   .     S
C685   O686    1.213   .     D
C685   O687    1.397   .     S
O687   H688    1.014   .     S
C689   H690    1.105   .     S
C689   H691    1.111   .     S
C689   H692    1.110   .     S
C693   H695    1.108   .     S
C693   H696    1.111   .     S
C693   H694    1.107   .     S
C697   H698    1.102   .     S
C697   H699    1.111   .     S
C697   H700    1.103   .     S
C701   H704    1.111   .     S
C701   H703    1.107   .     S
C701   H702    1.110   .     S
C705   O706    1.223   .     D
C705   O707    1.397   .     S
O707   H708    1.013   .     S
C709   O710    1.223   .     D
C709   O711    1.399   .     S
O711   H712    1.013   .     S
C713   O714    1.222   .     D
C713   O715    1.396   .     S
O715   H716    1.014   .     S
C717   O718    1.222   .     D
C717   O719    1.397   .     S
O719   H720    1.014   .     S
C721   O753    1.304   .     A
C721   C746    1.457   .     S
C721   O756    1.293   .     A
C722   O755    1.295   .     A
C722   O754    1.300   .     A
C722   C745    1.453   .     S
C723   O760    1.297   .     A
C723   C741    1.436   .     S
C723   O757    1.288   .     A
C724   C742    1.474   .     S
C724   O759    1.304   .     A
C724   O758    1.303   .     A
C725   N752    1.369   .     A
C725   C763    1.481   .     S
C726   N751    1.371   .     A
C726   C767    1.476   .     S
C726   C187    1.424   1_565 S
C727   N752    1.372   .     A
C727   C771    1.466   .     S
C728   C775    1.494   .     S
C728   N751    1.388   .     A
C728   C185    1.432   1_565 S
C729   C746    1.420   .     A
C729   C795    1.486   .     S
C730   C745    1.410   .     A
C730   C799    1.493   .     S
C730   C552    1.389   1_655 S
C731   C745    1.412   .     A
C731   C803    1.499   .     S
C731   C549    1.398   1_655 S
C732   C746    1.409   .     A
C732   C807    1.484   .     S
C733   C743    1.395   .     A
C733   C737    1.389   .     A
C733   H747    1.085   .     S
C734   H748    1.085   .     S
C734   C738    1.390   .     A
C734   C744    1.389   .     A
C735   C739    1.387   .     A
C735   H749    1.086   .     S
C735   C744    1.389   .     A
C736   H750    1.085   .     S
C736   C740    1.387   .     A
C736   C743    1.391   .     A
C737   C741    1.410   .     A
C737   C779    1.510   .     S
C738   C783    1.511   .     S
C738   C742    1.424   .     A
C739   C787    1.507   .     S
C739   C742    1.421   .     A
C740   C791    1.509   .     S
C740   C741    1.414   .     A
C743   C1554   1.438   1_554 S
C744   C1553   1.438   .     S
N751   Zn761   2.028   .     S
N752   Zn762   2.028   .     S
O753   Zn761   1.986   .     S
O754   Zn762   1.986   .     S
O755   Zn761   2.028   .     S
O756   Zn762   2.028   .     S
O757   Zn761   1.970   .     S
O758   Zn762   1.970   .     S
O759   Zn761   1.997   .     S
O760   Zn762   1.997   .     S
C763   O764    1.221   .     D
C763   O765    1.396   .     S
O765   H766    1.014   .     S
C767   O769    1.396   .     S
C767   O768    1.223   .     D
O769   H770    1.014   .     S
C771   O772    1.213   .     D
C771   O773    1.398   .     S
O773   H774    1.014   .     S
C775   O776    1.213   .     D
C775   O777    1.397   .     S
O777   H778    1.014   .     S
C779   H780    1.105   .     S
C779   H781    1.111   .     S
C779   H782    1.110   .     S
C783   H785    1.108   .     S
C783   H786    1.111   .     S
C783   H784    1.107   .     S
C787   H788    1.102   .     S
C787   H789    1.111   .     S
C787   H790    1.103   .     S
C791   H794    1.111   .     S
C791   H793    1.107   .     S
C791   H792    1.110   .     S
C795   O796    1.223   .     D
C795   O797    1.397   .     S
O797   H798    1.013   .     S
C799   O800    1.223   .     D
C799   O801    1.399   .     S
O801   H802    1.013   .     S
C803   O804    1.222   .     D
C803   O805    1.396   .     S
O805   H806    1.014   .     S
C807   O808    1.222   .     D
C807   O809    1.397   .     S
O809   H810    1.014   .     S
C811   O843    1.304   .     A
C811   C836    1.457   .     S
C811   O846    1.293   .     A
C812   O845    1.295   .     A
C812   O844    1.300   .     A
C812   C835    1.453   .     S
C813   O850    1.297   .     A
C813   C831    1.436   .     S
C813   O847    1.288   .     A
C814   C832    1.474   .     S
C814   O849    1.304   .     A
C814   O848    1.303   .     A
C815   N842    1.369   .     A
C815   C853    1.481   .     S
C815   C1358   1.432   1_545 S
C816   N841    1.371   .     A
C816   C857    1.476   .     S
C816   C1087   1.424   .     S
C817   N842    1.372   .     A
C817   C861    1.466   .     S
C817   C1356   1.424   1_545 S
C818   C865    1.494   .     S
C818   N841    1.388   .     A
C818   C1085   1.432   .     S
C819   C836    1.420   .     A
C819   C885    1.486   .     S
C819   C1001   1.398   1_455 S
C820   C835    1.410   .     A
C820   C889    1.493   .     S
C820   C912    1.389   .     S
C821   C835    1.412   .     A
C821   C893    1.499   .     S
C821   C909    1.398   .     S
C822   C836    1.409   .     A
C822   C897    1.484   .     S
C822   C1000   1.389   1_455 S
C823   C833    1.395   .     A
C823   C827    1.389   .     A
C823   H837    1.085   .     S
C824   H838    1.085   .     S
C824   C828    1.390   .     A
C824   C834    1.389   .     A
C825   C829    1.387   .     A
C825   H839    1.086   .     S
C825   C834    1.389   .     A
C826   H840    1.085   .     S
C826   C830    1.387   .     A
C826   C833    1.391   .     A
C827   C831    1.410   .     A
C827   C869    1.510   .     S
C828   C873    1.511   .     S
C828   C832    1.424   .     A
C829   C877    1.507   .     S
C829   C832    1.421   .     A
C830   C881    1.509   .     S
C830   C831    1.414   .     A
C834   C23     1.438   1_556 S
N841   Zn851   2.028   .     S
N842   Zn852   2.028   .     S
O843   Zn851   1.986   .     S
O844   Zn852   1.986   .     S
O845   Zn851   2.028   .     S
O846   Zn852   2.028   .     S
O847   Zn851   1.970   .     S
O848   Zn852   1.970   .     S
O849   Zn851   1.997   .     S
O850   Zn852   1.997   .     S
C853   O854    1.221   .     D
C853   O855    1.396   .     S
O855   H856    1.014   .     S
C857   O859    1.396   .     S
C857   O858    1.223   .     D
O859   H860    1.014   .     S
C861   O862    1.213   .     D
C861   O863    1.398   .     S
O863   H864    1.014   .     S
C865   O866    1.213   .     D
C865   O867    1.397   .     S
O867   H868    1.014   .     S
C869   H870    1.105   .     S
C869   H871    1.111   .     S
C869   H872    1.110   .     S
C873   H875    1.108   .     S
C873   H876    1.111   .     S
C873   H874    1.107   .     S
C877   H878    1.102   .     S
C877   H879    1.111   .     S
C877   H880    1.103   .     S
C881   H884    1.111   .     S
C881   H883    1.107   .     S
C881   H882    1.110   .     S
C885   O886    1.223   .     D
C885   O887    1.397   .     S
O887   H888    1.013   .     S
C889   O890    1.223   .     D
C889   O891    1.399   .     S
O891   H892    1.013   .     S
C893   O894    1.222   .     D
C893   O895    1.396   .     S
O895   H896    1.014   .     S
C897   O898    1.222   .     D
C897   O899    1.397   .     S
O899   H900    1.014   .     S
C901   O933    1.304   .     A
C901   C926    1.457   .     S
C901   O936    1.293   .     A
C902   O935    1.295   .     A
C902   O934    1.300   .     A
C902   C925    1.453   .     S
C903   O940    1.297   .     A
C903   C921    1.436   .     S
C903   O937    1.288   .     A
C904   C922    1.474   .     S
C904   O939    1.304   .     A
C904   O938    1.303   .     A
C905   N932    1.369   .     A
C905   C943    1.481   .     S
C905   C1448   1.432   1_545 S
C906   N931    1.371   .     A
C906   C947    1.476   .     S
C906   C1177   1.424   .     S
C907   N932    1.372   .     A
C907   C951    1.466   .     S
C907   C1446   1.424   1_545 S
C908   C955    1.494   .     S
C908   N931    1.388   .     A
C908   C1175   1.432   .     S
C909   C926    1.420   .     A
C909   C975    1.486   .     S
C910   C925    1.410   .     A
C910   C979    1.493   .     S
C910   C1002   1.389   .     S
C911   C925    1.412   .     A
C911   C983    1.499   .     S
C911   C999    1.398   .     S
C912   C926    1.409   .     A
C912   C987    1.484   .     S
C913   C923    1.395   .     A
C913   C917    1.389   .     A
C913   H927    1.085   .     S
C914   H928    1.085   .     S
C914   C918    1.390   .     A
C914   C924    1.389   .     A
C915   C919    1.387   .     A
C915   H929    1.086   .     S
C915   C924    1.389   .     A
C916   H930    1.085   .     S
C916   C920    1.387   .     A
C916   C923    1.391   .     A
C917   C921    1.410   .     A
C917   C959    1.510   .     S
C918   C963    1.511   .     S
C918   C922    1.424   .     A
C919   C967    1.507   .     S
C919   C922    1.421   .     A
C920   C971    1.509   .     S
C920   C921    1.414   .     A
C924   C113    1.438   1_556 S
N931   Zn941   2.028   .     S
N932   Zn942   2.028   .     S
O933   Zn941   1.986   .     S
O934   Zn942   1.986   .     S
O935   Zn941   2.028   .     S
O936   Zn942   2.028   .     S
O937   Zn941   1.970   .     S
O938   Zn942   1.970   .     S
O939   Zn941   1.997   .     S
O940   Zn942   1.997   .     S
C943   O944    1.221   .     D
C943   O945    1.396   .     S
O945   H946    1.014   .     S
C947   O949    1.396   .     S
C947   O948    1.223   .     D
O949   H950    1.014   .     S
C951   O952    1.213   .     D
C951   O953    1.398   .     S
O953   H954    1.014   .     S
C955   O956    1.213   .     D
C955   O957    1.397   .     S
O957   H958    1.014   .     S
C959   H960    1.105   .     S
C959   H961    1.111   .     S
C959   H962    1.110   .     S
C963   H965    1.108   .     S
C963   H966    1.111   .     S
C963   H964    1.107   .     S
C967   H968    1.102   .     S
C967   H969    1.111   .     S
C967   H970    1.103   .     S
C971   H974    1.111   .     S
C971   H973    1.107   .     S
C971   H972    1.110   .     S
C975   O976    1.223   .     D
C975   O977    1.397   .     S
O977   H978    1.013   .     S
C979   O980    1.223   .     D
C979   O981    1.399   .     S
O981   H982    1.013   .     S
C983   O984    1.222   .     D
C983   O985    1.396   .     S
O985   H986    1.014   .     S
C987   O988    1.222   .     D
C987   O989    1.397   .     S
O989   H990    1.014   .     S
C991   O1023   1.304   .     A
C991   C1016   1.457   .     S
C991   O1026   1.293   .     A
C992   O1025   1.295   .     A
C992   O1024   1.300   .     A
C992   C1015   1.453   .     S
C993   O1030   1.297   .     A
C993   C1011   1.436   .     S
C993   O1027   1.288   .     A
C994   C1012   1.474   .     S
C994   O1029   1.304   .     A
C994   O1028   1.303   .     A
C995   N1022   1.369   .     A
C995   C1033   1.481   .     S
C995   C1538   1.432   1_545 S
C996   N1021   1.371   .     A
C996   C1037   1.476   .     S
C996   C1267   1.424   .     S
C997   N1022   1.372   .     A
C997   C1041   1.466   .     S
C997   C1536   1.424   1_545 S
C998   C1045   1.494   .     S
C998   N1021   1.388   .     A
C998   C1265   1.432   .     S
C999   C1016   1.420   .     A
C999   C1065   1.486   .     S
C1000  C1015   1.410   .     A
C1000  C1069   1.493   .     S
C1000  C822    1.389   1_655 S
C1001  C1015   1.412   .     A
C1001  C1073   1.499   .     S
C1001  C819    1.398   1_655 S
C1002  C1016   1.409   .     A
C1002  C1077   1.484   .     S
C1003  C1013   1.395   .     A
C1003  C1007   1.389   .     A
C1003  H1017   1.085   .     S
C1004  H1018   1.085   .     S
C1004  C1008   1.390   .     A
C1004  C1014   1.389   .     A
C1005  C1009   1.387   .     A
C1005  H1019   1.086   .     S
C1005  C1014   1.389   .     A
C1006  H1020   1.085   .     S
C1006  C1010   1.387   .     A
C1006  C1013   1.391   .     A
C1007  C1011   1.410   .     A
C1007  C1049   1.510   .     S
C1008  C1053   1.511   .     S
C1008  C1012   1.424   .     A
C1009  C1057   1.507   .     S
C1009  C1012   1.421   .     A
C1010  C1061   1.509   .     S
C1010  C1011   1.414   .     A
C1014  C203    1.438   1_556 S
N1021  Zn1031  2.028   .     S
N1022  Zn1032  2.028   .     S
O1023  Zn1031  1.986   .     S
O1024  Zn1032  1.986   .     S
O1025  Zn1031  2.028   .     S
O1026  Zn1032  2.028   .     S
O1027  Zn1031  1.970   .     S
O1028  Zn1032  1.970   .     S
O1029  Zn1031  1.997   .     S
O1030  Zn1032  1.997   .     S
C1033  O1034   1.221   .     D
C1033  O1035   1.396   .     S
O1035  H1036   1.014   .     S
C1037  O1039   1.396   .     S
C1037  O1038   1.223   .     D
O1039  H1040   1.014   .     S
C1041  O1042   1.213   .     D
C1041  O1043   1.398   .     S
O1043  H1044   1.014   .     S
C1045  O1046   1.213   .     D
C1045  O1047   1.397   .     S
O1047  H1048   1.014   .     S
C1049  H1050   1.105   .     S
C1049  H1051   1.111   .     S
C1049  H1052   1.110   .     S
C1053  H1055   1.108   .     S
C1053  H1056   1.111   .     S
C1053  H1054   1.107   .     S
C1057  H1058   1.102   .     S
C1057  H1059   1.111   .     S
C1057  H1060   1.103   .     S
C1061  H1064   1.111   .     S
C1061  H1063   1.107   .     S
C1061  H1062   1.110   .     S
C1065  O1066   1.223   .     D
C1065  O1067   1.397   .     S
O1067  H1068   1.013   .     S
C1069  O1070   1.223   .     D
C1069  O1071   1.399   .     S
O1071  H1072   1.013   .     S
C1073  O1074   1.222   .     D
C1073  O1075   1.396   .     S
O1075  H1076   1.014   .     S
C1077  O1078   1.222   .     D
C1077  O1079   1.397   .     S
O1079  H1080   1.014   .     S
C1081  O1113   1.304   .     A
C1081  C1106   1.457   .     S
C1081  O1116   1.293   .     A
C1082  O1115   1.295   .     A
C1082  O1114   1.300   .     A
C1082  C1105   1.453   .     S
C1083  O1120   1.297   .     A
C1083  C1101   1.436   .     S
C1083  O1117   1.288   .     A
C1084  C1102   1.474   .     S
C1084  O1119   1.304   .     A
C1084  O1118   1.303   .     A
C1085  N1112   1.369   .     A
C1085  C1123   1.481   .     S
C1086  N1111   1.371   .     A
C1086  C1127   1.476   .     S
C1086  C1357   1.424   .     S
C1087  N1112   1.372   .     A
C1087  C1131   1.466   .     S
C1088  C1135   1.494   .     S
C1088  N1111   1.388   .     A
C1088  C1355   1.432   .     S
C1089  C1106   1.420   .     A
C1089  C1155   1.486   .     S
C1089  C1271   1.398   1_455 S
C1090  C1105   1.410   .     A
C1090  C1159   1.493   .     S
C1090  C1182   1.389   .     S
C1091  C1105   1.412   .     A
C1091  C1163   1.499   .     S
C1091  C1179   1.398   .     S
C1092  C1106   1.409   .     A
C1092  C1167   1.484   .     S
C1092  C1270   1.389   1_455 S
C1093  C1103   1.395   .     A
C1093  C1097   1.389   .     A
C1093  H1107   1.085   .     S
C1094  H1108   1.085   .     S
C1094  C1098   1.390   .     A
C1094  C1104   1.389   .     A
C1095  C1099   1.387   .     A
C1095  H1109   1.086   .     S
C1095  C1104   1.389   .     A
C1096  H1110   1.085   .     S
C1096  C1100   1.387   .     A
C1096  C1103   1.391   .     A
C1097  C1101   1.410   .     A
C1097  C1139   1.510   .     S
C1098  C1143   1.511   .     S
C1098  C1102   1.424   .     A
C1099  C1147   1.507   .     S
C1099  C1102   1.421   .     A
C1100  C1151   1.509   .     S
C1100  C1101   1.414   .     A
C1104  C293    1.438   1_556 S
N1111  Zn1121  2.028   .     S
N1112  Zn1122  2.028   .     S
O1113  Zn1121  1.986   .     S
O1114  Zn1122  1.986   .     S
O1115  Zn1121  2.028   .     S
O1116  Zn1122  2.028   .     S
O1117  Zn1121  1.970   .     S
O1118  Zn1122  1.970   .     S
O1119  Zn1121  1.997   .     S
O1120  Zn1122  1.997   .     S
C1123  O1124   1.221   .     D
C1123  O1125   1.396   .     S
O1125  H1126   1.014   .     S
C1127  O1129   1.396   .     S
C1127  O1128   1.223   .     D
O1129  H1130   1.014   .     S
C1131  O1132   1.213   .     D
C1131  O1133   1.398   .     S
O1133  H1134   1.014   .     S
C1135  O1136   1.213   .     D
C1135  O1137   1.397   .     S
O1137  H1138   1.014   .     S
C1139  H1140   1.105   .     S
C1139  H1141   1.111   .     S
C1139  H1142   1.110   .     S
C1143  H1145   1.108   .     S
C1143  H1146   1.111   .     S
C1143  H1144   1.107   .     S
C1147  H1148   1.102   .     S
C1147  H1149   1.111   .     S
C1147  H1150   1.103   .     S
C1151  H1154   1.111   .     S
C1151  H1153   1.107   .     S
C1151  H1152   1.110   .     S
C1155  O1156   1.223   .     D
C1155  O1157   1.397   .     S
O1157  H1158   1.013   .     S
C1159  O1160   1.223   .     D
C1159  O1161   1.399   .     S
O1161  H1162   1.013   .     S
C1163  O1164   1.222   .     D
C1163  O1165   1.396   .     S
O1165  H1166   1.014   .     S
C1167  O1168   1.222   .     D
C1167  O1169   1.397   .     S
O1169  H1170   1.014   .     S
C1171  O1203   1.304   .     A
C1171  C1196   1.457   .     S
C1171  O1206   1.293   .     A
C1172  O1205   1.295   .     A
C1172  O1204   1.300   .     A
C1172  C1195   1.453   .     S
C1173  O1210   1.297   .     A
C1173  C1191   1.436   .     S
C1173  O1207   1.288   .     A
C1174  C1192   1.474   .     S
C1174  O1209   1.304   .     A
C1174  O1208   1.303   .     A
C1175  N1202   1.369   .     A
C1175  C1213   1.481   .     S
C1176  N1201   1.371   .     A
C1176  C1217   1.476   .     S
C1176  C1447   1.424   .     S
C1177  N1202   1.372   .     A
C1177  C1221   1.466   .     S
C1178  C1225   1.494   .     S
C1178  N1201   1.388   .     A
C1178  C1445   1.432   .     S
C1179  C1196   1.420   .     A
C1179  C1245   1.486   .     S
C1180  C1195   1.410   .     A
C1180  C1249   1.493   .     S
C1180  C1272   1.389   .     S
C1181  C1195   1.412   .     A
C1181  C1253   1.499   .     S
C1181  C1269   1.398   .     S
C1182  C1196   1.409   .     A
C1182  C1257   1.484   .     S
C1183  C1193   1.395   .     A
C1183  C1187   1.389   .     A
C1183  H1197   1.085   .     S
C1184  H1198   1.085   .     S
C1184  C1188   1.390   .     A
C1184  C1194   1.389   .     A
C1185  C1189   1.387   .     A
C1185  H1199   1.086   .     S
C1185  C1194   1.389   .     A
C1186  H1200   1.085   .     S
C1186  C1190   1.387   .     A
C1186  C1193   1.391   .     A
C1187  C1191   1.410   .     A
C1187  C1229   1.510   .     S
C1188  C1233   1.511   .     S
C1188  C1192   1.424   .     A
C1189  C1237   1.507   .     S
C1189  C1192   1.421   .     A
C1190  C1241   1.509   .     S
C1190  C1191   1.414   .     A
C1194  C383    1.438   1_556 S
N1201  Zn1211  2.028   .     S
N1202  Zn1212  2.028   .     S
O1203  Zn1211  1.986   .     S
O1204  Zn1212  1.986   .     S
O1205  Zn1211  2.028   .     S
O1206  Zn1212  2.028   .     S
O1207  Zn1211  1.970   .     S
O1208  Zn1212  1.970   .     S
O1209  Zn1211  1.997   .     S
O1210  Zn1212  1.997   .     S
C1213  O1214   1.221   .     D
C1213  O1215   1.396   .     S
O1215  H1216   1.014   .     S
C1217  O1219   1.396   .     S
C1217  O1218   1.223   .     D
O1219  H1220   1.014   .     S
C1221  O1222   1.213   .     D
C1221  O1223   1.398   .     S
O1223  H1224   1.014   .     S
C1225  O1226   1.213   .     D
C1225  O1227   1.397   .     S
O1227  H1228   1.014   .     S
C1229  H1230   1.105   .     S
C1229  H1231   1.111   .     S
C1229  H1232   1.110   .     S
C1233  H1235   1.108   .     S
C1233  H1236   1.111   .     S
C1233  H1234   1.107   .     S
C1237  H1238   1.102   .     S
C1237  H1239   1.111   .     S
C1237  H1240   1.103   .     S
C1241  H1244   1.111   .     S
C1241  H1243   1.107   .     S
C1241  H1242   1.110   .     S
C1245  O1246   1.223   .     D
C1245  O1247   1.397   .     S
O1247  H1248   1.013   .     S
C1249  O1250   1.223   .     D
C1249  O1251   1.399   .     S
O1251  H1252   1.013   .     S
C1253  O1254   1.222   .     D
C1253  O1255   1.396   .     S
O1255  H1256   1.014   .     S
C1257  O1258   1.222   .     D
C1257  O1259   1.397   .     S
O1259  H1260   1.014   .     S
C1261  O1293   1.304   .     A
C1261  C1286   1.457   .     S
C1261  O1296   1.293   .     A
C1262  O1295   1.295   .     A
C1262  O1294   1.300   .     A
C1262  C1285   1.453   .     S
C1263  O1300   1.297   .     A
C1263  C1281   1.436   .     S
C1263  O1297   1.288   .     A
C1264  C1282   1.474   .     S
C1264  O1299   1.304   .     A
C1264  O1298   1.303   .     A
C1265  N1292   1.369   .     A
C1265  C1303   1.481   .     S
C1266  N1291   1.371   .     A
C1266  C1307   1.476   .     S
C1266  C1537   1.424   .     S
C1267  N1292   1.372   .     A
C1267  C1311   1.466   .     S
C1268  C1315   1.494   .     S
C1268  N1291   1.388   .     A
C1268  C1535   1.432   .     S
C1269  C1286   1.420   .     A
C1269  C1335   1.486   .     S
C1270  C1285   1.410   .     A
C1270  C1339   1.493   .     S
C1270  C1092   1.389   1_655 S
C1271  C1285   1.412   .     A
C1271  C1343   1.499   .     S
C1271  C1089   1.398   1_655 S
C1272  C1286   1.409   .     A
C1272  C1347   1.484   .     S
C1273  C1283   1.395   .     A
C1273  C1277   1.389   .     A
C1273  H1287   1.085   .     S
C1274  H1288   1.085   .     S
C1274  C1278   1.390   .     A
C1274  C1284   1.389   .     A
C1275  C1279   1.387   .     A
C1275  H1289   1.086   .     S
C1275  C1284   1.389   .     A
C1276  H1290   1.085   .     S
C1276  C1280   1.387   .     A
C1276  C1283   1.391   .     A
C1277  C1281   1.410   .     A
C1277  C1319   1.510   .     S
C1278  C1323   1.511   .     S
C1278  C1282   1.424   .     A
C1279  C1327   1.507   .     S
C1279  C1282   1.421   .     A
C1280  C1331   1.509   .     S
C1280  C1281   1.414   .     A
C1284  C473    1.438   1_556 S
N1291  Zn1301  2.028   .     S
N1292  Zn1302  2.028   .     S
O1293  Zn1301  1.986   .     S
O1294  Zn1302  1.986   .     S
O1295  Zn1301  2.028   .     S
O1296  Zn1302  2.028   .     S
O1297  Zn1301  1.970   .     S
O1298  Zn1302  1.970   .     S
O1299  Zn1301  1.997   .     S
O1300  Zn1302  1.997   .     S
C1303  O1304   1.221   .     D
C1303  O1305   1.396   .     S
O1305  H1306   1.014   .     S
C1307  O1309   1.396   .     S
C1307  O1308   1.223   .     D
O1309  H1310   1.014   .     S
C1311  O1312   1.213   .     D
C1311  O1313   1.398   .     S
O1313  H1314   1.014   .     S
C1315  O1316   1.213   .     D
C1315  O1317   1.397   .     S
O1317  H1318   1.014   .     S
C1319  H1320   1.105   .     S
C1319  H1321   1.111   .     S
C1319  H1322   1.110   .     S
C1323  H1325   1.108   .     S
C1323  H1326   1.111   .     S
C1323  H1324   1.107   .     S
C1327  H1328   1.102   .     S
C1327  H1329   1.111   .     S
C1327  H1330   1.103   .     S
C1331  H1334   1.111   .     S
C1331  H1333   1.107   .     S
C1331  H1332   1.110   .     S
C1335  O1336   1.223   .     D
C1335  O1337   1.397   .     S
O1337  H1338   1.013   .     S
C1339  O1340   1.223   .     D
C1339  O1341   1.399   .     S
O1341  H1342   1.013   .     S
C1343  O1344   1.222   .     D
C1343  O1345   1.396   .     S
O1345  H1346   1.014   .     S
C1347  O1348   1.222   .     D
C1347  O1349   1.397   .     S
O1349  H1350   1.014   .     S
C1351  O1383   1.304   .     A
C1351  C1376   1.457   .     S
C1351  O1386   1.293   .     A
C1352  O1385   1.295   .     A
C1352  O1384   1.300   .     A
C1352  C1375   1.453   .     S
C1353  O1390   1.297   .     A
C1353  C1371   1.436   .     S
C1353  O1387   1.288   .     A
C1354  C1372   1.474   .     S
C1354  O1389   1.304   .     A
C1354  O1388   1.303   .     A
C1355  N1382   1.369   .     A
C1355  C1393   1.481   .     S
C1356  N1381   1.371   .     A
C1356  C1397   1.476   .     S
C1356  C817    1.424   1_565 S
C1357  N1382   1.372   .     A
C1357  C1401   1.466   .     S
C1358  C1405   1.494   .     S
C1358  N1381   1.388   .     A
C1358  C815    1.432   1_565 S
C1359  C1376   1.420   .     A
C1359  C1425   1.486   .     S
C1359  C1541   1.398   1_455 S
C1360  C1375   1.410   .     A
C1360  C1429   1.493   .     S
C1360  C1452   1.389   .     S
C1361  C1375   1.412   .     A
C1361  C1433   1.499   .     S
C1361  C1449   1.398   .     S
C1362  C1376   1.409   .     A
C1362  C1437   1.484   .     S
C1362  C1540   1.389   1_455 S
C1363  C1373   1.395   .     A
C1363  C1367   1.389   .     A
C1363  H1377   1.085   .     S
C1364  H1378   1.085   .     S
C1364  C1368   1.390   .     A
C1364  C1374   1.389   .     A
C1365  C1369   1.387   .     A
C1365  H1379   1.086   .     S
C1365  C1374   1.389   .     A
C1366  H1380   1.085   .     S
C1366  C1370   1.387   .     A
C1366  C1373   1.391   .     A
C1367  C1371   1.410   .     A
C1367  C1409   1.510   .     S
C1368  C1413   1.511   .     S
C1368  C1372   1.424   .     A
C1369  C1417   1.507   .     S
C1369  C1372   1.421   .     A
C1370  C1421   1.509   .     S
C1370  C1371   1.414   .     A
C1374  C563    1.438   1_556 S
N1381  Zn1391  2.028   .     S
N1382  Zn1392  2.028   .     S
O1383  Zn1391  1.986   .     S
O1384  Zn1392  1.986   .     S
O1385  Zn1391  2.028   .     S
O1386  Zn1392  2.028   .     S
O1387  Zn1391  1.970   .     S
O1388  Zn1392  1.970   .     S
O1389  Zn1391  1.997   .     S
O1390  Zn1392  1.997   .     S
C1393  O1394   1.221   .     D
C1393  O1395   1.396   .     S
O1395  H1396   1.014   .     S
C1397  O1399   1.396   .     S
C1397  O1398   1.223   .     D
O1399  H1400   1.014   .     S
C1401  O1402   1.213   .     D
C1401  O1403   1.398   .     S
O1403  H1404   1.014   .     S
C1405  O1406   1.213   .     D
C1405  O1407   1.397   .     S
O1407  H1408   1.014   .     S
C1409  H1410   1.105   .     S
C1409  H1411   1.111   .     S
C1409  H1412   1.110   .     S
C1413  H1415   1.108   .     S
C1413  H1416   1.111   .     S
C1413  H1414   1.107   .     S
C1417  H1418   1.102   .     S
C1417  H1419   1.111   .     S
C1417  H1420   1.103   .     S
C1421  H1424   1.111   .     S
C1421  H1423   1.107   .     S
C1421  H1422   1.110   .     S
C1425  O1426   1.223   .     D
C1425  O1427   1.397   .     S
O1427  H1428   1.013   .     S
C1429  O1430   1.223   .     D
C1429  O1431   1.399   .     S
O1431  H1432   1.013   .     S
C1433  O1434   1.222   .     D
C1433  O1435   1.396   .     S
O1435  H1436   1.014   .     S
C1437  O1438   1.222   .     D
C1437  O1439   1.397   .     S
O1439  H1440   1.014   .     S
C1441  O1473   1.304   .     A
C1441  C1466   1.457   .     S
C1441  O1476   1.293   .     A
C1442  O1475   1.295   .     A
C1442  O1474   1.300   .     A
C1442  C1465   1.453   .     S
C1443  O1480   1.297   .     A
C1443  C1461   1.436   .     S
C1443  O1477   1.288   .     A
C1444  C1462   1.474   .     S
C1444  O1479   1.304   .     A
C1444  O1478   1.303   .     A
C1445  N1472   1.369   .     A
C1445  C1483   1.481   .     S
C1446  N1471   1.371   .     A
C1446  C1487   1.476   .     S
C1446  C907    1.424   1_565 S
C1447  N1472   1.372   .     A
C1447  C1491   1.466   .     S
C1448  C1495   1.494   .     S
C1448  N1471   1.388   .     A
C1448  C905    1.432   1_565 S
C1449  C1466   1.420   .     A
C1449  C1515   1.486   .     S
C1450  C1465   1.410   .     A
C1450  C1519   1.493   .     S
C1450  C1542   1.389   .     S
C1451  C1465   1.412   .     A
C1451  C1523   1.499   .     S
C1451  C1539   1.398   .     S
C1452  C1466   1.409   .     A
C1452  C1527   1.484   .     S
C1453  C1463   1.395   .     A
C1453  C1457   1.389   .     A
C1453  H1467   1.085   .     S
C1454  H1468   1.085   .     S
C1454  C1458   1.390   .     A
C1454  C1464   1.389   .     A
C1455  C1459   1.387   .     A
C1455  H1469   1.086   .     S
C1455  C1464   1.389   .     A
C1456  H1470   1.085   .     S
C1456  C1460   1.387   .     A
C1456  C1463   1.391   .     A
C1457  C1461   1.410   .     A
C1457  C1499   1.510   .     S
C1458  C1503   1.511   .     S
C1458  C1462   1.424   .     A
C1459  C1507   1.507   .     S
C1459  C1462   1.421   .     A
C1460  C1511   1.509   .     S
C1460  C1461   1.414   .     A
C1464  C653    1.438   1_556 S
N1471  Zn1481  2.028   .     S
N1472  Zn1482  2.028   .     S
O1473  Zn1481  1.986   .     S
O1474  Zn1482  1.986   .     S
O1475  Zn1481  2.028   .     S
O1476  Zn1482  2.028   .     S
O1477  Zn1481  1.970   .     S
O1478  Zn1482  1.970   .     S
O1479  Zn1481  1.997   .     S
O1480  Zn1482  1.997   .     S
C1483  O1484   1.221   .     D
C1483  O1485   1.396   .     S
O1485  H1486   1.014   .     S
C1487  O1489   1.396   .     S
C1487  O1488   1.223   .     D
O1489  H1490   1.014   .     S
C1491  O1492   1.213   .     D
C1491  O1493   1.398   .     S
O1493  H1494   1.014   .     S
C1495  O1496   1.213   .     D
C1495  O1497   1.397   .     S
O1497  H1498   1.014   .     S
C1499  H1500   1.105   .     S
C1499  H1501   1.111   .     S
C1499  H1502   1.110   .     S
C1503  H1505   1.108   .     S
C1503  H1506   1.111   .     S
C1503  H1504   1.107   .     S
C1507  H1508   1.102   .     S
C1507  H1509   1.111   .     S
C1507  H1510   1.103   .     S
C1511  H1514   1.111   .     S
C1511  H1513   1.107   .     S
C1511  H1512   1.110   .     S
C1515  O1516   1.223   .     D
C1515  O1517   1.397   .     S
O1517  H1518   1.013   .     S
C1519  O1520   1.223   .     D
C1519  O1521   1.399   .     S
O1521  H1522   1.013   .     S
C1523  O1524   1.222   .     D
C1523  O1525   1.396   .     S
O1525  H1526   1.014   .     S
C1527  O1528   1.222   .     D
C1527  O1529   1.397   .     S
O1529  H1530   1.014   .     S
C1531  O1563   1.304   .     A
C1531  C1556   1.457   .     S
C1531  O1566   1.293   .     A
C1532  O1565   1.295   .     A
C1532  O1564   1.300   .     A
C1532  C1555   1.453   .     S
C1533  O1570   1.297   .     A
C1533  C1551   1.436   .     S
C1533  O1567   1.288   .     A
C1534  C1552   1.474   .     S
C1534  O1569   1.304   .     A
C1534  O1568   1.303   .     A
C1535  N1562   1.369   .     A
C1535  C1573   1.481   .     S
C1536  N1561   1.371   .     A
C1536  C1577   1.476   .     S
C1536  C997    1.424   1_565 S
C1537  N1562   1.372   .     A
C1537  C1581   1.466   .     S
C1538  C1585   1.494   .     S
C1538  N1561   1.388   .     A
C1538  C995    1.432   1_565 S
C1539  C1556   1.420   .     A
C1539  C1605   1.486   .     S
C1540  C1555   1.410   .     A
C1540  C1609   1.493   .     S
C1540  C1362   1.389   1_655 S
C1541  C1555   1.412   .     A
C1541  C1613   1.499   .     S
C1541  C1359   1.398   1_655 S
C1542  C1556   1.409   .     A
C1542  C1617   1.484   .     S
C1543  C1553   1.395   .     A
C1543  C1547   1.389   .     A
C1543  H1557   1.085   .     S
C1544  H1558   1.085   .     S
C1544  C1548   1.390   .     A
C1544  C1554   1.389   .     A
C1545  C1549   1.387   .     A
C1545  H1559   1.086   .     S
C1545  C1554   1.389   .     A
C1546  H1560   1.085   .     S
C1546  C1550   1.387   .     A
C1546  C1553   1.391   .     A
C1547  C1551   1.410   .     A
C1547  C1589   1.510   .     S
C1548  C1593   1.511   .     S
C1548  C1552   1.424   .     A
C1549  C1597   1.507   .     S
C1549  C1552   1.421   .     A
C1550  C1601   1.509   .     S
C1550  C1551   1.414   .     A
C1554  C743    1.438   1_556 S
N1561  Zn1571  2.028   .     S
N1562  Zn1572  2.028   .     S
O1563  Zn1571  1.986   .     S
O1564  Zn1572  1.986   .     S
O1565  Zn1571  2.028   .     S
O1566  Zn1572  2.028   .     S
O1567  Zn1571  1.970   .     S
O1568  Zn1572  1.970   .     S
O1569  Zn1571  1.997   .     S
O1570  Zn1572  1.997   .     S
C1573  O1574   1.221   .     D
C1573  O1575   1.396   .     S
O1575  H1576   1.014   .     S
C1577  O1579   1.396   .     S
C1577  O1578   1.223   .     D
O1579  H1580   1.014   .     S
C1581  O1582   1.213   .     D
C1581  O1583   1.398   .     S
O1583  H1584   1.014   .     S
C1585  O1586   1.213   .     D
C1585  O1587   1.397   .     S
O1587  H1588   1.014   .     S
C1589  H1590   1.105   .     S
C1589  H1591   1.111   .     S
C1589  H1592   1.110   .     S
C1593  H1595   1.108   .     S
C1593  H1596   1.111   .     S
C1593  H1594   1.107   .     S
C1597  H1598   1.102   .     S
C1597  H1599   1.111   .     S
C1597  H1600   1.103   .     S
C1601  H1604   1.111   .     S
C1601  H1603   1.107   .     S
C1601  H1602   1.110   .     S
C1605  O1606   1.223   .     D
C1605  O1607   1.397   .     S
O1607  H1608   1.013   .     S
C1609  O1610   1.223   .     D
C1609  O1611   1.399   .     S
O1611  H1612   1.013   .     S
C1613  O1614   1.222   .     D
C1613  O1615   1.396   .     S
O1615  H1616   1.014   .     S
C1617  O1618   1.222   .     D
C1617  O1619   1.397   .     S
O1619  H1620   1.014   .     S
