data_str_m3_o1_o1_pcu_sym.76
_audit_creation_date              2020-01-03
_audit_creation_method            'Materials Studio'
_symmetry_space_group_name_H-M    'P1'
_symmetry_Int_Tables_number       1
_symmetry_cell_setting            triclinic
loop_
_symmetry_equiv_pos_as_xyz
  x,y,z
_cell_length_a                    30.8496
_cell_length_b                    29.8153
_cell_length_c                    29.7836
_cell_angle_alpha                 90.0322
_cell_angle_beta                  89.9106
_cell_angle_gamma                 89.1057
loop_
_atom_site_label
_atom_site_type_symbol
_atom_site_fract_x
_atom_site_fract_y
_atom_site_fract_z
_atom_site_U_iso_or_equiv
_atom_site_adp_type
_atom_site_occupancy
O1     O     0.04580   0.20419   0.20487   0.00000  Uiso   1.00
O2     O     0.45419   0.29581   0.12846   0.00000  Uiso   1.00
O3     O     0.45419   0.29581   0.20487   0.00000  Uiso   1.00
O4     O     0.04580   0.20419   0.12846   0.00000  Uiso   1.00
O5     O     0.45419   0.20419   0.12846   0.00000  Uiso   1.00
O6     O     0.04580   0.29581   0.20487   0.00000  Uiso   1.00
O7     O     0.04580   0.29581   0.12846   0.00000  Uiso   1.00
O8     O     0.45419   0.20419   0.20487   0.00000  Uiso   1.00
O9     O     0.29580   0.45419   0.20487   0.00000  Uiso   1.00
O10    O     0.20419   0.04581   0.12846   0.00000  Uiso   1.00
O11    O     0.20419   0.04581   0.20487   0.00000  Uiso   1.00
O12    O     0.29580   0.45419   0.12846   0.00000  Uiso   1.00
O13    O     0.20419   0.45419   0.12846   0.00000  Uiso   1.00
O14    O     0.29580   0.04581   0.20487   0.00000  Uiso   1.00
O15    O     0.29580   0.04581   0.12846   0.00000  Uiso   1.00
O16    O     0.20419   0.45419   0.20487   0.00000  Uiso   1.00
C17    C     0.05992   0.19026   0.16652   0.00000  Uiso   1.00
C18    C     0.44004   0.30971   0.16656   0.00000  Uiso   1.00
C19    C     0.43975   0.19038   0.16648   0.00000  Uiso   1.00
C20    C     0.06029   0.30957   0.16644   0.00000  Uiso   1.00
C21    C     0.30998   0.44032   0.16677   0.00000  Uiso   1.00
C22    C     0.19013   0.05980   0.16681   0.00000  Uiso   1.00
C23    C     0.18976   0.44040   0.16690   0.00000  Uiso   1.00
C24    C     0.31026   0.05956   0.16682   0.00000  Uiso   1.00
N25    N     0.00000   0.25000   0.28573   0.00000  Uiso   1.00
N26    N     0.00000   0.25000   0.04760   0.00000  Uiso   1.00
N27    N     0.25000   0.00000   0.28573   0.00000  Uiso   1.00
N28    N     0.25000   0.00000   0.04760   0.00000  Uiso   1.00
Zn29   Zn    0.00000   0.25000   0.21771   0.00000  Uiso   1.00
Zn30   Zn    0.00000   0.25000   0.11563   0.00000  Uiso   1.00
Zn31   Zn    0.25000   0.00000   0.21771   0.00000  Uiso   1.00
Zn32   Zn    0.25000   0.00000   0.11563   0.00000  Uiso   1.00
C33    C     0.48787   0.28765   0.02429   0.00000  Uiso   1.00
C34    C     0.00933   0.21178   0.30890   0.00000  Uiso   1.00
C35    C     0.01108   0.21205   0.02324   0.00000  Uiso   1.00
C36    C     0.48987   0.28826   0.30980   0.00000  Uiso   1.00
C37    C     0.24091   0.03843   0.02418   0.00000  Uiso   1.00
C38    C     0.26011   0.46178   0.30998   0.00000  Uiso   1.00
C39    C     0.25848   0.46158   0.02434   0.00000  Uiso   1.00
C40    C     0.23956   0.03816   0.30938   0.00000  Uiso   1.00
C41    C     0.40341   0.12718   0.12977   0.00000  Uiso   1.00
C42    C     0.12266   0.34397   0.20244   0.00000  Uiso   1.00
C43    C     0.09712   0.37249   0.12962   0.00000  Uiso   1.00
C44    C     0.37697   0.15618   0.20221   0.00000  Uiso   1.00
C45    C     0.08360   0.11435   0.18371   0.00000  Uiso   1.00
C46    C     0.36641   0.33209   0.14889   0.00000  Uiso   1.00
C47    C     0.41654   0.38581   0.18325   0.00000  Uiso   1.00
C48    C     0.13349   0.16786   0.14851   0.00000  Uiso   1.00
C49    C     0.12751   0.40592   0.13094   0.00000  Uiso   1.00
C50    C     0.34631   0.12293   0.20320   0.00000  Uiso   1.00
C51    C     0.37287   0.09383   0.13091   0.00000  Uiso   1.00
C52    C     0.15307   0.37742   0.20375   0.00000  Uiso   1.00
C53    C     0.38365   0.41799   0.18432   0.00000  Uiso   1.00
C54    C     0.16644   0.13573   0.14945   0.00000  Uiso   1.00
C55    C     0.11663   0.08232   0.18493   0.00000  Uiso   1.00
C56    C     0.33351   0.36428   0.14993   0.00000  Uiso   1.00
C57    C     0.09421   0.34193   0.16573   0.00000  Uiso   1.00
C58    C     0.40591   0.15792   0.16579   0.00000  Uiso   1.00
C59    C     0.40730   0.34324   0.16583   0.00000  Uiso   1.00
C60    C     0.09266   0.15674   0.16574   0.00000  Uiso   1.00
C61    C     0.34400   0.09207   0.16736   0.00000  Uiso   1.00
C62    C     0.15593   0.40798   0.16763   0.00000  Uiso   1.00
C63    C     0.15742   0.09338   0.16757   0.00000  Uiso   1.00
C64    C     0.34272   0.40681   0.16746   0.00000  Uiso   1.00
N65    N     0.47130   0.32575   0.04865   0.00000  Uiso   1.00
H66    H     0.49610   0.33753   0.06874   0.00000  Uiso   1.00
H67    H     0.46152   0.35217   0.02789   0.00000  Uiso   1.00
N68    N     0.01751   0.17119   0.28458   0.00000  Uiso   1.00
H69    H     0.04869   0.15953   0.29259   0.00000  Uiso   1.00
H70    H     0.49523   0.14736   0.29525   0.00000  Uiso   1.00
N71    N     0.02501   0.17170   0.04495   0.00000  Uiso   1.00
H72    H     0.00558   0.16623   0.07285   0.00000  Uiso   1.00
H73    H     0.05727   0.17540   0.05461   0.00000  Uiso   1.00
N74    N     0.48078   0.32964   0.28737   0.00000  Uiso   1.00
H75    H     0.44886   0.32935   0.27587   0.00000  Uiso   1.00
H76    H     0.00274   0.33413   0.26125   0.00000  Uiso   1.00
N77    N     0.23302   0.07896   0.04869   0.00000  Uiso   1.00
H78    H     0.25662   0.10213   0.03980   0.00000  Uiso   1.00
H79    H     0.20250   0.09182   0.03986   0.00000  Uiso   1.00
N80    N     0.27355   0.42127   0.28815   0.00000  Uiso   1.00
H81    H     0.25452   0.41647   0.25990   0.00000  Uiso   1.00
H82    H     0.30600   0.42442   0.27885   0.00000  Uiso   1.00
N83    N     0.26606   0.42091   0.04863   0.00000  Uiso   1.00
H84    H     0.29703   0.40869   0.04044   0.00000  Uiso   1.00
H85    H     0.24336   0.39745   0.03811   0.00000  Uiso   1.00
N86    N     0.22622   0.07753   0.28542   0.00000  Uiso   1.00
H87    H     0.24429   0.10459   0.29659   0.00000  Uiso   1.00
H88    H     0.19374   0.08428   0.29330   0.00000  Uiso   1.00
N89    N     0.43278   0.12812   0.09252   0.00000  Uiso   1.00
O90    O     0.42319   0.15320   0.05808   0.00000  Uiso   1.00
O91    O     0.46122   0.09577   0.08779   0.00000  Uiso   1.00
N92    N     0.12152   0.31174   0.23836   0.00000  Uiso   1.00
O93    O     0.12883   0.26941   0.23026   0.00000  Uiso   1.00
O94    O     0.11404   0.32481   0.27937   0.00000  Uiso   1.00
N95    N     0.06832   0.37132   0.09203   0.00000  Uiso   1.00
O96    O     0.07817   0.34551   0.05814   0.00000  Uiso   1.00
O97    O     0.04081   0.40433   0.08616   0.00000  Uiso   1.00
N98    N     0.37775   0.18858   0.23802   0.00000  Uiso   1.00
O99    O     0.37112   0.23095   0.22965   0.00000  Uiso   1.00
O100   O     0.38415   0.17563   0.27922   0.00000  Uiso   1.00
N101   N     0.04107   0.10383   0.20027   0.00000  Uiso   1.00
O102   O     0.03651   0.08240   0.23800   0.00000  Uiso   1.00
O103   O     0.00695   0.11256   0.17604   0.00000  Uiso   1.00
N104   N     0.35766   0.28747   0.13330   0.00000  Uiso   1.00
O105   O     0.32678   0.26456   0.15170   0.00000  Uiso   1.00
O106   O     0.37557   0.27267   0.09649   0.00000  Uiso   1.00
N107   N     0.45916   0.39639   0.19935   0.00000  Uiso   1.00
O108   O     0.46395   0.41755   0.23720   0.00000  Uiso   1.00
O109   O     0.49309   0.38789   0.17463   0.00000  Uiso   1.00
N110   N     0.14221   0.21250   0.13299   0.00000  Uiso   1.00
O111   O     0.17285   0.23553   0.15159   0.00000  Uiso   1.00
O112   O     0.12452   0.22726   0.09613   0.00000  Uiso   1.00
N113   N     0.12865   0.43815   0.09501   0.00000  Uiso   1.00
O114   O     0.12106   0.48044   0.10305   0.00000  Uiso   1.00
O115   O     0.13640   0.42510   0.05404   0.00000  Uiso   1.00
N116   N     0.31633   0.12234   0.23992   0.00000  Uiso   1.00
O117   O     0.32560   0.09810   0.27503   0.00000  Uiso   1.00
O118   O     0.28716   0.15416   0.24322   0.00000  Uiso   1.00
N119   N     0.37196   0.06149   0.09504   0.00000  Uiso   1.00
O120   O     0.37887   0.01914   0.10327   0.00000  Uiso   1.00
O121   O     0.36499   0.07448   0.05394   0.00000  Uiso   1.00
N122   N     0.18192   0.37867   0.24132   0.00000  Uiso   1.00
O123   O     0.17197   0.40421   0.27537   0.00000  Uiso   1.00
O124   O     0.21010   0.34620   0.24675   0.00000  Uiso   1.00
N125   N     0.39247   0.46267   0.19969   0.00000  Uiso   1.00
O126   O     0.42336   0.48545   0.18116   0.00000  Uiso   1.00
O127   O     0.37455   0.47772   0.23639   0.00000  Uiso   1.00
N128   N     0.20884   0.14614   0.13241   0.00000  Uiso   1.00
O129   O     0.21304   0.16779   0.09477   0.00000  Uiso   1.00
O130   O     0.24322   0.13700   0.15608   0.00000  Uiso   1.00
N131   N     0.10807   0.03783   0.20096   0.00000  Uiso   1.00
O132   O     0.07779   0.01430   0.18237   0.00000  Uiso   1.00
O133   O     0.12552   0.02375   0.23821   0.00000  Uiso   1.00
N134   N     0.29094   0.35378   0.13361   0.00000  Uiso   1.00
O135   O     0.28629   0.33246   0.09582   0.00000  Uiso   1.00
O136   O     0.25690   0.36242   0.15811   0.00000  Uiso   1.00
O137   O     0.54580   0.20419   0.20487   0.00000  Uiso   1.00
O138   O     0.95419   0.29581   0.12846   0.00000  Uiso   1.00
O139   O     0.95419   0.29581   0.20487   0.00000  Uiso   1.00
O140   O     0.54580   0.20419   0.12846   0.00000  Uiso   1.00
O141   O     0.95419   0.20419   0.12846   0.00000  Uiso   1.00
O142   O     0.54580   0.29581   0.20487   0.00000  Uiso   1.00
O143   O     0.54580   0.29581   0.12846   0.00000  Uiso   1.00
O144   O     0.95419   0.20419   0.20487   0.00000  Uiso   1.00
O145   O     0.79580   0.45419   0.20487   0.00000  Uiso   1.00
O146   O     0.70419   0.04581   0.12846   0.00000  Uiso   1.00
O147   O     0.70419   0.04581   0.20487   0.00000  Uiso   1.00
O148   O     0.79580   0.45419   0.12846   0.00000  Uiso   1.00
O149   O     0.70419   0.45419   0.12846   0.00000  Uiso   1.00
O150   O     0.79580   0.04581   0.20487   0.00000  Uiso   1.00
O151   O     0.79580   0.04581   0.12846   0.00000  Uiso   1.00
O152   O     0.70419   0.45419   0.20487   0.00000  Uiso   1.00
C153   C     0.55992   0.19026   0.16652   0.00000  Uiso   1.00
C154   C     0.94004   0.30971   0.16656   0.00000  Uiso   1.00
C155   C     0.93975   0.19038   0.16648   0.00000  Uiso   1.00
C156   C     0.56029   0.30957   0.16644   0.00000  Uiso   1.00
C157   C     0.80998   0.44032   0.16677   0.00000  Uiso   1.00
C158   C     0.69013   0.05980   0.16681   0.00000  Uiso   1.00
C159   C     0.68976   0.44040   0.16690   0.00000  Uiso   1.00
C160   C     0.81026   0.05956   0.16682   0.00000  Uiso   1.00
N161   N     0.50000   0.25000   0.28573   0.00000  Uiso   1.00
N162   N     0.50000   0.25000   0.04760   0.00000  Uiso   1.00
N163   N     0.75000   0.00000   0.28573   0.00000  Uiso   1.00
N164   N     0.75000   0.00000   0.04760   0.00000  Uiso   1.00
Zn165  Zn    0.50000   0.25000   0.21771   0.00000  Uiso   1.00
Zn166  Zn    0.50000   0.25000   0.11563   0.00000  Uiso   1.00
Zn167  Zn    0.75000   0.00000   0.21771   0.00000  Uiso   1.00
Zn168  Zn    0.75000   0.00000   0.11563   0.00000  Uiso   1.00
C169   C     0.98787   0.28765   0.02429   0.00000  Uiso   1.00
C170   C     0.50933   0.21178   0.30890   0.00000  Uiso   1.00
C171   C     0.51108   0.21205   0.02324   0.00000  Uiso   1.00
C172   C     0.98987   0.28826   0.30980   0.00000  Uiso   1.00
C173   C     0.74091   0.03843   0.02418   0.00000  Uiso   1.00
C174   C     0.76011   0.46178   0.30998   0.00000  Uiso   1.00
C175   C     0.75848   0.46158   0.02434   0.00000  Uiso   1.00
C176   C     0.73956   0.03816   0.30938   0.00000  Uiso   1.00
C177   C     0.90341   0.12718   0.12977   0.00000  Uiso   1.00
C178   C     0.62266   0.34397   0.20244   0.00000  Uiso   1.00
C179   C     0.59712   0.37249   0.12962   0.00000  Uiso   1.00
C180   C     0.87697   0.15618   0.20221   0.00000  Uiso   1.00
C181   C     0.58360   0.11435   0.18371   0.00000  Uiso   1.00
C182   C     0.86641   0.33209   0.14889   0.00000  Uiso   1.00
C183   C     0.91654   0.38581   0.18325   0.00000  Uiso   1.00
C184   C     0.63349   0.16786   0.14851   0.00000  Uiso   1.00
C185   C     0.62751   0.40592   0.13094   0.00000  Uiso   1.00
C186   C     0.84631   0.12293   0.20320   0.00000  Uiso   1.00
C187   C     0.87287   0.09383   0.13091   0.00000  Uiso   1.00
C188   C     0.65307   0.37742   0.20375   0.00000  Uiso   1.00
C189   C     0.88365   0.41799   0.18432   0.00000  Uiso   1.00
C190   C     0.66644   0.13573   0.14945   0.00000  Uiso   1.00
C191   C     0.61663   0.08232   0.18493   0.00000  Uiso   1.00
C192   C     0.83351   0.36428   0.14993   0.00000  Uiso   1.00
C193   C     0.59421   0.34193   0.16573   0.00000  Uiso   1.00
C194   C     0.90591   0.15792   0.16579   0.00000  Uiso   1.00
C195   C     0.90730   0.34324   0.16583   0.00000  Uiso   1.00
C196   C     0.59266   0.15674   0.16574   0.00000  Uiso   1.00
C197   C     0.84400   0.09207   0.16736   0.00000  Uiso   1.00
C198   C     0.65593   0.40798   0.16763   0.00000  Uiso   1.00
C199   C     0.65742   0.09338   0.16757   0.00000  Uiso   1.00
C200   C     0.84272   0.40681   0.16746   0.00000  Uiso   1.00
N201   N     0.97130   0.32575   0.04865   0.00000  Uiso   1.00
H202   H     0.99610   0.33753   0.06874   0.00000  Uiso   1.00
H203   H     0.96152   0.35217   0.02789   0.00000  Uiso   1.00
N204   N     0.51751   0.17119   0.28458   0.00000  Uiso   1.00
H205   H     0.54869   0.15953   0.29259   0.00000  Uiso   1.00
H206   H     0.99523   0.14736   0.29525   0.00000  Uiso   1.00
N207   N     0.52501   0.17170   0.04495   0.00000  Uiso   1.00
H208   H     0.50558   0.16623   0.07285   0.00000  Uiso   1.00
H209   H     0.55727   0.17540   0.05461   0.00000  Uiso   1.00
N210   N     0.98078   0.32964   0.28737   0.00000  Uiso   1.00
H211   H     0.94886   0.32935   0.27587   0.00000  Uiso   1.00
H212   H     0.50274   0.33413   0.26125   0.00000  Uiso   1.00
N213   N     0.73302   0.07896   0.04869   0.00000  Uiso   1.00
H214   H     0.75662   0.10213   0.03980   0.00000  Uiso   1.00
H215   H     0.70250   0.09182   0.03986   0.00000  Uiso   1.00
N216   N     0.77355   0.42127   0.28815   0.00000  Uiso   1.00
H217   H     0.75452   0.41647   0.25990   0.00000  Uiso   1.00
H218   H     0.80600   0.42442   0.27885   0.00000  Uiso   1.00
N219   N     0.76606   0.42091   0.04863   0.00000  Uiso   1.00
H220   H     0.79703   0.40869   0.04044   0.00000  Uiso   1.00
H221   H     0.74336   0.39745   0.03811   0.00000  Uiso   1.00
N222   N     0.72622   0.07753   0.28542   0.00000  Uiso   1.00
H223   H     0.74429   0.10459   0.29659   0.00000  Uiso   1.00
H224   H     0.69374   0.08428   0.29330   0.00000  Uiso   1.00
N225   N     0.93278   0.12812   0.09252   0.00000  Uiso   1.00
O226   O     0.92319   0.15320   0.05808   0.00000  Uiso   1.00
O227   O     0.96122   0.09577   0.08779   0.00000  Uiso   1.00
N228   N     0.62152   0.31174   0.23836   0.00000  Uiso   1.00
O229   O     0.62883   0.26941   0.23026   0.00000  Uiso   1.00
O230   O     0.61404   0.32481   0.27937   0.00000  Uiso   1.00
N231   N     0.56832   0.37132   0.09203   0.00000  Uiso   1.00
O232   O     0.57817   0.34551   0.05814   0.00000  Uiso   1.00
O233   O     0.54081   0.40433   0.08616   0.00000  Uiso   1.00
N234   N     0.87775   0.18858   0.23802   0.00000  Uiso   1.00
O235   O     0.87112   0.23095   0.22965   0.00000  Uiso   1.00
O236   O     0.88415   0.17563   0.27922   0.00000  Uiso   1.00
N237   N     0.54107   0.10383   0.20027   0.00000  Uiso   1.00
O238   O     0.53651   0.08240   0.23800   0.00000  Uiso   1.00
O239   O     0.50695   0.11256   0.17604   0.00000  Uiso   1.00
N240   N     0.85766   0.28747   0.13330   0.00000  Uiso   1.00
O241   O     0.82678   0.26456   0.15170   0.00000  Uiso   1.00
O242   O     0.87557   0.27267   0.09649   0.00000  Uiso   1.00
N243   N     0.95916   0.39639   0.19935   0.00000  Uiso   1.00
O244   O     0.96395   0.41755   0.23720   0.00000  Uiso   1.00
O245   O     0.99309   0.38789   0.17463   0.00000  Uiso   1.00
N246   N     0.64221   0.21250   0.13299   0.00000  Uiso   1.00
O247   O     0.67285   0.23553   0.15159   0.00000  Uiso   1.00
O248   O     0.62452   0.22726   0.09613   0.00000  Uiso   1.00
N249   N     0.62865   0.43815   0.09501   0.00000  Uiso   1.00
O250   O     0.62106   0.48044   0.10305   0.00000  Uiso   1.00
O251   O     0.63640   0.42510   0.05404   0.00000  Uiso   1.00
N252   N     0.81633   0.12234   0.23992   0.00000  Uiso   1.00
O253   O     0.82560   0.09810   0.27503   0.00000  Uiso   1.00
O254   O     0.78716   0.15416   0.24322   0.00000  Uiso   1.00
N255   N     0.87196   0.06149   0.09504   0.00000  Uiso   1.00
O256   O     0.87887   0.01914   0.10327   0.00000  Uiso   1.00
O257   O     0.86499   0.07448   0.05394   0.00000  Uiso   1.00
N258   N     0.68192   0.37867   0.24132   0.00000  Uiso   1.00
O259   O     0.67197   0.40421   0.27537   0.00000  Uiso   1.00
O260   O     0.71010   0.34620   0.24675   0.00000  Uiso   1.00
N261   N     0.89247   0.46267   0.19969   0.00000  Uiso   1.00
O262   O     0.92336   0.48545   0.18116   0.00000  Uiso   1.00
O263   O     0.87455   0.47772   0.23639   0.00000  Uiso   1.00
N264   N     0.70884   0.14614   0.13241   0.00000  Uiso   1.00
O265   O     0.71304   0.16779   0.09477   0.00000  Uiso   1.00
O266   O     0.74322   0.13700   0.15608   0.00000  Uiso   1.00
N267   N     0.60807   0.03783   0.20096   0.00000  Uiso   1.00
O268   O     0.57779   0.01430   0.18237   0.00000  Uiso   1.00
O269   O     0.62552   0.02375   0.23821   0.00000  Uiso   1.00
N270   N     0.79094   0.35378   0.13361   0.00000  Uiso   1.00
O271   O     0.78629   0.33246   0.09582   0.00000  Uiso   1.00
O272   O     0.75690   0.36242   0.15811   0.00000  Uiso   1.00
O273   O     0.04580   0.70419   0.20487   0.00000  Uiso   1.00
O274   O     0.45419   0.79581   0.12846   0.00000  Uiso   1.00
O275   O     0.45419   0.79581   0.20487   0.00000  Uiso   1.00
O276   O     0.04580   0.70419   0.12846   0.00000  Uiso   1.00
O277   O     0.45419   0.70419   0.12846   0.00000  Uiso   1.00
O278   O     0.04580   0.79581   0.20487   0.00000  Uiso   1.00
O279   O     0.04580   0.79581   0.12846   0.00000  Uiso   1.00
O280   O     0.45419   0.70419   0.20487   0.00000  Uiso   1.00
O281   O     0.29580   0.95419   0.20487   0.00000  Uiso   1.00
O282   O     0.20419   0.54581   0.12846   0.00000  Uiso   1.00
O283   O     0.20419   0.54581   0.20487   0.00000  Uiso   1.00
O284   O     0.29580   0.95419   0.12846   0.00000  Uiso   1.00
O285   O     0.20419   0.95419   0.12846   0.00000  Uiso   1.00
O286   O     0.29580   0.54581   0.20487   0.00000  Uiso   1.00
O287   O     0.29580   0.54581   0.12846   0.00000  Uiso   1.00
O288   O     0.20419   0.95419   0.20487   0.00000  Uiso   1.00
C289   C     0.05992   0.69026   0.16652   0.00000  Uiso   1.00
C290   C     0.44004   0.80971   0.16656   0.00000  Uiso   1.00
C291   C     0.43975   0.69038   0.16648   0.00000  Uiso   1.00
C292   C     0.06029   0.80957   0.16644   0.00000  Uiso   1.00
C293   C     0.30998   0.94032   0.16677   0.00000  Uiso   1.00
C294   C     0.19013   0.55980   0.16681   0.00000  Uiso   1.00
C295   C     0.18976   0.94040   0.16690   0.00000  Uiso   1.00
C296   C     0.31026   0.55956   0.16682   0.00000  Uiso   1.00
N297   N     0.00000   0.75000   0.28573   0.00000  Uiso   1.00
N298   N     0.00000   0.75000   0.04760   0.00000  Uiso   1.00
N299   N     0.25000   0.50000   0.28573   0.00000  Uiso   1.00
N300   N     0.25000   0.50000   0.04760   0.00000  Uiso   1.00
Zn301  Zn    0.00000   0.75000   0.21771   0.00000  Uiso   1.00
Zn302  Zn    0.00000   0.75000   0.11563   0.00000  Uiso   1.00
Zn303  Zn    0.25000   0.50000   0.21771   0.00000  Uiso   1.00
Zn304  Zn    0.25000   0.50000   0.11563   0.00000  Uiso   1.00
C305   C     0.48787   0.78765   0.02429   0.00000  Uiso   1.00
C306   C     0.00933   0.71178   0.30890   0.00000  Uiso   1.00
C307   C     0.01108   0.71205   0.02324   0.00000  Uiso   1.00
C308   C     0.48987   0.78826   0.30980   0.00000  Uiso   1.00
C309   C     0.24091   0.53843   0.02418   0.00000  Uiso   1.00
C310   C     0.26011   0.96178   0.30998   0.00000  Uiso   1.00
C311   C     0.25848   0.96158   0.02434   0.00000  Uiso   1.00
C312   C     0.23956   0.53816   0.30938   0.00000  Uiso   1.00
C313   C     0.40341   0.62718   0.12977   0.00000  Uiso   1.00
C314   C     0.12266   0.84397   0.20244   0.00000  Uiso   1.00
C315   C     0.09712   0.87249   0.12962   0.00000  Uiso   1.00
C316   C     0.37697   0.65618   0.20221   0.00000  Uiso   1.00
C317   C     0.08360   0.61435   0.18371   0.00000  Uiso   1.00
C318   C     0.36641   0.83209   0.14889   0.00000  Uiso   1.00
C319   C     0.41654   0.88581   0.18325   0.00000  Uiso   1.00
C320   C     0.13349   0.66786   0.14851   0.00000  Uiso   1.00
C321   C     0.12751   0.90592   0.13094   0.00000  Uiso   1.00
C322   C     0.34631   0.62293   0.20320   0.00000  Uiso   1.00
C323   C     0.37287   0.59383   0.13091   0.00000  Uiso   1.00
C324   C     0.15307   0.87742   0.20375   0.00000  Uiso   1.00
C325   C     0.38365   0.91799   0.18432   0.00000  Uiso   1.00
C326   C     0.16644   0.63573   0.14945   0.00000  Uiso   1.00
C327   C     0.11663   0.58232   0.18493   0.00000  Uiso   1.00
C328   C     0.33351   0.86428   0.14993   0.00000  Uiso   1.00
C329   C     0.09421   0.84193   0.16573   0.00000  Uiso   1.00
C330   C     0.40591   0.65792   0.16579   0.00000  Uiso   1.00
C331   C     0.40730   0.84324   0.16583   0.00000  Uiso   1.00
C332   C     0.09266   0.65674   0.16574   0.00000  Uiso   1.00
C333   C     0.34400   0.59207   0.16736   0.00000  Uiso   1.00
C334   C     0.15593   0.90798   0.16763   0.00000  Uiso   1.00
C335   C     0.15742   0.59338   0.16757   0.00000  Uiso   1.00
C336   C     0.34272   0.90681   0.16746   0.00000  Uiso   1.00
N337   N     0.47130   0.82575   0.04865   0.00000  Uiso   1.00
H338   H     0.49610   0.83753   0.06874   0.00000  Uiso   1.00
H339   H     0.46152   0.85217   0.02789   0.00000  Uiso   1.00
N340   N     0.01751   0.67119   0.28458   0.00000  Uiso   1.00
H341   H     0.04869   0.65953   0.29259   0.00000  Uiso   1.00
H342   H     0.49523   0.64736   0.29525   0.00000  Uiso   1.00
N343   N     0.02501   0.67170   0.04495   0.00000  Uiso   1.00
H344   H     0.00558   0.66623   0.07285   0.00000  Uiso   1.00
H345   H     0.05727   0.67540   0.05461   0.00000  Uiso   1.00
N346   N     0.48078   0.82964   0.28737   0.00000  Uiso   1.00
H347   H     0.44886   0.82935   0.27587   0.00000  Uiso   1.00
H348   H     0.00274   0.83413   0.26125   0.00000  Uiso   1.00
N349   N     0.23302   0.57896   0.04869   0.00000  Uiso   1.00
H350   H     0.25662   0.60213   0.03980   0.00000  Uiso   1.00
H351   H     0.20250   0.59182   0.03986   0.00000  Uiso   1.00
N352   N     0.27355   0.92127   0.28815   0.00000  Uiso   1.00
H353   H     0.25452   0.91647   0.25990   0.00000  Uiso   1.00
H354   H     0.30600   0.92442   0.27885   0.00000  Uiso   1.00
N355   N     0.26606   0.92091   0.04863   0.00000  Uiso   1.00
H356   H     0.29703   0.90869   0.04044   0.00000  Uiso   1.00
H357   H     0.24336   0.89745   0.03811   0.00000  Uiso   1.00
N358   N     0.22622   0.57753   0.28542   0.00000  Uiso   1.00
H359   H     0.24429   0.60459   0.29659   0.00000  Uiso   1.00
H360   H     0.19374   0.58428   0.29330   0.00000  Uiso   1.00
N361   N     0.43278   0.62812   0.09252   0.00000  Uiso   1.00
O362   O     0.42319   0.65320   0.05808   0.00000  Uiso   1.00
O363   O     0.46122   0.59577   0.08779   0.00000  Uiso   1.00
N364   N     0.12152   0.81174   0.23836   0.00000  Uiso   1.00
O365   O     0.12883   0.76941   0.23026   0.00000  Uiso   1.00
O366   O     0.11404   0.82481   0.27937   0.00000  Uiso   1.00
N367   N     0.06832   0.87132   0.09203   0.00000  Uiso   1.00
O368   O     0.07817   0.84551   0.05814   0.00000  Uiso   1.00
O369   O     0.04081   0.90433   0.08616   0.00000  Uiso   1.00
N370   N     0.37775   0.68858   0.23802   0.00000  Uiso   1.00
O371   O     0.37112   0.73095   0.22965   0.00000  Uiso   1.00
O372   O     0.38415   0.67563   0.27922   0.00000  Uiso   1.00
N373   N     0.04107   0.60383   0.20027   0.00000  Uiso   1.00
O374   O     0.03651   0.58240   0.23800   0.00000  Uiso   1.00
O375   O     0.00695   0.61256   0.17604   0.00000  Uiso   1.00
N376   N     0.35766   0.78747   0.13330   0.00000  Uiso   1.00
O377   O     0.32678   0.76456   0.15170   0.00000  Uiso   1.00
O378   O     0.37557   0.77267   0.09649   0.00000  Uiso   1.00
N379   N     0.45916   0.89639   0.19935   0.00000  Uiso   1.00
O380   O     0.46395   0.91755   0.23720   0.00000  Uiso   1.00
O381   O     0.49309   0.88789   0.17463   0.00000  Uiso   1.00
N382   N     0.14221   0.71250   0.13299   0.00000  Uiso   1.00
O383   O     0.17285   0.73553   0.15159   0.00000  Uiso   1.00
O384   O     0.12452   0.72726   0.09613   0.00000  Uiso   1.00
N385   N     0.12865   0.93815   0.09501   0.00000  Uiso   1.00
O386   O     0.12106   0.98044   0.10305   0.00000  Uiso   1.00
O387   O     0.13640   0.92510   0.05404   0.00000  Uiso   1.00
N388   N     0.31633   0.62234   0.23992   0.00000  Uiso   1.00
O389   O     0.32560   0.59810   0.27503   0.00000  Uiso   1.00
O390   O     0.28716   0.65416   0.24322   0.00000  Uiso   1.00
N391   N     0.37196   0.56149   0.09504   0.00000  Uiso   1.00
O392   O     0.37887   0.51914   0.10327   0.00000  Uiso   1.00
O393   O     0.36499   0.57448   0.05394   0.00000  Uiso   1.00
N394   N     0.18192   0.87867   0.24132   0.00000  Uiso   1.00
O395   O     0.17197   0.90421   0.27537   0.00000  Uiso   1.00
O396   O     0.21010   0.84620   0.24675   0.00000  Uiso   1.00
N397   N     0.39247   0.96267   0.19969   0.00000  Uiso   1.00
O398   O     0.42336   0.98545   0.18116   0.00000  Uiso   1.00
O399   O     0.37455   0.97772   0.23639   0.00000  Uiso   1.00
N400   N     0.20884   0.64614   0.13241   0.00000  Uiso   1.00
O401   O     0.21304   0.66779   0.09477   0.00000  Uiso   1.00
O402   O     0.24322   0.63700   0.15608   0.00000  Uiso   1.00
N403   N     0.10807   0.53783   0.20096   0.00000  Uiso   1.00
O404   O     0.07779   0.51430   0.18237   0.00000  Uiso   1.00
O405   O     0.12552   0.52375   0.23821   0.00000  Uiso   1.00
N406   N     0.29094   0.85378   0.13361   0.00000  Uiso   1.00
O407   O     0.28629   0.83246   0.09582   0.00000  Uiso   1.00
O408   O     0.25690   0.86242   0.15811   0.00000  Uiso   1.00
O409   O     0.54580   0.70419   0.20487   0.00000  Uiso   1.00
O410   O     0.95419   0.79581   0.12846   0.00000  Uiso   1.00
O411   O     0.95419   0.79581   0.20487   0.00000  Uiso   1.00
O412   O     0.54580   0.70419   0.12846   0.00000  Uiso   1.00
O413   O     0.95419   0.70419   0.12846   0.00000  Uiso   1.00
O414   O     0.54580   0.79581   0.20487   0.00000  Uiso   1.00
O415   O     0.54580   0.79581   0.12846   0.00000  Uiso   1.00
O416   O     0.95419   0.70419   0.20487   0.00000  Uiso   1.00
O417   O     0.79580   0.95419   0.20487   0.00000  Uiso   1.00
O418   O     0.70419   0.54581   0.12846   0.00000  Uiso   1.00
O419   O     0.70419   0.54581   0.20487   0.00000  Uiso   1.00
O420   O     0.79580   0.95419   0.12846   0.00000  Uiso   1.00
O421   O     0.70419   0.95419   0.12846   0.00000  Uiso   1.00
O422   O     0.79580   0.54581   0.20487   0.00000  Uiso   1.00
O423   O     0.79580   0.54581   0.12846   0.00000  Uiso   1.00
O424   O     0.70419   0.95419   0.20487   0.00000  Uiso   1.00
C425   C     0.55992   0.69026   0.16652   0.00000  Uiso   1.00
C426   C     0.94004   0.80971   0.16656   0.00000  Uiso   1.00
C427   C     0.93975   0.69038   0.16648   0.00000  Uiso   1.00
C428   C     0.56029   0.80957   0.16644   0.00000  Uiso   1.00
C429   C     0.80998   0.94032   0.16677   0.00000  Uiso   1.00
C430   C     0.69013   0.55980   0.16681   0.00000  Uiso   1.00
C431   C     0.68976   0.94040   0.16690   0.00000  Uiso   1.00
C432   C     0.81026   0.55956   0.16682   0.00000  Uiso   1.00
N433   N     0.50000   0.75000   0.28573   0.00000  Uiso   1.00
N434   N     0.50000   0.75000   0.04760   0.00000  Uiso   1.00
N435   N     0.75000   0.50000   0.28573   0.00000  Uiso   1.00
N436   N     0.75000   0.50000   0.04760   0.00000  Uiso   1.00
Zn437  Zn    0.50000   0.75000   0.21771   0.00000  Uiso   1.00
Zn438  Zn    0.50000   0.75000   0.11563   0.00000  Uiso   1.00
Zn439  Zn    0.75000   0.50000   0.21771   0.00000  Uiso   1.00
Zn440  Zn    0.75000   0.50000   0.11563   0.00000  Uiso   1.00
C441   C     0.98787   0.78765   0.02429   0.00000  Uiso   1.00
C442   C     0.50933   0.71178   0.30890   0.00000  Uiso   1.00
C443   C     0.51108   0.71205   0.02324   0.00000  Uiso   1.00
C444   C     0.98987   0.78826   0.30980   0.00000  Uiso   1.00
C445   C     0.74091   0.53843   0.02418   0.00000  Uiso   1.00
C446   C     0.76011   0.96178   0.30998   0.00000  Uiso   1.00
C447   C     0.75848   0.96158   0.02434   0.00000  Uiso   1.00
C448   C     0.73956   0.53816   0.30938   0.00000  Uiso   1.00
C449   C     0.90341   0.62718   0.12977   0.00000  Uiso   1.00
C450   C     0.62266   0.84397   0.20244   0.00000  Uiso   1.00
C451   C     0.59712   0.87249   0.12962   0.00000  Uiso   1.00
C452   C     0.87697   0.65618   0.20221   0.00000  Uiso   1.00
C453   C     0.58360   0.61435   0.18371   0.00000  Uiso   1.00
C454   C     0.86641   0.83209   0.14889   0.00000  Uiso   1.00
C455   C     0.91654   0.88581   0.18325   0.00000  Uiso   1.00
C456   C     0.63349   0.66786   0.14851   0.00000  Uiso   1.00
C457   C     0.62751   0.90592   0.13094   0.00000  Uiso   1.00
C458   C     0.84631   0.62293   0.20320   0.00000  Uiso   1.00
C459   C     0.87287   0.59383   0.13091   0.00000  Uiso   1.00
C460   C     0.65307   0.87742   0.20375   0.00000  Uiso   1.00
C461   C     0.88365   0.91799   0.18432   0.00000  Uiso   1.00
C462   C     0.66644   0.63573   0.14945   0.00000  Uiso   1.00
C463   C     0.61663   0.58232   0.18493   0.00000  Uiso   1.00
C464   C     0.83351   0.86428   0.14993   0.00000  Uiso   1.00
C465   C     0.59421   0.84193   0.16573   0.00000  Uiso   1.00
C466   C     0.90591   0.65792   0.16579   0.00000  Uiso   1.00
C467   C     0.90730   0.84324   0.16583   0.00000  Uiso   1.00
C468   C     0.59266   0.65674   0.16574   0.00000  Uiso   1.00
C469   C     0.84400   0.59207   0.16736   0.00000  Uiso   1.00
C470   C     0.65593   0.90798   0.16763   0.00000  Uiso   1.00
C471   C     0.65742   0.59338   0.16757   0.00000  Uiso   1.00
C472   C     0.84272   0.90681   0.16746   0.00000  Uiso   1.00
N473   N     0.97130   0.82575   0.04865   0.00000  Uiso   1.00
H474   H     0.99610   0.83753   0.06874   0.00000  Uiso   1.00
H475   H     0.96152   0.85217   0.02789   0.00000  Uiso   1.00
N476   N     0.51751   0.67119   0.28458   0.00000  Uiso   1.00
H477   H     0.54869   0.65953   0.29259   0.00000  Uiso   1.00
H478   H     0.99523   0.64736   0.29525   0.00000  Uiso   1.00
N479   N     0.52501   0.67170   0.04495   0.00000  Uiso   1.00
H480   H     0.50558   0.66623   0.07285   0.00000  Uiso   1.00
H481   H     0.55727   0.67540   0.05461   0.00000  Uiso   1.00
N482   N     0.98078   0.82964   0.28737   0.00000  Uiso   1.00
H483   H     0.94886   0.82935   0.27587   0.00000  Uiso   1.00
H484   H     0.50274   0.83413   0.26125   0.00000  Uiso   1.00
N485   N     0.73302   0.57896   0.04869   0.00000  Uiso   1.00
H486   H     0.75662   0.60213   0.03980   0.00000  Uiso   1.00
H487   H     0.70250   0.59182   0.03986   0.00000  Uiso   1.00
N488   N     0.77355   0.92127   0.28815   0.00000  Uiso   1.00
H489   H     0.75452   0.91647   0.25990   0.00000  Uiso   1.00
H490   H     0.80600   0.92442   0.27885   0.00000  Uiso   1.00
N491   N     0.76606   0.92091   0.04863   0.00000  Uiso   1.00
H492   H     0.79703   0.90869   0.04044   0.00000  Uiso   1.00
H493   H     0.74336   0.89745   0.03811   0.00000  Uiso   1.00
N494   N     0.72622   0.57753   0.28542   0.00000  Uiso   1.00
H495   H     0.74429   0.60459   0.29659   0.00000  Uiso   1.00
H496   H     0.69374   0.58428   0.29330   0.00000  Uiso   1.00
N497   N     0.93278   0.62812   0.09252   0.00000  Uiso   1.00
O498   O     0.92319   0.65320   0.05808   0.00000  Uiso   1.00
O499   O     0.96122   0.59577   0.08779   0.00000  Uiso   1.00
N500   N     0.62152   0.81174   0.23836   0.00000  Uiso   1.00
O501   O     0.62883   0.76941   0.23026   0.00000  Uiso   1.00
O502   O     0.61404   0.82481   0.27937   0.00000  Uiso   1.00
N503   N     0.56832   0.87132   0.09203   0.00000  Uiso   1.00
O504   O     0.57817   0.84551   0.05814   0.00000  Uiso   1.00
O505   O     0.54081   0.90433   0.08616   0.00000  Uiso   1.00
N506   N     0.87775   0.68858   0.23802   0.00000  Uiso   1.00
O507   O     0.87112   0.73095   0.22965   0.00000  Uiso   1.00
O508   O     0.88415   0.67563   0.27922   0.00000  Uiso   1.00
N509   N     0.54107   0.60383   0.20027   0.00000  Uiso   1.00
O510   O     0.53651   0.58240   0.23800   0.00000  Uiso   1.00
O511   O     0.50695   0.61256   0.17604   0.00000  Uiso   1.00
N512   N     0.85766   0.78747   0.13330   0.00000  Uiso   1.00
O513   O     0.82678   0.76456   0.15170   0.00000  Uiso   1.00
O514   O     0.87557   0.77267   0.09649   0.00000  Uiso   1.00
N515   N     0.95916   0.89639   0.19935   0.00000  Uiso   1.00
O516   O     0.96395   0.91755   0.23720   0.00000  Uiso   1.00
O517   O     0.99309   0.88789   0.17463   0.00000  Uiso   1.00
N518   N     0.64221   0.71250   0.13299   0.00000  Uiso   1.00
O519   O     0.67285   0.73553   0.15159   0.00000  Uiso   1.00
O520   O     0.62452   0.72726   0.09613   0.00000  Uiso   1.00
N521   N     0.62865   0.93815   0.09501   0.00000  Uiso   1.00
O522   O     0.62106   0.98044   0.10305   0.00000  Uiso   1.00
O523   O     0.63640   0.92510   0.05404   0.00000  Uiso   1.00
N524   N     0.81633   0.62234   0.23992   0.00000  Uiso   1.00
O525   O     0.82560   0.59810   0.27503   0.00000  Uiso   1.00
O526   O     0.78716   0.65416   0.24322   0.00000  Uiso   1.00
N527   N     0.87196   0.56149   0.09504   0.00000  Uiso   1.00
O528   O     0.87887   0.51914   0.10327   0.00000  Uiso   1.00
O529   O     0.86499   0.57448   0.05394   0.00000  Uiso   1.00
N530   N     0.68192   0.87867   0.24132   0.00000  Uiso   1.00
O531   O     0.67197   0.90421   0.27537   0.00000  Uiso   1.00
O532   O     0.71010   0.84620   0.24675   0.00000  Uiso   1.00
N533   N     0.89247   0.96267   0.19969   0.00000  Uiso   1.00
O534   O     0.92336   0.98545   0.18116   0.00000  Uiso   1.00
O535   O     0.87455   0.97772   0.23639   0.00000  Uiso   1.00
N536   N     0.70884   0.64614   0.13241   0.00000  Uiso   1.00
O537   O     0.71304   0.66779   0.09477   0.00000  Uiso   1.00
O538   O     0.74322   0.63700   0.15608   0.00000  Uiso   1.00
N539   N     0.60807   0.53783   0.20096   0.00000  Uiso   1.00
O540   O     0.57779   0.51430   0.18237   0.00000  Uiso   1.00
O541   O     0.62552   0.52375   0.23821   0.00000  Uiso   1.00
N542   N     0.79094   0.85378   0.13361   0.00000  Uiso   1.00
O543   O     0.78629   0.83246   0.09582   0.00000  Uiso   1.00
O544   O     0.75690   0.86242   0.15811   0.00000  Uiso   1.00
O545   O     0.04580   0.20419   0.53821   0.00000  Uiso   1.00
O546   O     0.45419   0.29581   0.46179   0.00000  Uiso   1.00
O547   O     0.45419   0.29581   0.53821   0.00000  Uiso   1.00
O548   O     0.04580   0.20419   0.46179   0.00000  Uiso   1.00
O549   O     0.45419   0.20419   0.46179   0.00000  Uiso   1.00
O550   O     0.04580   0.29581   0.53821   0.00000  Uiso   1.00
O551   O     0.04580   0.29581   0.46179   0.00000  Uiso   1.00
O552   O     0.45419   0.20419   0.53821   0.00000  Uiso   1.00
O553   O     0.29580   0.45419   0.53821   0.00000  Uiso   1.00
O554   O     0.20419   0.04581   0.46179   0.00000  Uiso   1.00
O555   O     0.20419   0.04581   0.53821   0.00000  Uiso   1.00
O556   O     0.29580   0.45419   0.46179   0.00000  Uiso   1.00
O557   O     0.20419   0.45419   0.46179   0.00000  Uiso   1.00
O558   O     0.29580   0.04581   0.53821   0.00000  Uiso   1.00
O559   O     0.29580   0.04581   0.46179   0.00000  Uiso   1.00
O560   O     0.20419   0.45419   0.53821   0.00000  Uiso   1.00
C561   C     0.05992   0.19026   0.49985   0.00000  Uiso   1.00
C562   C     0.44004   0.30971   0.49990   0.00000  Uiso   1.00
C563   C     0.43975   0.19038   0.49981   0.00000  Uiso   1.00
C564   C     0.06029   0.30957   0.49977   0.00000  Uiso   1.00
C565   C     0.30998   0.44032   0.50010   0.00000  Uiso   1.00
C566   C     0.19013   0.05980   0.50014   0.00000  Uiso   1.00
C567   C     0.18976   0.44040   0.50023   0.00000  Uiso   1.00
C568   C     0.31026   0.05956   0.50015   0.00000  Uiso   1.00
N569   N     0.00000   0.25000   0.61907   0.00000  Uiso   1.00
N570   N     0.00000   0.25000   0.38093   0.00000  Uiso   1.00
N571   N     0.25000   0.00000   0.61907   0.00000  Uiso   1.00
N572   N     0.25000   0.00000   0.38093   0.00000  Uiso   1.00
Zn573  Zn    0.00000   0.25000   0.55104   0.00000  Uiso   1.00
Zn574  Zn    0.00000   0.25000   0.44896   0.00000  Uiso   1.00
Zn575  Zn    0.25000   0.00000   0.55104   0.00000  Uiso   1.00
Zn576  Zn    0.25000   0.00000   0.44896   0.00000  Uiso   1.00
C577   C     0.48787   0.28765   0.35763   0.00000  Uiso   1.00
C578   C     0.00933   0.21178   0.64223   0.00000  Uiso   1.00
C579   C     0.01108   0.21205   0.35658   0.00000  Uiso   1.00
C580   C     0.48987   0.28826   0.64313   0.00000  Uiso   1.00
C581   C     0.24091   0.03843   0.35752   0.00000  Uiso   1.00
C582   C     0.26011   0.46178   0.64331   0.00000  Uiso   1.00
C583   C     0.25848   0.46158   0.35767   0.00000  Uiso   1.00
C584   C     0.23956   0.03816   0.64272   0.00000  Uiso   1.00
C585   C     0.40341   0.12718   0.46311   0.00000  Uiso   1.00
C586   C     0.12266   0.34397   0.53577   0.00000  Uiso   1.00
C587   C     0.09712   0.37249   0.46295   0.00000  Uiso   1.00
C588   C     0.37697   0.15618   0.53554   0.00000  Uiso   1.00
C589   C     0.08360   0.11435   0.51705   0.00000  Uiso   1.00
C590   C     0.36641   0.33209   0.48222   0.00000  Uiso   1.00
C591   C     0.41654   0.38581   0.51659   0.00000  Uiso   1.00
C592   C     0.13349   0.16786   0.48184   0.00000  Uiso   1.00
C593   C     0.12751   0.40592   0.46427   0.00000  Uiso   1.00
C594   C     0.34631   0.12293   0.53653   0.00000  Uiso   1.00
C595   C     0.37287   0.09383   0.46424   0.00000  Uiso   1.00
C596   C     0.15307   0.37742   0.53708   0.00000  Uiso   1.00
C597   C     0.38365   0.41799   0.51765   0.00000  Uiso   1.00
C598   C     0.16644   0.13573   0.48279   0.00000  Uiso   1.00
C599   C     0.11663   0.08232   0.51826   0.00000  Uiso   1.00
C600   C     0.33351   0.36428   0.48326   0.00000  Uiso   1.00
C601   C     0.09421   0.34193   0.49906   0.00000  Uiso   1.00
C602   C     0.40591   0.15792   0.49912   0.00000  Uiso   1.00
C603   C     0.40730   0.34324   0.49916   0.00000  Uiso   1.00
C604   C     0.09266   0.15674   0.49907   0.00000  Uiso   1.00
C605   C     0.34400   0.09207   0.50069   0.00000  Uiso   1.00
C606   C     0.15593   0.40798   0.50097   0.00000  Uiso   1.00
C607   C     0.15742   0.09338   0.50090   0.00000  Uiso   1.00
C608   C     0.34272   0.40681   0.50080   0.00000  Uiso   1.00
N609   N     0.47130   0.32575   0.38198   0.00000  Uiso   1.00
H610   H     0.49610   0.33753   0.40208   0.00000  Uiso   1.00
H611   H     0.46152   0.35217   0.36123   0.00000  Uiso   1.00
N612   N     0.01751   0.17119   0.61792   0.00000  Uiso   1.00
H613   H     0.04869   0.15953   0.62592   0.00000  Uiso   1.00
H614   H     0.49523   0.14736   0.62858   0.00000  Uiso   1.00
N615   N     0.02501   0.17170   0.37829   0.00000  Uiso   1.00
H616   H     0.00558   0.16623   0.40619   0.00000  Uiso   1.00
H617   H     0.05727   0.17540   0.38794   0.00000  Uiso   1.00
N618   N     0.48078   0.32964   0.62070   0.00000  Uiso   1.00
H619   H     0.44886   0.32935   0.60920   0.00000  Uiso   1.00
H620   H     0.00274   0.33413   0.59458   0.00000  Uiso   1.00
N621   N     0.23302   0.07896   0.38203   0.00000  Uiso   1.00
H622   H     0.25662   0.10213   0.37313   0.00000  Uiso   1.00
H623   H     0.20250   0.09182   0.37319   0.00000  Uiso   1.00
N624   N     0.27355   0.42127   0.62149   0.00000  Uiso   1.00
H625   H     0.25452   0.41647   0.59324   0.00000  Uiso   1.00
H626   H     0.30600   0.42442   0.61218   0.00000  Uiso   1.00
N627   N     0.26606   0.42091   0.38196   0.00000  Uiso   1.00
H628   H     0.29703   0.40869   0.37378   0.00000  Uiso   1.00
H629   H     0.24336   0.39745   0.37144   0.00000  Uiso   1.00
N630   N     0.22622   0.07753   0.61876   0.00000  Uiso   1.00
H631   H     0.24429   0.10459   0.62993   0.00000  Uiso   1.00
H632   H     0.19374   0.08428   0.62663   0.00000  Uiso   1.00
N633   N     0.43278   0.12812   0.42585   0.00000  Uiso   1.00
O634   O     0.42319   0.15320   0.39141   0.00000  Uiso   1.00
O635   O     0.46122   0.09577   0.42112   0.00000  Uiso   1.00
N636   N     0.12152   0.31174   0.57169   0.00000  Uiso   1.00
O637   O     0.12883   0.26941   0.56360   0.00000  Uiso   1.00
O638   O     0.11404   0.32481   0.61271   0.00000  Uiso   1.00
N639   N     0.06832   0.37132   0.42536   0.00000  Uiso   1.00
O640   O     0.07817   0.34551   0.39147   0.00000  Uiso   1.00
O641   O     0.04081   0.40433   0.41949   0.00000  Uiso   1.00
N642   N     0.37775   0.18858   0.57135   0.00000  Uiso   1.00
O643   O     0.37112   0.23095   0.56299   0.00000  Uiso   1.00
O644   O     0.38415   0.17563   0.61256   0.00000  Uiso   1.00
N645   N     0.04107   0.10383   0.53361   0.00000  Uiso   1.00
O646   O     0.03651   0.08240   0.57134   0.00000  Uiso   1.00
O647   O     0.00695   0.11256   0.50938   0.00000  Uiso   1.00
N648   N     0.35766   0.28747   0.46664   0.00000  Uiso   1.00
O649   O     0.32678   0.26456   0.48503   0.00000  Uiso   1.00
O650   O     0.37557   0.27267   0.42982   0.00000  Uiso   1.00
N651   N     0.45916   0.39639   0.53268   0.00000  Uiso   1.00
O652   O     0.46395   0.41755   0.57053   0.00000  Uiso   1.00
O653   O     0.49309   0.38789   0.50796   0.00000  Uiso   1.00
N654   N     0.14221   0.21250   0.46632   0.00000  Uiso   1.00
O655   O     0.17285   0.23553   0.48493   0.00000  Uiso   1.00
O656   O     0.12452   0.22726   0.42946   0.00000  Uiso   1.00
N657   N     0.12865   0.43815   0.42834   0.00000  Uiso   1.00
O658   O     0.12106   0.48044   0.43639   0.00000  Uiso   1.00
O659   O     0.13640   0.42510   0.38737   0.00000  Uiso   1.00
N660   N     0.31633   0.12234   0.57325   0.00000  Uiso   1.00
O661   O     0.32560   0.09810   0.60836   0.00000  Uiso   1.00
O662   O     0.28716   0.15416   0.57656   0.00000  Uiso   1.00
N663   N     0.37196   0.06149   0.42838   0.00000  Uiso   1.00
O664   O     0.37887   0.01914   0.43661   0.00000  Uiso   1.00
O665   O     0.36499   0.07448   0.38728   0.00000  Uiso   1.00
N666   N     0.18192   0.37867   0.57465   0.00000  Uiso   1.00
O667   O     0.17197   0.40421   0.60871   0.00000  Uiso   1.00
O668   O     0.21010   0.34620   0.58009   0.00000  Uiso   1.00
N669   N     0.39247   0.46267   0.53302   0.00000  Uiso   1.00
O670   O     0.42336   0.48545   0.51449   0.00000  Uiso   1.00
O671   O     0.37455   0.47772   0.56973   0.00000  Uiso   1.00
N672   N     0.20884   0.14614   0.46575   0.00000  Uiso   1.00
O673   O     0.21304   0.16779   0.42811   0.00000  Uiso   1.00
O674   O     0.24322   0.13700   0.48942   0.00000  Uiso   1.00
N675   N     0.10807   0.03783   0.53429   0.00000  Uiso   1.00
O676   O     0.07779   0.01430   0.51570   0.00000  Uiso   1.00
O677   O     0.12552   0.02375   0.57154   0.00000  Uiso   1.00
N678   N     0.29094   0.35378   0.46694   0.00000  Uiso   1.00
O679   O     0.28629   0.33246   0.42916   0.00000  Uiso   1.00
O680   O     0.25690   0.36242   0.49144   0.00000  Uiso   1.00
O681   O     0.54580   0.20419   0.53821   0.00000  Uiso   1.00
O682   O     0.95419   0.29581   0.46179   0.00000  Uiso   1.00
O683   O     0.95419   0.29581   0.53821   0.00000  Uiso   1.00
O684   O     0.54580   0.20419   0.46179   0.00000  Uiso   1.00
O685   O     0.95419   0.20419   0.46179   0.00000  Uiso   1.00
O686   O     0.54580   0.29581   0.53821   0.00000  Uiso   1.00
O687   O     0.54580   0.29581   0.46179   0.00000  Uiso   1.00
O688   O     0.95419   0.20419   0.53821   0.00000  Uiso   1.00
O689   O     0.79580   0.45419   0.53821   0.00000  Uiso   1.00
O690   O     0.70419   0.04581   0.46179   0.00000  Uiso   1.00
O691   O     0.70419   0.04581   0.53821   0.00000  Uiso   1.00
O692   O     0.79580   0.45419   0.46179   0.00000  Uiso   1.00
O693   O     0.70419   0.45419   0.46179   0.00000  Uiso   1.00
O694   O     0.79580   0.04581   0.53821   0.00000  Uiso   1.00
O695   O     0.79580   0.04581   0.46179   0.00000  Uiso   1.00
O696   O     0.70419   0.45419   0.53821   0.00000  Uiso   1.00
C697   C     0.55992   0.19026   0.49985   0.00000  Uiso   1.00
C698   C     0.94004   0.30971   0.49990   0.00000  Uiso   1.00
C699   C     0.93975   0.19038   0.49981   0.00000  Uiso   1.00
C700   C     0.56029   0.30957   0.49977   0.00000  Uiso   1.00
C701   C     0.80998   0.44032   0.50010   0.00000  Uiso   1.00
C702   C     0.69013   0.05980   0.50014   0.00000  Uiso   1.00
C703   C     0.68976   0.44040   0.50023   0.00000  Uiso   1.00
C704   C     0.81026   0.05956   0.50015   0.00000  Uiso   1.00
N705   N     0.50000   0.25000   0.61907   0.00000  Uiso   1.00
N706   N     0.50000   0.25000   0.38093   0.00000  Uiso   1.00
N707   N     0.75000   0.00000   0.61907   0.00000  Uiso   1.00
N708   N     0.75000   0.00000   0.38093   0.00000  Uiso   1.00
Zn709  Zn    0.50000   0.25000   0.55104   0.00000  Uiso   1.00
Zn710  Zn    0.50000   0.25000   0.44896   0.00000  Uiso   1.00
Zn711  Zn    0.75000   0.00000   0.55104   0.00000  Uiso   1.00
Zn712  Zn    0.75000   0.00000   0.44896   0.00000  Uiso   1.00
C713   C     0.98787   0.28765   0.35763   0.00000  Uiso   1.00
C714   C     0.50933   0.21178   0.64223   0.00000  Uiso   1.00
C715   C     0.51108   0.21205   0.35658   0.00000  Uiso   1.00
C716   C     0.98987   0.28826   0.64313   0.00000  Uiso   1.00
C717   C     0.74091   0.03843   0.35752   0.00000  Uiso   1.00
C718   C     0.76011   0.46178   0.64331   0.00000  Uiso   1.00
C719   C     0.75848   0.46158   0.35767   0.00000  Uiso   1.00
C720   C     0.73956   0.03816   0.64272   0.00000  Uiso   1.00
C721   C     0.90341   0.12718   0.46311   0.00000  Uiso   1.00
C722   C     0.62266   0.34397   0.53577   0.00000  Uiso   1.00
C723   C     0.59712   0.37249   0.46295   0.00000  Uiso   1.00
C724   C     0.87697   0.15618   0.53554   0.00000  Uiso   1.00
C725   C     0.58360   0.11435   0.51705   0.00000  Uiso   1.00
C726   C     0.86641   0.33209   0.48222   0.00000  Uiso   1.00
C727   C     0.91654   0.38581   0.51659   0.00000  Uiso   1.00
C728   C     0.63349   0.16786   0.48184   0.00000  Uiso   1.00
C729   C     0.62751   0.40592   0.46427   0.00000  Uiso   1.00
C730   C     0.84631   0.12293   0.53653   0.00000  Uiso   1.00
C731   C     0.87287   0.09383   0.46424   0.00000  Uiso   1.00
C732   C     0.65307   0.37742   0.53708   0.00000  Uiso   1.00
C733   C     0.88365   0.41799   0.51765   0.00000  Uiso   1.00
C734   C     0.66644   0.13573   0.48279   0.00000  Uiso   1.00
C735   C     0.61663   0.08232   0.51826   0.00000  Uiso   1.00
C736   C     0.83351   0.36428   0.48326   0.00000  Uiso   1.00
C737   C     0.59421   0.34193   0.49906   0.00000  Uiso   1.00
C738   C     0.90591   0.15792   0.49912   0.00000  Uiso   1.00
C739   C     0.90730   0.34324   0.49916   0.00000  Uiso   1.00
C740   C     0.59266   0.15674   0.49907   0.00000  Uiso   1.00
C741   C     0.84400   0.09207   0.50069   0.00000  Uiso   1.00
C742   C     0.65593   0.40798   0.50097   0.00000  Uiso   1.00
C743   C     0.65742   0.09338   0.50090   0.00000  Uiso   1.00
C744   C     0.84272   0.40681   0.50080   0.00000  Uiso   1.00
N745   N     0.97130   0.32575   0.38198   0.00000  Uiso   1.00
H746   H     0.99610   0.33753   0.40208   0.00000  Uiso   1.00
H747   H     0.96152   0.35217   0.36123   0.00000  Uiso   1.00
N748   N     0.51751   0.17119   0.61792   0.00000  Uiso   1.00
H749   H     0.54869   0.15953   0.62592   0.00000  Uiso   1.00
H750   H     0.99523   0.14736   0.62858   0.00000  Uiso   1.00
N751   N     0.52501   0.17170   0.37829   0.00000  Uiso   1.00
H752   H     0.50558   0.16623   0.40619   0.00000  Uiso   1.00
H753   H     0.55727   0.17540   0.38794   0.00000  Uiso   1.00
N754   N     0.98078   0.32964   0.62070   0.00000  Uiso   1.00
H755   H     0.94886   0.32935   0.60920   0.00000  Uiso   1.00
H756   H     0.50274   0.33413   0.59458   0.00000  Uiso   1.00
N757   N     0.73302   0.07896   0.38203   0.00000  Uiso   1.00
H758   H     0.75662   0.10213   0.37313   0.00000  Uiso   1.00
H759   H     0.70250   0.09182   0.37319   0.00000  Uiso   1.00
N760   N     0.77355   0.42127   0.62149   0.00000  Uiso   1.00
H761   H     0.75452   0.41647   0.59324   0.00000  Uiso   1.00
H762   H     0.80600   0.42442   0.61218   0.00000  Uiso   1.00
N763   N     0.76606   0.42091   0.38196   0.00000  Uiso   1.00
H764   H     0.79703   0.40869   0.37378   0.00000  Uiso   1.00
H765   H     0.74336   0.39745   0.37144   0.00000  Uiso   1.00
N766   N     0.72622   0.07753   0.61876   0.00000  Uiso   1.00
H767   H     0.74429   0.10459   0.62993   0.00000  Uiso   1.00
H768   H     0.69374   0.08428   0.62663   0.00000  Uiso   1.00
N769   N     0.93278   0.12812   0.42585   0.00000  Uiso   1.00
O770   O     0.92319   0.15320   0.39141   0.00000  Uiso   1.00
O771   O     0.96122   0.09577   0.42112   0.00000  Uiso   1.00
N772   N     0.62152   0.31174   0.57169   0.00000  Uiso   1.00
O773   O     0.62883   0.26941   0.56360   0.00000  Uiso   1.00
O774   O     0.61404   0.32481   0.61271   0.00000  Uiso   1.00
N775   N     0.56832   0.37132   0.42536   0.00000  Uiso   1.00
O776   O     0.57817   0.34551   0.39147   0.00000  Uiso   1.00
O777   O     0.54081   0.40433   0.41949   0.00000  Uiso   1.00
N778   N     0.87775   0.18858   0.57135   0.00000  Uiso   1.00
O779   O     0.87112   0.23095   0.56299   0.00000  Uiso   1.00
O780   O     0.88415   0.17563   0.61256   0.00000  Uiso   1.00
N781   N     0.54107   0.10383   0.53361   0.00000  Uiso   1.00
O782   O     0.53651   0.08240   0.57134   0.00000  Uiso   1.00
O783   O     0.50695   0.11256   0.50938   0.00000  Uiso   1.00
N784   N     0.85766   0.28747   0.46664   0.00000  Uiso   1.00
O785   O     0.82678   0.26456   0.48503   0.00000  Uiso   1.00
O786   O     0.87557   0.27267   0.42982   0.00000  Uiso   1.00
N787   N     0.95916   0.39639   0.53268   0.00000  Uiso   1.00
O788   O     0.96395   0.41755   0.57053   0.00000  Uiso   1.00
O789   O     0.99309   0.38789   0.50796   0.00000  Uiso   1.00
N790   N     0.64221   0.21250   0.46632   0.00000  Uiso   1.00
O791   O     0.67285   0.23553   0.48493   0.00000  Uiso   1.00
O792   O     0.62452   0.22726   0.42946   0.00000  Uiso   1.00
N793   N     0.62865   0.43815   0.42834   0.00000  Uiso   1.00
O794   O     0.62106   0.48044   0.43639   0.00000  Uiso   1.00
O795   O     0.63640   0.42510   0.38737   0.00000  Uiso   1.00
N796   N     0.81633   0.12234   0.57325   0.00000  Uiso   1.00
O797   O     0.82560   0.09810   0.60836   0.00000  Uiso   1.00
O798   O     0.78716   0.15416   0.57656   0.00000  Uiso   1.00
N799   N     0.87196   0.06149   0.42838   0.00000  Uiso   1.00
O800   O     0.87887   0.01914   0.43661   0.00000  Uiso   1.00
O801   O     0.86499   0.07448   0.38728   0.00000  Uiso   1.00
N802   N     0.68192   0.37867   0.57465   0.00000  Uiso   1.00
O803   O     0.67197   0.40421   0.60871   0.00000  Uiso   1.00
O804   O     0.71010   0.34620   0.58009   0.00000  Uiso   1.00
N805   N     0.89247   0.46267   0.53302   0.00000  Uiso   1.00
O806   O     0.92336   0.48545   0.51449   0.00000  Uiso   1.00
O807   O     0.87455   0.47772   0.56973   0.00000  Uiso   1.00
N808   N     0.70884   0.14614   0.46575   0.00000  Uiso   1.00
O809   O     0.71304   0.16779   0.42811   0.00000  Uiso   1.00
O810   O     0.74322   0.13700   0.48942   0.00000  Uiso   1.00
N811   N     0.60807   0.03783   0.53429   0.00000  Uiso   1.00
O812   O     0.57779   0.01430   0.51570   0.00000  Uiso   1.00
O813   O     0.62552   0.02375   0.57154   0.00000  Uiso   1.00
N814   N     0.79094   0.35378   0.46694   0.00000  Uiso   1.00
O815   O     0.78629   0.33246   0.42916   0.00000  Uiso   1.00
O816   O     0.75690   0.36242   0.49144   0.00000  Uiso   1.00
O817   O     0.04580   0.70419   0.53821   0.00000  Uiso   1.00
O818   O     0.45419   0.79581   0.46179   0.00000  Uiso   1.00
O819   O     0.45419   0.79581   0.53821   0.00000  Uiso   1.00
O820   O     0.04580   0.70419   0.46179   0.00000  Uiso   1.00
O821   O     0.45419   0.70419   0.46179   0.00000  Uiso   1.00
O822   O     0.04580   0.79581   0.53821   0.00000  Uiso   1.00
O823   O     0.04580   0.79581   0.46179   0.00000  Uiso   1.00
O824   O     0.45419   0.70419   0.53821   0.00000  Uiso   1.00
O825   O     0.29580   0.95419   0.53821   0.00000  Uiso   1.00
O826   O     0.20419   0.54581   0.46179   0.00000  Uiso   1.00
O827   O     0.20419   0.54581   0.53821   0.00000  Uiso   1.00
O828   O     0.29580   0.95419   0.46179   0.00000  Uiso   1.00
O829   O     0.20419   0.95419   0.46179   0.00000  Uiso   1.00
O830   O     0.29580   0.54581   0.53821   0.00000  Uiso   1.00
O831   O     0.29580   0.54581   0.46179   0.00000  Uiso   1.00
O832   O     0.20419   0.95419   0.53821   0.00000  Uiso   1.00
C833   C     0.05992   0.69026   0.49985   0.00000  Uiso   1.00
C834   C     0.44004   0.80971   0.49990   0.00000  Uiso   1.00
C835   C     0.43975   0.69038   0.49981   0.00000  Uiso   1.00
C836   C     0.06029   0.80957   0.49977   0.00000  Uiso   1.00
C837   C     0.30998   0.94032   0.50010   0.00000  Uiso   1.00
C838   C     0.19013   0.55980   0.50014   0.00000  Uiso   1.00
C839   C     0.18976   0.94040   0.50023   0.00000  Uiso   1.00
C840   C     0.31026   0.55956   0.50015   0.00000  Uiso   1.00
N841   N     0.00000   0.75000   0.61907   0.00000  Uiso   1.00
N842   N     0.00000   0.75000   0.38093   0.00000  Uiso   1.00
N843   N     0.25000   0.50000   0.61907   0.00000  Uiso   1.00
N844   N     0.25000   0.50000   0.38093   0.00000  Uiso   1.00
Zn845  Zn    0.00000   0.75000   0.55104   0.00000  Uiso   1.00
Zn846  Zn    0.00000   0.75000   0.44896   0.00000  Uiso   1.00
Zn847  Zn    0.25000   0.50000   0.55104   0.00000  Uiso   1.00
Zn848  Zn    0.25000   0.50000   0.44896   0.00000  Uiso   1.00
C849   C     0.48787   0.78765   0.35763   0.00000  Uiso   1.00
C850   C     0.00933   0.71178   0.64223   0.00000  Uiso   1.00
C851   C     0.01108   0.71205   0.35658   0.00000  Uiso   1.00
C852   C     0.48987   0.78826   0.64313   0.00000  Uiso   1.00
C853   C     0.24091   0.53843   0.35752   0.00000  Uiso   1.00
C854   C     0.26011   0.96178   0.64331   0.00000  Uiso   1.00
C855   C     0.25848   0.96158   0.35767   0.00000  Uiso   1.00
C856   C     0.23956   0.53816   0.64272   0.00000  Uiso   1.00
C857   C     0.40341   0.62718   0.46311   0.00000  Uiso   1.00
C858   C     0.12266   0.84397   0.53577   0.00000  Uiso   1.00
C859   C     0.09712   0.87249   0.46295   0.00000  Uiso   1.00
C860   C     0.37697   0.65618   0.53554   0.00000  Uiso   1.00
C861   C     0.08360   0.61435   0.51705   0.00000  Uiso   1.00
C862   C     0.36641   0.83209   0.48222   0.00000  Uiso   1.00
C863   C     0.41654   0.88581   0.51659   0.00000  Uiso   1.00
C864   C     0.13349   0.66786   0.48184   0.00000  Uiso   1.00
C865   C     0.12751   0.90592   0.46427   0.00000  Uiso   1.00
C866   C     0.34631   0.62293   0.53653   0.00000  Uiso   1.00
C867   C     0.37287   0.59383   0.46424   0.00000  Uiso   1.00
C868   C     0.15307   0.87742   0.53708   0.00000  Uiso   1.00
C869   C     0.38365   0.91799   0.51765   0.00000  Uiso   1.00
C870   C     0.16644   0.63573   0.48279   0.00000  Uiso   1.00
C871   C     0.11663   0.58232   0.51826   0.00000  Uiso   1.00
C872   C     0.33351   0.86428   0.48326   0.00000  Uiso   1.00
C873   C     0.09421   0.84193   0.49906   0.00000  Uiso   1.00
C874   C     0.40591   0.65792   0.49912   0.00000  Uiso   1.00
C875   C     0.40730   0.84324   0.49916   0.00000  Uiso   1.00
C876   C     0.09266   0.65674   0.49907   0.00000  Uiso   1.00
C877   C     0.34400   0.59207   0.50069   0.00000  Uiso   1.00
C878   C     0.15593   0.90798   0.50097   0.00000  Uiso   1.00
C879   C     0.15742   0.59338   0.50090   0.00000  Uiso   1.00
C880   C     0.34272   0.90681   0.50080   0.00000  Uiso   1.00
N881   N     0.47130   0.82575   0.38198   0.00000  Uiso   1.00
H882   H     0.49610   0.83753   0.40208   0.00000  Uiso   1.00
H883   H     0.46152   0.85217   0.36123   0.00000  Uiso   1.00
N884   N     0.01751   0.67119   0.61792   0.00000  Uiso   1.00
H885   H     0.04869   0.65953   0.62592   0.00000  Uiso   1.00
H886   H     0.49523   0.64736   0.62858   0.00000  Uiso   1.00
N887   N     0.02501   0.67170   0.37829   0.00000  Uiso   1.00
H888   H     0.00558   0.66623   0.40619   0.00000  Uiso   1.00
H889   H     0.05727   0.67540   0.38794   0.00000  Uiso   1.00
N890   N     0.48078   0.82964   0.62070   0.00000  Uiso   1.00
H891   H     0.44886   0.82935   0.60920   0.00000  Uiso   1.00
H892   H     0.00274   0.83413   0.59458   0.00000  Uiso   1.00
N893   N     0.23302   0.57896   0.38203   0.00000  Uiso   1.00
H894   H     0.25662   0.60213   0.37313   0.00000  Uiso   1.00
H895   H     0.20250   0.59182   0.37319   0.00000  Uiso   1.00
N896   N     0.27355   0.92127   0.62149   0.00000  Uiso   1.00
H897   H     0.25452   0.91647   0.59324   0.00000  Uiso   1.00
H898   H     0.30600   0.92442   0.61218   0.00000  Uiso   1.00
N899   N     0.26606   0.92091   0.38196   0.00000  Uiso   1.00
H900   H     0.29703   0.90869   0.37378   0.00000  Uiso   1.00
H901   H     0.24336   0.89745   0.37144   0.00000  Uiso   1.00
N902   N     0.22622   0.57753   0.61876   0.00000  Uiso   1.00
H903   H     0.24429   0.60459   0.62993   0.00000  Uiso   1.00
H904   H     0.19374   0.58428   0.62663   0.00000  Uiso   1.00
N905   N     0.43278   0.62812   0.42585   0.00000  Uiso   1.00
O906   O     0.42319   0.65320   0.39141   0.00000  Uiso   1.00
O907   O     0.46122   0.59577   0.42112   0.00000  Uiso   1.00
N908   N     0.12152   0.81174   0.57169   0.00000  Uiso   1.00
O909   O     0.12883   0.76941   0.56360   0.00000  Uiso   1.00
O910   O     0.11404   0.82481   0.61271   0.00000  Uiso   1.00
N911   N     0.06832   0.87132   0.42536   0.00000  Uiso   1.00
O912   O     0.07817   0.84551   0.39147   0.00000  Uiso   1.00
O913   O     0.04081   0.90433   0.41949   0.00000  Uiso   1.00
N914   N     0.37775   0.68858   0.57135   0.00000  Uiso   1.00
O915   O     0.37112   0.73095   0.56299   0.00000  Uiso   1.00
O916   O     0.38415   0.67563   0.61256   0.00000  Uiso   1.00
N917   N     0.04107   0.60383   0.53361   0.00000  Uiso   1.00
O918   O     0.03651   0.58240   0.57134   0.00000  Uiso   1.00
O919   O     0.00695   0.61256   0.50938   0.00000  Uiso   1.00
N920   N     0.35766   0.78747   0.46664   0.00000  Uiso   1.00
O921   O     0.32678   0.76456   0.48503   0.00000  Uiso   1.00
O922   O     0.37557   0.77267   0.42982   0.00000  Uiso   1.00
N923   N     0.45916   0.89639   0.53268   0.00000  Uiso   1.00
O924   O     0.46395   0.91755   0.57053   0.00000  Uiso   1.00
O925   O     0.49309   0.88789   0.50796   0.00000  Uiso   1.00
N926   N     0.14221   0.71250   0.46632   0.00000  Uiso   1.00
O927   O     0.17285   0.73553   0.48493   0.00000  Uiso   1.00
O928   O     0.12452   0.72726   0.42946   0.00000  Uiso   1.00
N929   N     0.12865   0.93815   0.42834   0.00000  Uiso   1.00
O930   O     0.12106   0.98044   0.43639   0.00000  Uiso   1.00
O931   O     0.13640   0.92510   0.38737   0.00000  Uiso   1.00
N932   N     0.31633   0.62234   0.57325   0.00000  Uiso   1.00
O933   O     0.32560   0.59810   0.60836   0.00000  Uiso   1.00
O934   O     0.28716   0.65416   0.57656   0.00000  Uiso   1.00
N935   N     0.37196   0.56149   0.42838   0.00000  Uiso   1.00
O936   O     0.37887   0.51914   0.43661   0.00000  Uiso   1.00
O937   O     0.36499   0.57448   0.38728   0.00000  Uiso   1.00
N938   N     0.18192   0.87867   0.57465   0.00000  Uiso   1.00
O939   O     0.17197   0.90421   0.60871   0.00000  Uiso   1.00
O940   O     0.21010   0.84620   0.58009   0.00000  Uiso   1.00
N941   N     0.39247   0.96267   0.53302   0.00000  Uiso   1.00
O942   O     0.42336   0.98545   0.51449   0.00000  Uiso   1.00
O943   O     0.37455   0.97772   0.56973   0.00000  Uiso   1.00
N944   N     0.20884   0.64614   0.46575   0.00000  Uiso   1.00
O945   O     0.21304   0.66779   0.42811   0.00000  Uiso   1.00
O946   O     0.24322   0.63700   0.48942   0.00000  Uiso   1.00
N947   N     0.10807   0.53783   0.53429   0.00000  Uiso   1.00
O948   O     0.07779   0.51430   0.51570   0.00000  Uiso   1.00
O949   O     0.12552   0.52375   0.57154   0.00000  Uiso   1.00
N950   N     0.29094   0.85378   0.46694   0.00000  Uiso   1.00
O951   O     0.28629   0.83246   0.42916   0.00000  Uiso   1.00
O952   O     0.25690   0.86242   0.49144   0.00000  Uiso   1.00
O953   O     0.54580   0.70419   0.53821   0.00000  Uiso   1.00
O954   O     0.95419   0.79581   0.46179   0.00000  Uiso   1.00
O955   O     0.95419   0.79581   0.53821   0.00000  Uiso   1.00
O956   O     0.54580   0.70419   0.46179   0.00000  Uiso   1.00
O957   O     0.95419   0.70419   0.46179   0.00000  Uiso   1.00
O958   O     0.54580   0.79581   0.53821   0.00000  Uiso   1.00
O959   O     0.54580   0.79581   0.46179   0.00000  Uiso   1.00
O960   O     0.95419   0.70419   0.53821   0.00000  Uiso   1.00
O961   O     0.79580   0.95419   0.53821   0.00000  Uiso   1.00
O962   O     0.70419   0.54581   0.46179   0.00000  Uiso   1.00
O963   O     0.70419   0.54581   0.53821   0.00000  Uiso   1.00
O964   O     0.79580   0.95419   0.46179   0.00000  Uiso   1.00
O965   O     0.70419   0.95419   0.46179   0.00000  Uiso   1.00
O966   O     0.79580   0.54581   0.53821   0.00000  Uiso   1.00
O967   O     0.79580   0.54581   0.46179   0.00000  Uiso   1.00
O968   O     0.70419   0.95419   0.53821   0.00000  Uiso   1.00
C969   C     0.55992   0.69026   0.49985   0.00000  Uiso   1.00
C970   C     0.94004   0.80971   0.49990   0.00000  Uiso   1.00
C971   C     0.93975   0.69038   0.49981   0.00000  Uiso   1.00
C972   C     0.56029   0.80957   0.49977   0.00000  Uiso   1.00
C973   C     0.80998   0.94032   0.50010   0.00000  Uiso   1.00
C974   C     0.69013   0.55980   0.50014   0.00000  Uiso   1.00
C975   C     0.68976   0.94040   0.50023   0.00000  Uiso   1.00
C976   C     0.81026   0.55956   0.50015   0.00000  Uiso   1.00
N977   N     0.50000   0.75000   0.61907   0.00000  Uiso   1.00
N978   N     0.50000   0.75000   0.38093   0.00000  Uiso   1.00
N979   N     0.75000   0.50000   0.61907   0.00000  Uiso   1.00
N980   N     0.75000   0.50000   0.38093   0.00000  Uiso   1.00
Zn981  Zn    0.50000   0.75000   0.55104   0.00000  Uiso   1.00
Zn982  Zn    0.50000   0.75000   0.44896   0.00000  Uiso   1.00
Zn983  Zn    0.75000   0.50000   0.55104   0.00000  Uiso   1.00
Zn984  Zn    0.75000   0.50000   0.44896   0.00000  Uiso   1.00
C985   C     0.98787   0.78765   0.35763   0.00000  Uiso   1.00
C986   C     0.50933   0.71178   0.64223   0.00000  Uiso   1.00
C987   C     0.51108   0.71205   0.35658   0.00000  Uiso   1.00
C988   C     0.98987   0.78826   0.64313   0.00000  Uiso   1.00
C989   C     0.74091   0.53843   0.35752   0.00000  Uiso   1.00
C990   C     0.76011   0.96178   0.64331   0.00000  Uiso   1.00
C991   C     0.75848   0.96158   0.35767   0.00000  Uiso   1.00
C992   C     0.73956   0.53816   0.64272   0.00000  Uiso   1.00
C993   C     0.90341   0.62718   0.46311   0.00000  Uiso   1.00
C994   C     0.62266   0.84397   0.53577   0.00000  Uiso   1.00
C995   C     0.59712   0.87249   0.46295   0.00000  Uiso   1.00
C996   C     0.87697   0.65618   0.53554   0.00000  Uiso   1.00
C997   C     0.58360   0.61435   0.51705   0.00000  Uiso   1.00
C998   C     0.86641   0.83209   0.48222   0.00000  Uiso   1.00
C999   C     0.91654   0.88581   0.51659   0.00000  Uiso   1.00
C1000  C     0.63349   0.66786   0.48184   0.00000  Uiso   1.00
C1001  C     0.62751   0.90592   0.46427   0.00000  Uiso   1.00
C1002  C     0.84631   0.62293   0.53653   0.00000  Uiso   1.00
C1003  C     0.87287   0.59383   0.46424   0.00000  Uiso   1.00
C1004  C     0.65307   0.87742   0.53708   0.00000  Uiso   1.00
C1005  C     0.88365   0.91799   0.51765   0.00000  Uiso   1.00
C1006  C     0.66644   0.63573   0.48279   0.00000  Uiso   1.00
C1007  C     0.61663   0.58232   0.51826   0.00000  Uiso   1.00
C1008  C     0.83351   0.86428   0.48326   0.00000  Uiso   1.00
C1009  C     0.59421   0.84193   0.49906   0.00000  Uiso   1.00
C1010  C     0.90591   0.65792   0.49912   0.00000  Uiso   1.00
C1011  C     0.90730   0.84324   0.49916   0.00000  Uiso   1.00
C1012  C     0.59266   0.65674   0.49907   0.00000  Uiso   1.00
C1013  C     0.84400   0.59207   0.50069   0.00000  Uiso   1.00
C1014  C     0.65593   0.90798   0.50097   0.00000  Uiso   1.00
C1015  C     0.65742   0.59338   0.50090   0.00000  Uiso   1.00
C1016  C     0.84272   0.90681   0.50080   0.00000  Uiso   1.00
N1017  N     0.97130   0.82575   0.38198   0.00000  Uiso   1.00
H1018  H     0.99610   0.83753   0.40208   0.00000  Uiso   1.00
H1019  H     0.96152   0.85217   0.36123   0.00000  Uiso   1.00
N1020  N     0.51751   0.67119   0.61792   0.00000  Uiso   1.00
H1021  H     0.54869   0.65953   0.62592   0.00000  Uiso   1.00
H1022  H     0.99523   0.64736   0.62858   0.00000  Uiso   1.00
N1023  N     0.52501   0.67170   0.37829   0.00000  Uiso   1.00
H1024  H     0.50558   0.66623   0.40619   0.00000  Uiso   1.00
H1025  H     0.55727   0.67540   0.38794   0.00000  Uiso   1.00
N1026  N     0.98078   0.82964   0.62070   0.00000  Uiso   1.00
H1027  H     0.94886   0.82935   0.60920   0.00000  Uiso   1.00
H1028  H     0.50274   0.83413   0.59458   0.00000  Uiso   1.00
N1029  N     0.73302   0.57896   0.38203   0.00000  Uiso   1.00
H1030  H     0.75662   0.60213   0.37313   0.00000  Uiso   1.00
H1031  H     0.70250   0.59182   0.37319   0.00000  Uiso   1.00
N1032  N     0.77355   0.92127   0.62149   0.00000  Uiso   1.00
H1033  H     0.75452   0.91647   0.59324   0.00000  Uiso   1.00
H1034  H     0.80600   0.92442   0.61218   0.00000  Uiso   1.00
N1035  N     0.76606   0.92091   0.38196   0.00000  Uiso   1.00
H1036  H     0.79703   0.90869   0.37378   0.00000  Uiso   1.00
H1037  H     0.74336   0.89745   0.37144   0.00000  Uiso   1.00
N1038  N     0.72622   0.57753   0.61876   0.00000  Uiso   1.00
H1039  H     0.74429   0.60459   0.62993   0.00000  Uiso   1.00
H1040  H     0.69374   0.58428   0.62663   0.00000  Uiso   1.00
N1041  N     0.93278   0.62812   0.42585   0.00000  Uiso   1.00
O1042  O     0.92319   0.65320   0.39141   0.00000  Uiso   1.00
O1043  O     0.96122   0.59577   0.42112   0.00000  Uiso   1.00
N1044  N     0.62152   0.81174   0.57169   0.00000  Uiso   1.00
O1045  O     0.62883   0.76941   0.56360   0.00000  Uiso   1.00
O1046  O     0.61404   0.82481   0.61271   0.00000  Uiso   1.00
N1047  N     0.56832   0.87132   0.42536   0.00000  Uiso   1.00
O1048  O     0.57817   0.84551   0.39147   0.00000  Uiso   1.00
O1049  O     0.54081   0.90433   0.41949   0.00000  Uiso   1.00
N1050  N     0.87775   0.68858   0.57135   0.00000  Uiso   1.00
O1051  O     0.87112   0.73095   0.56299   0.00000  Uiso   1.00
O1052  O     0.88415   0.67563   0.61256   0.00000  Uiso   1.00
N1053  N     0.54107   0.60383   0.53361   0.00000  Uiso   1.00
O1054  O     0.53651   0.58240   0.57134   0.00000  Uiso   1.00
O1055  O     0.50695   0.61256   0.50938   0.00000  Uiso   1.00
N1056  N     0.85766   0.78747   0.46664   0.00000  Uiso   1.00
O1057  O     0.82678   0.76456   0.48503   0.00000  Uiso   1.00
O1058  O     0.87557   0.77267   0.42982   0.00000  Uiso   1.00
N1059  N     0.95916   0.89639   0.53268   0.00000  Uiso   1.00
O1060  O     0.96395   0.91755   0.57053   0.00000  Uiso   1.00
O1061  O     0.99309   0.88789   0.50796   0.00000  Uiso   1.00
N1062  N     0.64221   0.71250   0.46632   0.00000  Uiso   1.00
O1063  O     0.67285   0.73553   0.48493   0.00000  Uiso   1.00
O1064  O     0.62452   0.72726   0.42946   0.00000  Uiso   1.00
N1065  N     0.62865   0.93815   0.42834   0.00000  Uiso   1.00
O1066  O     0.62106   0.98044   0.43639   0.00000  Uiso   1.00
O1067  O     0.63640   0.92510   0.38737   0.00000  Uiso   1.00
N1068  N     0.81633   0.62234   0.57325   0.00000  Uiso   1.00
O1069  O     0.82560   0.59810   0.60836   0.00000  Uiso   1.00
O1070  O     0.78716   0.65416   0.57656   0.00000  Uiso   1.00
N1071  N     0.87196   0.56149   0.42838   0.00000  Uiso   1.00
O1072  O     0.87887   0.51914   0.43661   0.00000  Uiso   1.00
O1073  O     0.86499   0.57448   0.38728   0.00000  Uiso   1.00
N1074  N     0.68192   0.87867   0.57465   0.00000  Uiso   1.00
O1075  O     0.67197   0.90421   0.60871   0.00000  Uiso   1.00
O1076  O     0.71010   0.84620   0.58009   0.00000  Uiso   1.00
N1077  N     0.89247   0.96267   0.53302   0.00000  Uiso   1.00
O1078  O     0.92336   0.98545   0.51449   0.00000  Uiso   1.00
O1079  O     0.87455   0.97772   0.56973   0.00000  Uiso   1.00
N1080  N     0.70884   0.64614   0.46575   0.00000  Uiso   1.00
O1081  O     0.71304   0.66779   0.42811   0.00000  Uiso   1.00
O1082  O     0.74322   0.63700   0.48942   0.00000  Uiso   1.00
N1083  N     0.60807   0.53783   0.53429   0.00000  Uiso   1.00
O1084  O     0.57779   0.51430   0.51570   0.00000  Uiso   1.00
O1085  O     0.62552   0.52375   0.57154   0.00000  Uiso   1.00
N1086  N     0.79094   0.85378   0.46694   0.00000  Uiso   1.00
O1087  O     0.78629   0.83246   0.42916   0.00000  Uiso   1.00
O1088  O     0.75690   0.86242   0.49144   0.00000  Uiso   1.00
O1089  O     0.04580   0.20419   0.87154   0.00000  Uiso   1.00
O1090  O     0.45419   0.29581   0.79513   0.00000  Uiso   1.00
O1091  O     0.45419   0.29581   0.87154   0.00000  Uiso   1.00
O1092  O     0.04580   0.20419   0.79513   0.00000  Uiso   1.00
O1093  O     0.45419   0.20419   0.79513   0.00000  Uiso   1.00
O1094  O     0.04580   0.29581   0.87154   0.00000  Uiso   1.00
O1095  O     0.04580   0.29581   0.79513   0.00000  Uiso   1.00
O1096  O     0.45419   0.20419   0.87154   0.00000  Uiso   1.00
O1097  O     0.29580   0.45419   0.87154   0.00000  Uiso   1.00
O1098  O     0.20419   0.04581   0.79513   0.00000  Uiso   1.00
O1099  O     0.20419   0.04581   0.87154   0.00000  Uiso   1.00
O1100  O     0.29580   0.45419   0.79513   0.00000  Uiso   1.00
O1101  O     0.20419   0.45419   0.79513   0.00000  Uiso   1.00
O1102  O     0.29580   0.04581   0.87154   0.00000  Uiso   1.00
O1103  O     0.29580   0.04581   0.79513   0.00000  Uiso   1.00
O1104  O     0.20419   0.45419   0.87154   0.00000  Uiso   1.00
C1105  C     0.05992   0.19026   0.83318   0.00000  Uiso   1.00
C1106  C     0.44004   0.30971   0.83323   0.00000  Uiso   1.00
C1107  C     0.43975   0.19038   0.83314   0.00000  Uiso   1.00
C1108  C     0.06029   0.30957   0.83311   0.00000  Uiso   1.00
C1109  C     0.30998   0.44032   0.83343   0.00000  Uiso   1.00
C1110  C     0.19013   0.05980   0.83348   0.00000  Uiso   1.00
C1111  C     0.18976   0.44040   0.83357   0.00000  Uiso   1.00
C1112  C     0.31026   0.05956   0.83349   0.00000  Uiso   1.00
N1113  N     0.00000   0.25000   0.95240   0.00000  Uiso   1.00
N1114  N     0.00000   0.25000   0.71427   0.00000  Uiso   1.00
N1115  N     0.25000   0.00000   0.95240   0.00000  Uiso   1.00
N1116  N     0.25000   0.00000   0.71427   0.00000  Uiso   1.00
Zn1117 Zn    0.00000   0.25000   0.88437   0.00000  Uiso   1.00
Zn1118 Zn    0.00000   0.25000   0.78229   0.00000  Uiso   1.00
Zn1119 Zn    0.25000   0.00000   0.88437   0.00000  Uiso   1.00
Zn1120 Zn    0.25000   0.00000   0.78229   0.00000  Uiso   1.00
C1121  C     0.48787   0.28765   0.69096   0.00000  Uiso   1.00
C1122  C     0.00933   0.21178   0.97556   0.00000  Uiso   1.00
C1123  C     0.01108   0.21205   0.68991   0.00000  Uiso   1.00
C1124  C     0.48987   0.28826   0.97647   0.00000  Uiso   1.00
C1125  C     0.24091   0.03843   0.69085   0.00000  Uiso   1.00
C1126  C     0.26011   0.46178   0.97664   0.00000  Uiso   1.00
C1127  C     0.25848   0.46158   0.69101   0.00000  Uiso   1.00
C1128  C     0.23956   0.03816   0.97605   0.00000  Uiso   1.00
C1129  C     0.40341   0.12718   0.79644   0.00000  Uiso   1.00
C1130  C     0.12266   0.34397   0.86910   0.00000  Uiso   1.00
C1131  C     0.09712   0.37249   0.79629   0.00000  Uiso   1.00
C1132  C     0.37697   0.15618   0.86887   0.00000  Uiso   1.00
C1133  C     0.08360   0.11435   0.85038   0.00000  Uiso   1.00
C1134  C     0.36641   0.33209   0.81555   0.00000  Uiso   1.00
C1135  C     0.41654   0.38581   0.84992   0.00000  Uiso   1.00
C1136  C     0.13349   0.16786   0.81517   0.00000  Uiso   1.00
C1137  C     0.12751   0.40592   0.79761   0.00000  Uiso   1.00
C1138  C     0.34631   0.12293   0.86987   0.00000  Uiso   1.00
C1139  C     0.37287   0.09383   0.79758   0.00000  Uiso   1.00
C1140  C     0.15307   0.37742   0.87041   0.00000  Uiso   1.00
C1141  C     0.38365   0.41799   0.85099   0.00000  Uiso   1.00
C1142  C     0.16644   0.13573   0.81612   0.00000  Uiso   1.00
C1143  C     0.11663   0.08232   0.85160   0.00000  Uiso   1.00
C1144  C     0.33351   0.36428   0.81660   0.00000  Uiso   1.00
C1145  C     0.09421   0.34193   0.83239   0.00000  Uiso   1.00
C1146  C     0.40591   0.15792   0.83246   0.00000  Uiso   1.00
C1147  C     0.40730   0.34324   0.83249   0.00000  Uiso   1.00
C1148  C     0.09266   0.15674   0.83241   0.00000  Uiso   1.00
C1149  C     0.34400   0.09207   0.83403   0.00000  Uiso   1.00
C1150  C     0.15593   0.40798   0.83430   0.00000  Uiso   1.00
C1151  C     0.15742   0.09338   0.83423   0.00000  Uiso   1.00
C1152  C     0.34272   0.40681   0.83413   0.00000  Uiso   1.00
N1153  N     0.47130   0.32575   0.71532   0.00000  Uiso   1.00
H1154  H     0.49610   0.33753   0.73541   0.00000  Uiso   1.00
H1155  H     0.46152   0.35217   0.69456   0.00000  Uiso   1.00
N1156  N     0.01751   0.17119   0.95125   0.00000  Uiso   1.00
H1157  H     0.04869   0.15953   0.95925   0.00000  Uiso   1.00
H1158  H     0.49523   0.14736   0.96191   0.00000  Uiso   1.00
N1159  N     0.02501   0.17170   0.71162   0.00000  Uiso   1.00
H1160  H     0.00558   0.16623   0.73952   0.00000  Uiso   1.00
H1161  H     0.05727   0.17540   0.72128   0.00000  Uiso   1.00
N1162  N     0.48078   0.32964   0.95404   0.00000  Uiso   1.00
H1163  H     0.44886   0.32935   0.94254   0.00000  Uiso   1.00
H1164  H     0.00274   0.33413   0.92791   0.00000  Uiso   1.00
N1165  N     0.23302   0.07896   0.71536   0.00000  Uiso   1.00
H1166  H     0.25662   0.10213   0.70647   0.00000  Uiso   1.00
H1167  H     0.20250   0.09182   0.70653   0.00000  Uiso   1.00
N1168  N     0.27355   0.42127   0.95482   0.00000  Uiso   1.00
H1169  H     0.25452   0.41647   0.92657   0.00000  Uiso   1.00
H1170  H     0.30600   0.42442   0.94552   0.00000  Uiso   1.00
N1171  N     0.26606   0.42091   0.71530   0.00000  Uiso   1.00
H1172  H     0.29703   0.40869   0.70711   0.00000  Uiso   1.00
H1173  H     0.24336   0.39745   0.70478   0.00000  Uiso   1.00
N1174  N     0.22622   0.07753   0.95209   0.00000  Uiso   1.00
H1175  H     0.24429   0.10459   0.96326   0.00000  Uiso   1.00
H1176  H     0.19374   0.08428   0.95997   0.00000  Uiso   1.00
N1177  N     0.43278   0.12812   0.75919   0.00000  Uiso   1.00
O1178  O     0.42319   0.15320   0.72474   0.00000  Uiso   1.00
O1179  O     0.46122   0.09577   0.75445   0.00000  Uiso   1.00
N1180  N     0.12152   0.31174   0.90503   0.00000  Uiso   1.00
O1181  O     0.12883   0.26941   0.89693   0.00000  Uiso   1.00
O1182  O     0.11404   0.32481   0.94604   0.00000  Uiso   1.00
N1183  N     0.06832   0.37132   0.75869   0.00000  Uiso   1.00
O1184  O     0.07817   0.34551   0.72480   0.00000  Uiso   1.00
O1185  O     0.04081   0.40433   0.75282   0.00000  Uiso   1.00
N1186  N     0.37775   0.18858   0.90469   0.00000  Uiso   1.00
O1187  O     0.37112   0.23095   0.89632   0.00000  Uiso   1.00
O1188  O     0.38415   0.17563   0.94589   0.00000  Uiso   1.00
N1189  N     0.04107   0.10383   0.86694   0.00000  Uiso   1.00
O1190  O     0.03651   0.08240   0.90467   0.00000  Uiso   1.00
O1191  O     0.00695   0.11256   0.84271   0.00000  Uiso   1.00
N1192  N     0.35766   0.28747   0.79997   0.00000  Uiso   1.00
O1193  O     0.32678   0.26456   0.81837   0.00000  Uiso   1.00
O1194  O     0.37557   0.27267   0.76316   0.00000  Uiso   1.00
N1195  N     0.45916   0.39639   0.86602   0.00000  Uiso   1.00
O1196  O     0.46395   0.41755   0.90387   0.00000  Uiso   1.00
O1197  O     0.49309   0.38789   0.84130   0.00000  Uiso   1.00
N1198  N     0.14221   0.21250   0.79966   0.00000  Uiso   1.00
O1199  O     0.17285   0.23553   0.81826   0.00000  Uiso   1.00
O1200  O     0.12452   0.22726   0.76279   0.00000  Uiso   1.00
N1201  N     0.12865   0.43815   0.76168   0.00000  Uiso   1.00
O1202  O     0.12106   0.48044   0.76972   0.00000  Uiso   1.00
O1203  O     0.13640   0.42510   0.72071   0.00000  Uiso   1.00
N1204  N     0.31633   0.12234   0.90658   0.00000  Uiso   1.00
O1205  O     0.32560   0.09810   0.94170   0.00000  Uiso   1.00
O1206  O     0.28716   0.15416   0.90989   0.00000  Uiso   1.00
N1207  N     0.37196   0.06149   0.76171   0.00000  Uiso   1.00
O1208  O     0.37887   0.01914   0.76994   0.00000  Uiso   1.00
O1209  O     0.36499   0.07448   0.72061   0.00000  Uiso   1.00
N1210  N     0.18192   0.37867   0.90798   0.00000  Uiso   1.00
O1211  O     0.17197   0.40421   0.94204   0.00000  Uiso   1.00
O1212  O     0.21010   0.34620   0.91342   0.00000  Uiso   1.00
N1213  N     0.39247   0.46267   0.86635   0.00000  Uiso   1.00
O1214  O     0.42336   0.48545   0.84783   0.00000  Uiso   1.00
O1215  O     0.37455   0.47772   0.90306   0.00000  Uiso   1.00
N1216  N     0.20884   0.14614   0.79908   0.00000  Uiso   1.00
O1217  O     0.21304   0.16779   0.76144   0.00000  Uiso   1.00
O1218  O     0.24322   0.13700   0.82275   0.00000  Uiso   1.00
N1219  N     0.10807   0.03783   0.86762   0.00000  Uiso   1.00
O1220  O     0.07779   0.01430   0.84903   0.00000  Uiso   1.00
O1221  O     0.12552   0.02375   0.90487   0.00000  Uiso   1.00
N1222  N     0.29094   0.35378   0.80027   0.00000  Uiso   1.00
O1223  O     0.28629   0.33246   0.76249   0.00000  Uiso   1.00
O1224  O     0.25690   0.36242   0.82477   0.00000  Uiso   1.00
O1225  O     0.54580   0.20419   0.87154   0.00000  Uiso   1.00
O1226  O     0.95419   0.29581   0.79513   0.00000  Uiso   1.00
O1227  O     0.95419   0.29581   0.87154   0.00000  Uiso   1.00
O1228  O     0.54580   0.20419   0.79513   0.00000  Uiso   1.00
O1229  O     0.95419   0.20419   0.79513   0.00000  Uiso   1.00
O1230  O     0.54580   0.29581   0.87154   0.00000  Uiso   1.00
O1231  O     0.54580   0.29581   0.79513   0.00000  Uiso   1.00
O1232  O     0.95419   0.20419   0.87154   0.00000  Uiso   1.00
O1233  O     0.79580   0.45419   0.87154   0.00000  Uiso   1.00
O1234  O     0.70419   0.04581   0.79513   0.00000  Uiso   1.00
O1235  O     0.70419   0.04581   0.87154   0.00000  Uiso   1.00
O1236  O     0.79580   0.45419   0.79513   0.00000  Uiso   1.00
O1237  O     0.70419   0.45419   0.79513   0.00000  Uiso   1.00
O1238  O     0.79580   0.04581   0.87154   0.00000  Uiso   1.00
O1239  O     0.79580   0.04581   0.79513   0.00000  Uiso   1.00
O1240  O     0.70419   0.45419   0.87154   0.00000  Uiso   1.00
C1241  C     0.55992   0.19026   0.83318   0.00000  Uiso   1.00
C1242  C     0.94004   0.30971   0.83323   0.00000  Uiso   1.00
C1243  C     0.93975   0.19038   0.83314   0.00000  Uiso   1.00
C1244  C     0.56029   0.30957   0.83311   0.00000  Uiso   1.00
C1245  C     0.80998   0.44032   0.83343   0.00000  Uiso   1.00
C1246  C     0.69013   0.05980   0.83348   0.00000  Uiso   1.00
C1247  C     0.68976   0.44040   0.83357   0.00000  Uiso   1.00
C1248  C     0.81026   0.05956   0.83349   0.00000  Uiso   1.00
N1249  N     0.50000   0.25000   0.95240   0.00000  Uiso   1.00
N1250  N     0.50000   0.25000   0.71427   0.00000  Uiso   1.00
N1251  N     0.75000   0.00000   0.95240   0.00000  Uiso   1.00
N1252  N     0.75000   0.00000   0.71427   0.00000  Uiso   1.00
Zn1253 Zn    0.50000   0.25000   0.88437   0.00000  Uiso   1.00
Zn1254 Zn    0.50000   0.25000   0.78229   0.00000  Uiso   1.00
Zn1255 Zn    0.75000   0.00000   0.88437   0.00000  Uiso   1.00
Zn1256 Zn    0.75000   0.00000   0.78229   0.00000  Uiso   1.00
C1257  C     0.98787   0.28765   0.69096   0.00000  Uiso   1.00
C1258  C     0.50933   0.21178   0.97556   0.00000  Uiso   1.00
C1259  C     0.51108   0.21205   0.68991   0.00000  Uiso   1.00
C1260  C     0.98987   0.28826   0.97647   0.00000  Uiso   1.00
C1261  C     0.74091   0.03843   0.69085   0.00000  Uiso   1.00
C1262  C     0.76011   0.46178   0.97664   0.00000  Uiso   1.00
C1263  C     0.75848   0.46158   0.69101   0.00000  Uiso   1.00
C1264  C     0.73956   0.03816   0.97605   0.00000  Uiso   1.00
C1265  C     0.90341   0.12718   0.79644   0.00000  Uiso   1.00
C1266  C     0.62266   0.34397   0.86910   0.00000  Uiso   1.00
C1267  C     0.59712   0.37249   0.79629   0.00000  Uiso   1.00
C1268  C     0.87697   0.15618   0.86887   0.00000  Uiso   1.00
C1269  C     0.58360   0.11435   0.85038   0.00000  Uiso   1.00
C1270  C     0.86641   0.33209   0.81555   0.00000  Uiso   1.00
C1271  C     0.91654   0.38581   0.84992   0.00000  Uiso   1.00
C1272  C     0.63349   0.16786   0.81517   0.00000  Uiso   1.00
C1273  C     0.62751   0.40592   0.79761   0.00000  Uiso   1.00
C1274  C     0.84631   0.12293   0.86987   0.00000  Uiso   1.00
C1275  C     0.87287   0.09383   0.79758   0.00000  Uiso   1.00
C1276  C     0.65307   0.37742   0.87041   0.00000  Uiso   1.00
C1277  C     0.88365   0.41799   0.85099   0.00000  Uiso   1.00
C1278  C     0.66644   0.13573   0.81612   0.00000  Uiso   1.00
C1279  C     0.61663   0.08232   0.85160   0.00000  Uiso   1.00
C1280  C     0.83351   0.36428   0.81660   0.00000  Uiso   1.00
C1281  C     0.59421   0.34193   0.83239   0.00000  Uiso   1.00
C1282  C     0.90591   0.15792   0.83246   0.00000  Uiso   1.00
C1283  C     0.90730   0.34324   0.83249   0.00000  Uiso   1.00
C1284  C     0.59266   0.15674   0.83241   0.00000  Uiso   1.00
C1285  C     0.84400   0.09207   0.83403   0.00000  Uiso   1.00
C1286  C     0.65593   0.40798   0.83430   0.00000  Uiso   1.00
C1287  C     0.65742   0.09338   0.83423   0.00000  Uiso   1.00
C1288  C     0.84272   0.40681   0.83413   0.00000  Uiso   1.00
N1289  N     0.97130   0.32575   0.71532   0.00000  Uiso   1.00
H1290  H     0.99610   0.33753   0.73541   0.00000  Uiso   1.00
H1291  H     0.96152   0.35217   0.69456   0.00000  Uiso   1.00
N1292  N     0.51751   0.17119   0.95125   0.00000  Uiso   1.00
H1293  H     0.54869   0.15953   0.95925   0.00000  Uiso   1.00
H1294  H     0.99523   0.14736   0.96191   0.00000  Uiso   1.00
N1295  N     0.52501   0.17170   0.71162   0.00000  Uiso   1.00
H1296  H     0.50558   0.16623   0.73952   0.00000  Uiso   1.00
H1297  H     0.55727   0.17540   0.72128   0.00000  Uiso   1.00
N1298  N     0.98078   0.32964   0.95404   0.00000  Uiso   1.00
H1299  H     0.94886   0.32935   0.94254   0.00000  Uiso   1.00
H1300  H     0.50274   0.33413   0.92791   0.00000  Uiso   1.00
N1301  N     0.73302   0.07896   0.71536   0.00000  Uiso   1.00
H1302  H     0.75662   0.10213   0.70647   0.00000  Uiso   1.00
H1303  H     0.70250   0.09182   0.70653   0.00000  Uiso   1.00
N1304  N     0.77355   0.42127   0.95482   0.00000  Uiso   1.00
H1305  H     0.75452   0.41647   0.92657   0.00000  Uiso   1.00
H1306  H     0.80600   0.42442   0.94552   0.00000  Uiso   1.00
N1307  N     0.76606   0.42091   0.71530   0.00000  Uiso   1.00
H1308  H     0.79703   0.40869   0.70711   0.00000  Uiso   1.00
H1309  H     0.74336   0.39745   0.70478   0.00000  Uiso   1.00
N1310  N     0.72622   0.07753   0.95209   0.00000  Uiso   1.00
H1311  H     0.74429   0.10459   0.96326   0.00000  Uiso   1.00
H1312  H     0.69374   0.08428   0.95997   0.00000  Uiso   1.00
N1313  N     0.93278   0.12812   0.75919   0.00000  Uiso   1.00
O1314  O     0.92319   0.15320   0.72474   0.00000  Uiso   1.00
O1315  O     0.96122   0.09577   0.75445   0.00000  Uiso   1.00
N1316  N     0.62152   0.31174   0.90503   0.00000  Uiso   1.00
O1317  O     0.62883   0.26941   0.89693   0.00000  Uiso   1.00
O1318  O     0.61404   0.32481   0.94604   0.00000  Uiso   1.00
N1319  N     0.56832   0.37132   0.75869   0.00000  Uiso   1.00
O1320  O     0.57817   0.34551   0.72480   0.00000  Uiso   1.00
O1321  O     0.54081   0.40433   0.75282   0.00000  Uiso   1.00
N1322  N     0.87775   0.18858   0.90469   0.00000  Uiso   1.00
O1323  O     0.87112   0.23095   0.89632   0.00000  Uiso   1.00
O1324  O     0.88415   0.17563   0.94589   0.00000  Uiso   1.00
N1325  N     0.54107   0.10383   0.86694   0.00000  Uiso   1.00
O1326  O     0.53651   0.08240   0.90467   0.00000  Uiso   1.00
O1327  O     0.50695   0.11256   0.84271   0.00000  Uiso   1.00
N1328  N     0.85766   0.28747   0.79997   0.00000  Uiso   1.00
O1329  O     0.82678   0.26456   0.81837   0.00000  Uiso   1.00
O1330  O     0.87557   0.27267   0.76316   0.00000  Uiso   1.00
N1331  N     0.95916   0.39639   0.86602   0.00000  Uiso   1.00
O1332  O     0.96395   0.41755   0.90387   0.00000  Uiso   1.00
O1333  O     0.99309   0.38789   0.84130   0.00000  Uiso   1.00
N1334  N     0.64221   0.21250   0.79966   0.00000  Uiso   1.00
O1335  O     0.67285   0.23553   0.81826   0.00000  Uiso   1.00
O1336  O     0.62452   0.22726   0.76279   0.00000  Uiso   1.00
N1337  N     0.62865   0.43815   0.76168   0.00000  Uiso   1.00
O1338  O     0.62106   0.48044   0.76972   0.00000  Uiso   1.00
O1339  O     0.63640   0.42510   0.72071   0.00000  Uiso   1.00
N1340  N     0.81633   0.12234   0.90658   0.00000  Uiso   1.00
O1341  O     0.82560   0.09810   0.94170   0.00000  Uiso   1.00
O1342  O     0.78716   0.15416   0.90989   0.00000  Uiso   1.00
N1343  N     0.87196   0.06149   0.76171   0.00000  Uiso   1.00
O1344  O     0.87887   0.01914   0.76994   0.00000  Uiso   1.00
O1345  O     0.86499   0.07448   0.72061   0.00000  Uiso   1.00
N1346  N     0.68192   0.37867   0.90798   0.00000  Uiso   1.00
O1347  O     0.67197   0.40421   0.94204   0.00000  Uiso   1.00
O1348  O     0.71010   0.34620   0.91342   0.00000  Uiso   1.00
N1349  N     0.89247   0.46267   0.86635   0.00000  Uiso   1.00
O1350  O     0.92336   0.48545   0.84783   0.00000  Uiso   1.00
O1351  O     0.87455   0.47772   0.90306   0.00000  Uiso   1.00
N1352  N     0.70884   0.14614   0.79908   0.00000  Uiso   1.00
O1353  O     0.71304   0.16779   0.76144   0.00000  Uiso   1.00
O1354  O     0.74322   0.13700   0.82275   0.00000  Uiso   1.00
N1355  N     0.60807   0.03783   0.86762   0.00000  Uiso   1.00
O1356  O     0.57779   0.01430   0.84903   0.00000  Uiso   1.00
O1357  O     0.62552   0.02375   0.90487   0.00000  Uiso   1.00
N1358  N     0.79094   0.35378   0.80027   0.00000  Uiso   1.00
O1359  O     0.78629   0.33246   0.76249   0.00000  Uiso   1.00
O1360  O     0.75690   0.36242   0.82477   0.00000  Uiso   1.00
O1361  O     0.04580   0.70419   0.87154   0.00000  Uiso   1.00
O1362  O     0.45419   0.79581   0.79513   0.00000  Uiso   1.00
O1363  O     0.45419   0.79581   0.87154   0.00000  Uiso   1.00
O1364  O     0.04580   0.70419   0.79513   0.00000  Uiso   1.00
O1365  O     0.45419   0.70419   0.79513   0.00000  Uiso   1.00
O1366  O     0.04580   0.79581   0.87154   0.00000  Uiso   1.00
O1367  O     0.04580   0.79581   0.79513   0.00000  Uiso   1.00
O1368  O     0.45419   0.70419   0.87154   0.00000  Uiso   1.00
O1369  O     0.29580   0.95419   0.87154   0.00000  Uiso   1.00
O1370  O     0.20419   0.54581   0.79513   0.00000  Uiso   1.00
O1371  O     0.20419   0.54581   0.87154   0.00000  Uiso   1.00
O1372  O     0.29580   0.95419   0.79513   0.00000  Uiso   1.00
O1373  O     0.20419   0.95419   0.79513   0.00000  Uiso   1.00
O1374  O     0.29580   0.54581   0.87154   0.00000  Uiso   1.00
O1375  O     0.29580   0.54581   0.79513   0.00000  Uiso   1.00
O1376  O     0.20419   0.95419   0.87154   0.00000  Uiso   1.00
C1377  C     0.05992   0.69026   0.83318   0.00000  Uiso   1.00
C1378  C     0.44004   0.80971   0.83323   0.00000  Uiso   1.00
C1379  C     0.43975   0.69038   0.83314   0.00000  Uiso   1.00
C1380  C     0.06029   0.80957   0.83311   0.00000  Uiso   1.00
C1381  C     0.30998   0.94032   0.83343   0.00000  Uiso   1.00
C1382  C     0.19013   0.55980   0.83348   0.00000  Uiso   1.00
C1383  C     0.18976   0.94040   0.83357   0.00000  Uiso   1.00
C1384  C     0.31026   0.55956   0.83349   0.00000  Uiso   1.00
N1385  N     0.00000   0.75000   0.95240   0.00000  Uiso   1.00
N1386  N     0.00000   0.75000   0.71427   0.00000  Uiso   1.00
N1387  N     0.25000   0.50000   0.95240   0.00000  Uiso   1.00
N1388  N     0.25000   0.50000   0.71427   0.00000  Uiso   1.00
Zn1389 Zn    0.00000   0.75000   0.88437   0.00000  Uiso   1.00
Zn1390 Zn    0.00000   0.75000   0.78229   0.00000  Uiso   1.00
Zn1391 Zn    0.25000   0.50000   0.88437   0.00000  Uiso   1.00
Zn1392 Zn    0.25000   0.50000   0.78229   0.00000  Uiso   1.00
C1393  C     0.48787   0.78765   0.69096   0.00000  Uiso   1.00
C1394  C     0.00933   0.71178   0.97556   0.00000  Uiso   1.00
C1395  C     0.01108   0.71205   0.68991   0.00000  Uiso   1.00
C1396  C     0.48987   0.78826   0.97647   0.00000  Uiso   1.00
C1397  C     0.24091   0.53843   0.69085   0.00000  Uiso   1.00
C1398  C     0.26011   0.96178   0.97664   0.00000  Uiso   1.00
C1399  C     0.25848   0.96158   0.69101   0.00000  Uiso   1.00
C1400  C     0.23956   0.53816   0.97605   0.00000  Uiso   1.00
C1401  C     0.40341   0.62718   0.79644   0.00000  Uiso   1.00
C1402  C     0.12266   0.84397   0.86910   0.00000  Uiso   1.00
C1403  C     0.09712   0.87249   0.79629   0.00000  Uiso   1.00
C1404  C     0.37697   0.65618   0.86887   0.00000  Uiso   1.00
C1405  C     0.08360   0.61435   0.85038   0.00000  Uiso   1.00
C1406  C     0.36641   0.83209   0.81555   0.00000  Uiso   1.00
C1407  C     0.41654   0.88581   0.84992   0.00000  Uiso   1.00
C1408  C     0.13349   0.66786   0.81517   0.00000  Uiso   1.00
C1409  C     0.12751   0.90592   0.79761   0.00000  Uiso   1.00
C1410  C     0.34631   0.62293   0.86987   0.00000  Uiso   1.00
C1411  C     0.37287   0.59383   0.79758   0.00000  Uiso   1.00
C1412  C     0.15307   0.87742   0.87041   0.00000  Uiso   1.00
C1413  C     0.38365   0.91799   0.85099   0.00000  Uiso   1.00
C1414  C     0.16644   0.63573   0.81612   0.00000  Uiso   1.00
C1415  C     0.11663   0.58232   0.85160   0.00000  Uiso   1.00
C1416  C     0.33351   0.86428   0.81660   0.00000  Uiso   1.00
C1417  C     0.09421   0.84193   0.83239   0.00000  Uiso   1.00
C1418  C     0.40591   0.65792   0.83246   0.00000  Uiso   1.00
C1419  C     0.40730   0.84324   0.83249   0.00000  Uiso   1.00
C1420  C     0.09266   0.65674   0.83241   0.00000  Uiso   1.00
C1421  C     0.34400   0.59207   0.83403   0.00000  Uiso   1.00
C1422  C     0.15593   0.90798   0.83430   0.00000  Uiso   1.00
C1423  C     0.15742   0.59338   0.83423   0.00000  Uiso   1.00
C1424  C     0.34272   0.90681   0.83413   0.00000  Uiso   1.00
N1425  N     0.47130   0.82575   0.71532   0.00000  Uiso   1.00
H1426  H     0.49610   0.83753   0.73541   0.00000  Uiso   1.00
H1427  H     0.46152   0.85217   0.69456   0.00000  Uiso   1.00
N1428  N     0.01751   0.67119   0.95125   0.00000  Uiso   1.00
H1429  H     0.04869   0.65953   0.95925   0.00000  Uiso   1.00
H1430  H     0.49523   0.64736   0.96191   0.00000  Uiso   1.00
N1431  N     0.02501   0.67170   0.71162   0.00000  Uiso   1.00
H1432  H     0.00558   0.66623   0.73952   0.00000  Uiso   1.00
H1433  H     0.05727   0.67540   0.72128   0.00000  Uiso   1.00
N1434  N     0.48078   0.82964   0.95404   0.00000  Uiso   1.00
H1435  H     0.44886   0.82935   0.94254   0.00000  Uiso   1.00
H1436  H     0.00274   0.83413   0.92791   0.00000  Uiso   1.00
N1437  N     0.23302   0.57896   0.71536   0.00000  Uiso   1.00
H1438  H     0.25662   0.60213   0.70647   0.00000  Uiso   1.00
H1439  H     0.20250   0.59182   0.70653   0.00000  Uiso   1.00
N1440  N     0.27355   0.92127   0.95482   0.00000  Uiso   1.00
H1441  H     0.25452   0.91647   0.92657   0.00000  Uiso   1.00
H1442  H     0.30600   0.92442   0.94552   0.00000  Uiso   1.00
N1443  N     0.26606   0.92091   0.71530   0.00000  Uiso   1.00
H1444  H     0.29703   0.90869   0.70711   0.00000  Uiso   1.00
H1445  H     0.24336   0.89745   0.70478   0.00000  Uiso   1.00
N1446  N     0.22622   0.57753   0.95209   0.00000  Uiso   1.00
H1447  H     0.24429   0.60459   0.96326   0.00000  Uiso   1.00
H1448  H     0.19374   0.58428   0.95997   0.00000  Uiso   1.00
N1449  N     0.43278   0.62812   0.75919   0.00000  Uiso   1.00
O1450  O     0.42319   0.65320   0.72474   0.00000  Uiso   1.00
O1451  O     0.46122   0.59577   0.75445   0.00000  Uiso   1.00
N1452  N     0.12152   0.81174   0.90503   0.00000  Uiso   1.00
O1453  O     0.12883   0.76941   0.89693   0.00000  Uiso   1.00
O1454  O     0.11404   0.82481   0.94604   0.00000  Uiso   1.00
N1455  N     0.06832   0.87132   0.75869   0.00000  Uiso   1.00
O1456  O     0.07817   0.84551   0.72480   0.00000  Uiso   1.00
O1457  O     0.04081   0.90433   0.75282   0.00000  Uiso   1.00
N1458  N     0.37775   0.68858   0.90469   0.00000  Uiso   1.00
O1459  O     0.37112   0.73095   0.89632   0.00000  Uiso   1.00
O1460  O     0.38415   0.67563   0.94589   0.00000  Uiso   1.00
N1461  N     0.04107   0.60383   0.86694   0.00000  Uiso   1.00
O1462  O     0.03651   0.58240   0.90467   0.00000  Uiso   1.00
O1463  O     0.00695   0.61256   0.84271   0.00000  Uiso   1.00
N1464  N     0.35766   0.78747   0.79997   0.00000  Uiso   1.00
O1465  O     0.32678   0.76456   0.81837   0.00000  Uiso   1.00
O1466  O     0.37557   0.77267   0.76316   0.00000  Uiso   1.00
N1467  N     0.45916   0.89639   0.86602   0.00000  Uiso   1.00
O1468  O     0.46395   0.91755   0.90387   0.00000  Uiso   1.00
O1469  O     0.49309   0.88789   0.84130   0.00000  Uiso   1.00
N1470  N     0.14221   0.71250   0.79966   0.00000  Uiso   1.00
O1471  O     0.17285   0.73553   0.81826   0.00000  Uiso   1.00
O1472  O     0.12452   0.72726   0.76279   0.00000  Uiso   1.00
N1473  N     0.12865   0.93815   0.76168   0.00000  Uiso   1.00
O1474  O     0.12106   0.98044   0.76972   0.00000  Uiso   1.00
O1475  O     0.13640   0.92510   0.72071   0.00000  Uiso   1.00
N1476  N     0.31633   0.62234   0.90658   0.00000  Uiso   1.00
O1477  O     0.32560   0.59810   0.94170   0.00000  Uiso   1.00
O1478  O     0.28716   0.65416   0.90989   0.00000  Uiso   1.00
N1479  N     0.37196   0.56149   0.76171   0.00000  Uiso   1.00
O1480  O     0.37887   0.51914   0.76994   0.00000  Uiso   1.00
O1481  O     0.36499   0.57448   0.72061   0.00000  Uiso   1.00
N1482  N     0.18192   0.87867   0.90798   0.00000  Uiso   1.00
O1483  O     0.17197   0.90421   0.94204   0.00000  Uiso   1.00
O1484  O     0.21010   0.84620   0.91342   0.00000  Uiso   1.00
N1485  N     0.39247   0.96267   0.86635   0.00000  Uiso   1.00
O1486  O     0.42336   0.98545   0.84783   0.00000  Uiso   1.00
O1487  O     0.37455   0.97772   0.90306   0.00000  Uiso   1.00
N1488  N     0.20884   0.64614   0.79908   0.00000  Uiso   1.00
O1489  O     0.21304   0.66779   0.76144   0.00000  Uiso   1.00
O1490  O     0.24322   0.63700   0.82275   0.00000  Uiso   1.00
N1491  N     0.10807   0.53783   0.86762   0.00000  Uiso   1.00
O1492  O     0.07779   0.51430   0.84903   0.00000  Uiso   1.00
O1493  O     0.12552   0.52375   0.90487   0.00000  Uiso   1.00
N1494  N     0.29094   0.85378   0.80027   0.00000  Uiso   1.00
O1495  O     0.28629   0.83246   0.76249   0.00000  Uiso   1.00
O1496  O     0.25690   0.86242   0.82477   0.00000  Uiso   1.00
O1497  O     0.54580   0.70419   0.87154   0.00000  Uiso   1.00
O1498  O     0.95419   0.79581   0.79513   0.00000  Uiso   1.00
O1499  O     0.95419   0.79581   0.87154   0.00000  Uiso   1.00
O1500  O     0.54580   0.70419   0.79513   0.00000  Uiso   1.00
O1501  O     0.95419   0.70419   0.79513   0.00000  Uiso   1.00
O1502  O     0.54580   0.79581   0.87154   0.00000  Uiso   1.00
O1503  O     0.54580   0.79581   0.79513   0.00000  Uiso   1.00
O1504  O     0.95419   0.70419   0.87154   0.00000  Uiso   1.00
O1505  O     0.79580   0.95419   0.87154   0.00000  Uiso   1.00
O1506  O     0.70419   0.54581   0.79513   0.00000  Uiso   1.00
O1507  O     0.70419   0.54581   0.87154   0.00000  Uiso   1.00
O1508  O     0.79580   0.95419   0.79513   0.00000  Uiso   1.00
O1509  O     0.70419   0.95419   0.79513   0.00000  Uiso   1.00
O1510  O     0.79580   0.54581   0.87154   0.00000  Uiso   1.00
O1511  O     0.79580   0.54581   0.79513   0.00000  Uiso   1.00
O1512  O     0.70419   0.95419   0.87154   0.00000  Uiso   1.00
C1513  C     0.55992   0.69026   0.83318   0.00000  Uiso   1.00
C1514  C     0.94004   0.80971   0.83323   0.00000  Uiso   1.00
C1515  C     0.93975   0.69038   0.83314   0.00000  Uiso   1.00
C1516  C     0.56029   0.80957   0.83311   0.00000  Uiso   1.00
C1517  C     0.80998   0.94032   0.83343   0.00000  Uiso   1.00
C1518  C     0.69013   0.55980   0.83348   0.00000  Uiso   1.00
C1519  C     0.68976   0.94040   0.83357   0.00000  Uiso   1.00
C1520  C     0.81026   0.55956   0.83349   0.00000  Uiso   1.00
N1521  N     0.50000   0.75000   0.95240   0.00000  Uiso   1.00
N1522  N     0.50000   0.75000   0.71427   0.00000  Uiso   1.00
N1523  N     0.75000   0.50000   0.95240   0.00000  Uiso   1.00
N1524  N     0.75000   0.50000   0.71427   0.00000  Uiso   1.00
Zn1525 Zn    0.50000   0.75000   0.88437   0.00000  Uiso   1.00
Zn1526 Zn    0.50000   0.75000   0.78229   0.00000  Uiso   1.00
Zn1527 Zn    0.75000   0.50000   0.88437   0.00000  Uiso   1.00
Zn1528 Zn    0.75000   0.50000   0.78229   0.00000  Uiso   1.00
C1529  C     0.98787   0.78765   0.69096   0.00000  Uiso   1.00
C1530  C     0.50933   0.71178   0.97556   0.00000  Uiso   1.00
C1531  C     0.51108   0.71205   0.68991   0.00000  Uiso   1.00
C1532  C     0.98987   0.78826   0.97647   0.00000  Uiso   1.00
C1533  C     0.74091   0.53843   0.69085   0.00000  Uiso   1.00
C1534  C     0.76011   0.96178   0.97664   0.00000  Uiso   1.00
C1535  C     0.75848   0.96158   0.69101   0.00000  Uiso   1.00
C1536  C     0.73956   0.53816   0.97605   0.00000  Uiso   1.00
C1537  C     0.90341   0.62718   0.79644   0.00000  Uiso   1.00
C1538  C     0.62266   0.84397   0.86910   0.00000  Uiso   1.00
C1539  C     0.59712   0.87249   0.79629   0.00000  Uiso   1.00
C1540  C     0.87697   0.65618   0.86887   0.00000  Uiso   1.00
C1541  C     0.58360   0.61435   0.85038   0.00000  Uiso   1.00
C1542  C     0.86641   0.83209   0.81555   0.00000  Uiso   1.00
C1543  C     0.91654   0.88581   0.84992   0.00000  Uiso   1.00
C1544  C     0.63349   0.66786   0.81517   0.00000  Uiso   1.00
C1545  C     0.62751   0.90592   0.79761   0.00000  Uiso   1.00
C1546  C     0.84631   0.62293   0.86987   0.00000  Uiso   1.00
C1547  C     0.87287   0.59383   0.79758   0.00000  Uiso   1.00
C1548  C     0.65307   0.87742   0.87041   0.00000  Uiso   1.00
C1549  C     0.88365   0.91799   0.85099   0.00000  Uiso   1.00
C1550  C     0.66644   0.63573   0.81612   0.00000  Uiso   1.00
C1551  C     0.61663   0.58232   0.85160   0.00000  Uiso   1.00
C1552  C     0.83351   0.86428   0.81660   0.00000  Uiso   1.00
C1553  C     0.59421   0.84193   0.83239   0.00000  Uiso   1.00
C1554  C     0.90591   0.65792   0.83246   0.00000  Uiso   1.00
C1555  C     0.90730   0.84324   0.83249   0.00000  Uiso   1.00
C1556  C     0.59266   0.65674   0.83241   0.00000  Uiso   1.00
C1557  C     0.84400   0.59207   0.83403   0.00000  Uiso   1.00
C1558  C     0.65593   0.90798   0.83430   0.00000  Uiso   1.00
C1559  C     0.65742   0.59338   0.83423   0.00000  Uiso   1.00
C1560  C     0.84272   0.90681   0.83413   0.00000  Uiso   1.00
N1561  N     0.97130   0.82575   0.71532   0.00000  Uiso   1.00
H1562  H     0.99610   0.83753   0.73541   0.00000  Uiso   1.00
H1563  H     0.96152   0.85217   0.69456   0.00000  Uiso   1.00
N1564  N     0.51751   0.67119   0.95125   0.00000  Uiso   1.00
H1565  H     0.54869   0.65953   0.95925   0.00000  Uiso   1.00
H1566  H     0.99523   0.64736   0.96191   0.00000  Uiso   1.00
N1567  N     0.52501   0.67170   0.71162   0.00000  Uiso   1.00
H1568  H     0.50558   0.66623   0.73952   0.00000  Uiso   1.00
H1569  H     0.55727   0.67540   0.72128   0.00000  Uiso   1.00
N1570  N     0.98078   0.82964   0.95404   0.00000  Uiso   1.00
H1571  H     0.94886   0.82935   0.94254   0.00000  Uiso   1.00
H1572  H     0.50274   0.83413   0.92791   0.00000  Uiso   1.00
N1573  N     0.73302   0.57896   0.71536   0.00000  Uiso   1.00
H1574  H     0.75662   0.60213   0.70647   0.00000  Uiso   1.00
H1575  H     0.70250   0.59182   0.70653   0.00000  Uiso   1.00
N1576  N     0.77355   0.92127   0.95482   0.00000  Uiso   1.00
H1577  H     0.75452   0.91647   0.92657   0.00000  Uiso   1.00
H1578  H     0.80600   0.92442   0.94552   0.00000  Uiso   1.00
N1579  N     0.76606   0.92091   0.71530   0.00000  Uiso   1.00
H1580  H     0.79703   0.90869   0.70711   0.00000  Uiso   1.00
H1581  H     0.74336   0.89745   0.70478   0.00000  Uiso   1.00
N1582  N     0.72622   0.57753   0.95209   0.00000  Uiso   1.00
H1583  H     0.74429   0.60459   0.96326   0.00000  Uiso   1.00
H1584  H     0.69374   0.58428   0.95997   0.00000  Uiso   1.00
N1585  N     0.93278   0.62812   0.75919   0.00000  Uiso   1.00
O1586  O     0.92319   0.65320   0.72474   0.00000  Uiso   1.00
O1587  O     0.96122   0.59577   0.75445   0.00000  Uiso   1.00
N1588  N     0.62152   0.81174   0.90503   0.00000  Uiso   1.00
O1589  O     0.62883   0.76941   0.89693   0.00000  Uiso   1.00
O1590  O     0.61404   0.82481   0.94604   0.00000  Uiso   1.00
N1591  N     0.56832   0.87132   0.75869   0.00000  Uiso   1.00
O1592  O     0.57817   0.84551   0.72480   0.00000  Uiso   1.00
O1593  O     0.54081   0.90433   0.75282   0.00000  Uiso   1.00
N1594  N     0.87775   0.68858   0.90469   0.00000  Uiso   1.00
O1595  O     0.87112   0.73095   0.89632   0.00000  Uiso   1.00
O1596  O     0.88415   0.67563   0.94589   0.00000  Uiso   1.00
N1597  N     0.54107   0.60383   0.86694   0.00000  Uiso   1.00
O1598  O     0.53651   0.58240   0.90467   0.00000  Uiso   1.00
O1599  O     0.50695   0.61256   0.84271   0.00000  Uiso   1.00
N1600  N     0.85766   0.78747   0.79997   0.00000  Uiso   1.00
O1601  O     0.82678   0.76456   0.81837   0.00000  Uiso   1.00
O1602  O     0.87557   0.77267   0.76316   0.00000  Uiso   1.00
N1603  N     0.95916   0.89639   0.86602   0.00000  Uiso   1.00
O1604  O     0.96395   0.91755   0.90387   0.00000  Uiso   1.00
O1605  O     0.99309   0.88789   0.84130   0.00000  Uiso   1.00
N1606  N     0.64221   0.71250   0.79966   0.00000  Uiso   1.00
O1607  O     0.67285   0.73553   0.81826   0.00000  Uiso   1.00
O1608  O     0.62452   0.72726   0.76279   0.00000  Uiso   1.00
N1609  N     0.62865   0.93815   0.76168   0.00000  Uiso   1.00
O1610  O     0.62106   0.98044   0.76972   0.00000  Uiso   1.00
O1611  O     0.63640   0.92510   0.72071   0.00000  Uiso   1.00
N1612  N     0.81633   0.62234   0.90658   0.00000  Uiso   1.00
O1613  O     0.82560   0.59810   0.94170   0.00000  Uiso   1.00
O1614  O     0.78716   0.65416   0.90989   0.00000  Uiso   1.00
N1615  N     0.87196   0.56149   0.76171   0.00000  Uiso   1.00
O1616  O     0.87887   0.51914   0.76994   0.00000  Uiso   1.00
O1617  O     0.86499   0.57448   0.72061   0.00000  Uiso   1.00
N1618  N     0.68192   0.87867   0.90798   0.00000  Uiso   1.00
O1619  O     0.67197   0.90421   0.94204   0.00000  Uiso   1.00
O1620  O     0.71010   0.84620   0.91342   0.00000  Uiso   1.00
N1621  N     0.89247   0.96267   0.86635   0.00000  Uiso   1.00
O1622  O     0.92336   0.98545   0.84783   0.00000  Uiso   1.00
O1623  O     0.87455   0.97772   0.90306   0.00000  Uiso   1.00
N1624  N     0.70884   0.64614   0.79908   0.00000  Uiso   1.00
O1625  O     0.71304   0.66779   0.76144   0.00000  Uiso   1.00
O1626  O     0.74322   0.63700   0.82275   0.00000  Uiso   1.00
N1627  N     0.60807   0.53783   0.86762   0.00000  Uiso   1.00
O1628  O     0.57779   0.51430   0.84903   0.00000  Uiso   1.00
O1629  O     0.62552   0.52375   0.90487   0.00000  Uiso   1.00
N1630  N     0.79094   0.85378   0.80027   0.00000  Uiso   1.00
O1631  O     0.78629   0.83246   0.76249   0.00000  Uiso   1.00
O1632  O     0.75690   0.86242   0.82477   0.00000  Uiso   1.00
loop_
_geom_bond_atom_site_label_1
_geom_bond_atom_site_label_2
_geom_bond_distance
_geom_bond_site_symmetry_2
_ccdc_geom_bond_type
O1     Zn29    1.986   .     S
O1     C17     1.288   .     A
O2     C18     1.282   .     A
O2     Zn166   1.986   .     S
O3     C18     1.289   .     A
O3     Zn165   1.988   .     S
O4     C17     1.282   .     A
O4     Zn30    1.988   .     S
O5     C19     1.286   .     A
O5     Zn166   2.017   .     S
O6     C20     1.297   .     A
O6     Zn29    2.017   .     S
O7     Zn30    2.017   .     S
O7     C20     1.286   .     A
O8     C19     1.297   .     A
O8     Zn165   2.017   .     S
O9     C21     1.282   .     A
O9     Zn303   1.986   .     S
O10    C22     1.288   .     A
O10    Zn32    1.986   .     S
O11    Zn31    1.988   .     S
O11    C22     1.282   .     A
O12    C21     1.289   .     A
O12    Zn304   1.988   .     S
O13    C23     1.297   .     A
O13    Zn304   2.017   .     S
O14    Zn31    2.017   .     S
O14    C24     1.287   .     A
O15    Zn32    2.017   .     S
O15    C24     1.296   .     A
O16    C23     1.286   .     A
O16    Zn303   2.017   .     S
C17    C60     1.410   .     S
C18    C59     1.410   .     S
C19    C58     1.435   .     S
C20    C57     1.435   .     S
C21    C64     1.410   .     S
C22    C63     1.410   .     S
C23    C62     1.434   .     S
C24    C61     1.433   .     S
N25    C34     1.360   .     A
N25    Zn29    2.026   .     S
N25    C172    1.379   1_455 S
N26    C35     1.382   .     A
N26    Zn30    2.026   .     S
N26    C169    1.368   1_455 S
N27    Zn31    2.026   .     S
N27    C40     1.372   .     A
N27    C310    1.381   1_545 S
N28    Zn32    2.026   .     S
N28    C37     1.367   .     A
N28    C311    1.360   1_545 S
Zn29   O144    2.017   1_455 S
Zn29   O139    1.988   1_455 S
Zn30   O141    2.017   1_455 S
Zn30   O138    1.986   1_455 S
Zn31   O288    2.017   1_545 S
Zn31   O281    1.986   1_545 S
Zn32   O285    2.017   1_545 S
Zn32   O284    1.988   1_545 S
C33    N65     1.434   .     S
C33    N162    1.368   .     S
C33    C1124   1.426   1_554 S
C34    N68     1.429   .     S
C34    C579    1.421   .     S
C35    N71     1.427   .     S
C35    C1122   1.421   1_554 S
C36    N74     1.427   .     S
C36    C577    1.426   .     S
C36    N161    1.379   .     S
C37    N77     1.429   .     S
C37    C1128   1.434   1_554 S
C38    N80     1.427   .     S
C38    N299    1.381   .     S
C38    C583    1.421   .     S
C39    N83     1.429   .     S
C39    N300    1.360   .     S
C39    C1126   1.421   1_554 S
C40    N86     1.430   .     S
C40    C581    1.434   .     S
C41    N89     1.432   .     S
C41    C58     1.414   .     A
C41    C51     1.381   .     A
C42    C57     1.405   .     A
C42    N92     1.439   .     S
C42    C52     1.380   .     A
C43    N95     1.431   .     S
C43    C49     1.380   .     A
C43    C57     1.414   .     A
C44    N98     1.439   .     S
C44    C58     1.405   .     A
C44    C50     1.381   .     A
C45    C60     1.405   .     A
C45    C55     1.386   .     A
C45    N101    1.440   .     S
C46    C59     1.404   .     A
C46    N104    1.438   .     S
C46    C56     1.386   .     A
C47    C53     1.386   .     A
C47    N107    1.440   .     S
C47    C59     1.404   .     A
C48    C54     1.386   .     A
C48    N110    1.438   .     S
C48    C60     1.404   .     A
C49    N113    1.439   .     S
C49    C62     1.404   .     A
C50    N116    1.431   .     S
C50    C61     1.412   .     A
C51    C61     1.405   .     A
C51    N119    1.439   .     S
C52    N122    1.432   .     S
C52    C62     1.413   .     A
C53    C64     1.404   .     A
C53    N125    1.439   .     S
C54    C63     1.405   .     A
C54    N128    1.440   .     S
C55    C63     1.404   .     A
C55    N131    1.438   .     S
C56    C64     1.404   .     A
C56    N134    1.440   .     S
N65    H67     1.043   .     S
N65    H66     1.038   .     S
N68    H69     1.046   .     S
N68    H206    1.046   1_455 S
H70    N204    1.046   .     S
N71    H73     1.044   .     S
N71    H72     1.038   .     S
N74    H75     1.043   .     S
N74    H212    1.041   .     S
H76    N210    1.041   1_455 S
N77    H78     1.045   .     S
N77    H79     1.045   .     S
N80    H82     1.044   .     S
N80    H81     1.038   .     S
N83    H84     1.046   .     S
N83    H85     1.046   .     S
N86    H88     1.045   .     S
N86    H87     1.042   .     S
N89    O91     1.301   .     A
N89    O90     1.301   .     A
N92    O94     1.301   .     A
N92    O93     1.301   .     A
N95    O96     1.302   .     A
N95    O97     1.302   .     A
N98    O100    1.301   .     A
N98    O99     1.301   .     A
N101   O102    1.301   .     A
N101   O103    1.300   .     A
N104   O106    1.301   .     A
N104   O105    1.301   .     A
N107   O108    1.301   .     A
N107   O109    1.300   .     A
N110   O111    1.301   .     A
N110   O112    1.301   .     A
N113   O114    1.301   .     A
N113   O115    1.301   .     A
N116   O117    1.301   .     A
N116   O118    1.301   .     A
N119   O121    1.301   .     A
N119   O120    1.301   .     A
N122   O124    1.301   .     A
N122   O123    1.301   .     A
N125   O126    1.301   .     A
N125   O127    1.301   .     A
N128   O129    1.301   .     A
N128   O130    1.300   .     A
N131   O132    1.301   .     A
N131   O133    1.301   .     A
N134   O136    1.300   .     A
N134   O135    1.301   .     A
O137   Zn165   1.986   .     S
O137   C153    1.288   .     A
O138   C154    1.282   .     A
O138   Zn30    1.986   1_655 S
O139   C154    1.289   .     A
O139   Zn29    1.988   1_655 S
O140   C153    1.282   .     A
O140   Zn166   1.988   .     S
O141   C155    1.286   .     A
O141   Zn30    2.017   1_655 S
O142   C156    1.297   .     A
O142   Zn165   2.017   .     S
O143   Zn166   2.017   .     S
O143   C156    1.286   .     A
O144   C155    1.297   .     A
O144   Zn29    2.017   1_655 S
O145   C157    1.282   .     A
O145   Zn439   1.986   .     S
O146   C158    1.288   .     A
O146   Zn168   1.986   .     S
O147   Zn167   1.988   .     S
O147   C158    1.282   .     A
O148   C157    1.289   .     A
O148   Zn440   1.988   .     S
O149   C159    1.297   .     A
O149   Zn440   2.017   .     S
O150   Zn167   2.017   .     S
O150   C160    1.287   .     A
O151   Zn168   2.017   .     S
O151   C160    1.296   .     A
O152   C159    1.286   .     A
O152   Zn439   2.017   .     S
C153   C196    1.410   .     S
C154   C195    1.410   .     S
C155   C194    1.435   .     S
C156   C193    1.435   .     S
C157   C200    1.410   .     S
C158   C199    1.410   .     S
C159   C198    1.434   .     S
C160   C197    1.433   .     S
N161   C170    1.360   .     A
N161   Zn165   2.026   .     S
N162   C171    1.382   .     A
N162   Zn166   2.026   .     S
N163   Zn167   2.026   .     S
N163   C176    1.372   .     A
N163   C446    1.381   1_545 S
N164   Zn168   2.026   .     S
N164   C173    1.367   .     A
N164   C447    1.360   1_545 S
Zn167  O424    2.017   1_545 S
Zn167  O417    1.986   1_545 S
Zn168  O421    2.017   1_545 S
Zn168  O420    1.988   1_545 S
C169   N201    1.434   .     S
C169   N26     1.368   1_655 S
C169   C1260   1.426   1_554 S
C170   N204    1.429   .     S
C170   C715    1.421   .     S
C171   N207    1.427   .     S
C171   C1258   1.421   1_554 S
C172   N210    1.427   .     S
C172   C713    1.426   .     S
C172   N25     1.379   1_655 S
C173   N213    1.429   .     S
C173   C1264   1.434   1_554 S
C174   N216    1.427   .     S
C174   N435    1.381   .     S
C174   C719    1.421   .     S
C175   N219    1.429   .     S
C175   N436    1.360   .     S
C175   C1262   1.421   1_554 S
C176   N222    1.430   .     S
C176   C717    1.434   .     S
C177   N225    1.432   .     S
C177   C194    1.414   .     A
C177   C187    1.381   .     A
C178   C193    1.405   .     A
C178   N228    1.439   .     S
C178   C188    1.380   .     A
C179   N231    1.431   .     S
C179   C185    1.380   .     A
C179   C193    1.414   .     A
C180   N234    1.439   .     S
C180   C194    1.405   .     A
C180   C186    1.381   .     A
C181   C196    1.405   .     A
C181   C191    1.386   .     A
C181   N237    1.440   .     S
C182   C195    1.404   .     A
C182   N240    1.438   .     S
C182   C192    1.386   .     A
C183   C189    1.386   .     A
C183   N243    1.440   .     S
C183   C195    1.404   .     A
C184   C190    1.386   .     A
C184   N246    1.438   .     S
C184   C196    1.404   .     A
C185   N249    1.439   .     S
C185   C198    1.404   .     A
C186   N252    1.431   .     S
C186   C197    1.412   .     A
C187   C197    1.405   .     A
C187   N255    1.439   .     S
C188   N258    1.432   .     S
C188   C198    1.413   .     A
C189   C200    1.404   .     A
C189   N261    1.439   .     S
C190   C199    1.405   .     A
C190   N264    1.440   .     S
C191   C199    1.404   .     A
C191   N267    1.438   .     S
C192   C200    1.404   .     A
C192   N270    1.440   .     S
N201   H203    1.043   .     S
N201   H202    1.038   .     S
N204   H205    1.046   .     S
H206   N68     1.046   1_655 S
N207   H209    1.044   .     S
N207   H208    1.038   .     S
N210   H211    1.043   .     S
N210   H76     1.041   1_655 S
N213   H214    1.045   .     S
N213   H215    1.045   .     S
N216   H218    1.044   .     S
N216   H217    1.038   .     S
N219   H220    1.046   .     S
N219   H221    1.046   .     S
N222   H224    1.045   .     S
N222   H223    1.042   .     S
N225   O227    1.301   .     A
N225   O226    1.301   .     A
N228   O230    1.301   .     A
N228   O229    1.301   .     A
N231   O232    1.302   .     A
N231   O233    1.302   .     A
N234   O236    1.301   .     A
N234   O235    1.301   .     A
N237   O238    1.301   .     A
N237   O239    1.300   .     A
N240   O242    1.301   .     A
N240   O241    1.301   .     A
N243   O244    1.301   .     A
N243   O245    1.300   .     A
N246   O247    1.301   .     A
N246   O248    1.301   .     A
N249   O250    1.301   .     A
N249   O251    1.301   .     A
N252   O253    1.301   .     A
N252   O254    1.301   .     A
N255   O257    1.301   .     A
N255   O256    1.301   .     A
N258   O260    1.301   .     A
N258   O259    1.301   .     A
N261   O262    1.301   .     A
N261   O263    1.301   .     A
N264   O265    1.301   .     A
N264   O266    1.300   .     A
N267   O268    1.301   .     A
N267   O269    1.301   .     A
N270   O272    1.300   .     A
N270   O271    1.301   .     A
O273   Zn301   1.986   .     S
O273   C289    1.288   .     A
O274   C290    1.282   .     A
O274   Zn438   1.986   .     S
O275   C290    1.289   .     A
O275   Zn437   1.988   .     S
O276   C289    1.282   .     A
O276   Zn302   1.988   .     S
O277   C291    1.286   .     A
O277   Zn438   2.017   .     S
O278   C292    1.297   .     A
O278   Zn301   2.017   .     S
O279   Zn302   2.017   .     S
O279   C292    1.286   .     A
O280   C291    1.297   .     A
O280   Zn437   2.017   .     S
O281   C293    1.282   .     A
O281   Zn31    1.986   1_565 S
O282   C294    1.288   .     A
O282   Zn304   1.986   .     S
O283   Zn303   1.988   .     S
O283   C294    1.282   .     A
O284   C293    1.289   .     A
O284   Zn32    1.988   1_565 S
O285   C295    1.297   .     A
O285   Zn32    2.017   1_565 S
O286   Zn303   2.017   .     S
O286   C296    1.287   .     A
O287   Zn304   2.017   .     S
O287   C296    1.296   .     A
O288   C295    1.286   .     A
O288   Zn31    2.017   1_565 S
C289   C332    1.410   .     S
C290   C331    1.410   .     S
C291   C330    1.435   .     S
C292   C329    1.435   .     S
C293   C336    1.410   .     S
C294   C335    1.410   .     S
C295   C334    1.434   .     S
C296   C333    1.433   .     S
N297   C306    1.360   .     A
N297   Zn301   2.026   .     S
N297   C444    1.379   1_455 S
N298   C307    1.382   .     A
N298   Zn302   2.026   .     S
N298   C441    1.368   1_455 S
N299   Zn303   2.026   .     S
N299   C312    1.372   .     A
N300   Zn304   2.026   .     S
N300   C309    1.367   .     A
Zn301  O416    2.017   1_455 S
Zn301  O411    1.988   1_455 S
Zn302  O413    2.017   1_455 S
Zn302  O410    1.986   1_455 S
C305   N337    1.434   .     S
C305   N434    1.368   .     S
C305   C1396   1.426   1_554 S
C306   N340    1.429   .     S
C306   C851    1.421   .     S
C307   N343    1.427   .     S
C307   C1394   1.421   1_554 S
C308   N346    1.427   .     S
C308   C849    1.426   .     S
C308   N433    1.379   .     S
C309   N349    1.429   .     S
C309   C1400   1.434   1_554 S
C310   N352    1.427   .     S
C310   N27     1.381   1_565 S
C310   C855    1.421   .     S
C311   N355    1.429   .     S
C311   N28     1.360   1_565 S
C311   C1398   1.421   1_554 S
C312   N358    1.430   .     S
C312   C853    1.434   .     S
C313   N361    1.432   .     S
C313   C330    1.414   .     A
C313   C323    1.381   .     A
C314   C329    1.405   .     A
C314   N364    1.439   .     S
C314   C324    1.380   .     A
C315   N367    1.431   .     S
C315   C321    1.380   .     A
C315   C329    1.414   .     A
C316   N370    1.439   .     S
C316   C330    1.405   .     A
C316   C322    1.381   .     A
C317   C332    1.405   .     A
C317   C327    1.386   .     A
C317   N373    1.440   .     S
C318   C331    1.404   .     A
C318   N376    1.438   .     S
C318   C328    1.386   .     A
C319   C325    1.386   .     A
C319   N379    1.440   .     S
C319   C331    1.404   .     A
C320   C326    1.386   .     A
C320   N382    1.438   .     S
C320   C332    1.404   .     A
C321   N385    1.439   .     S
C321   C334    1.404   .     A
C322   N388    1.431   .     S
C322   C333    1.412   .     A
C323   C333    1.405   .     A
C323   N391    1.439   .     S
C324   N394    1.432   .     S
C324   C334    1.413   .     A
C325   C336    1.404   .     A
C325   N397    1.439   .     S
C326   C335    1.405   .     A
C326   N400    1.440   .     S
C327   C335    1.404   .     A
C327   N403    1.438   .     S
C328   C336    1.404   .     A
C328   N406    1.440   .     S
N337   H339    1.043   .     S
N337   H338    1.038   .     S
N340   H341    1.046   .     S
N340   H478    1.046   1_455 S
H342   N476    1.046   .     S
N343   H345    1.044   .     S
N343   H344    1.038   .     S
N346   H347    1.043   .     S
N346   H484    1.041   .     S
H348   N482    1.041   1_455 S
N349   H350    1.045   .     S
N349   H351    1.045   .     S
N352   H354    1.044   .     S
N352   H353    1.038   .     S
N355   H356    1.046   .     S
N355   H357    1.046   .     S
N358   H360    1.045   .     S
N358   H359    1.042   .     S
N361   O363    1.301   .     A
N361   O362    1.301   .     A
N364   O366    1.301   .     A
N364   O365    1.301   .     A
N367   O368    1.302   .     A
N367   O369    1.302   .     A
N370   O372    1.301   .     A
N370   O371    1.301   .     A
N373   O374    1.301   .     A
N373   O375    1.300   .     A
N376   O378    1.301   .     A
N376   O377    1.301   .     A
N379   O380    1.301   .     A
N379   O381    1.300   .     A
N382   O383    1.301   .     A
N382   O384    1.301   .     A
N385   O386    1.301   .     A
N385   O387    1.301   .     A
N388   O389    1.301   .     A
N388   O390    1.301   .     A
N391   O393    1.301   .     A
N391   O392    1.301   .     A
N394   O396    1.301   .     A
N394   O395    1.301   .     A
N397   O398    1.301   .     A
N397   O399    1.301   .     A
N400   O401    1.301   .     A
N400   O402    1.300   .     A
N403   O404    1.301   .     A
N403   O405    1.301   .     A
N406   O408    1.300   .     A
N406   O407    1.301   .     A
O409   Zn437   1.986   .     S
O409   C425    1.288   .     A
O410   C426    1.282   .     A
O410   Zn302   1.986   1_655 S
O411   C426    1.289   .     A
O411   Zn301   1.988   1_655 S
O412   C425    1.282   .     A
O412   Zn438   1.988   .     S
O413   C427    1.286   .     A
O413   Zn302   2.017   1_655 S
O414   C428    1.297   .     A
O414   Zn437   2.017   .     S
O415   Zn438   2.017   .     S
O415   C428    1.286   .     A
O416   C427    1.297   .     A
O416   Zn301   2.017   1_655 S
O417   C429    1.282   .     A
O417   Zn167   1.986   1_565 S
O418   C430    1.288   .     A
O418   Zn440   1.986   .     S
O419   Zn439   1.988   .     S
O419   C430    1.282   .     A
O420   C429    1.289   .     A
O420   Zn168   1.988   1_565 S
O421   C431    1.297   .     A
O421   Zn168   2.017   1_565 S
O422   Zn439   2.017   .     S
O422   C432    1.287   .     A
O423   Zn440   2.017   .     S
O423   C432    1.296   .     A
O424   C431    1.286   .     A
O424   Zn167   2.017   1_565 S
C425   C468    1.410   .     S
C426   C467    1.410   .     S
C427   C466    1.435   .     S
C428   C465    1.435   .     S
C429   C472    1.410   .     S
C430   C471    1.410   .     S
C431   C470    1.434   .     S
C432   C469    1.433   .     S
N433   C442    1.360   .     A
N433   Zn437   2.026   .     S
N434   C443    1.382   .     A
N434   Zn438   2.026   .     S
N435   Zn439   2.026   .     S
N435   C448    1.372   .     A
N436   Zn440   2.026   .     S
N436   C445    1.367   .     A
C441   N473    1.434   .     S
C441   N298    1.368   1_655 S
C441   C1532   1.426   1_554 S
C442   N476    1.429   .     S
C442   C987    1.421   .     S
C443   N479    1.427   .     S
C443   C1530   1.421   1_554 S
C444   N482    1.427   .     S
C444   C985    1.426   .     S
C444   N297    1.379   1_655 S
C445   N485    1.429   .     S
C445   C1536   1.434   1_554 S
C446   N488    1.427   .     S
C446   N163    1.381   1_565 S
C446   C991    1.421   .     S
C447   N491    1.429   .     S
C447   N164    1.360   1_565 S
C447   C1534   1.421   1_554 S
C448   N494    1.430   .     S
C448   C989    1.434   .     S
C449   N497    1.432   .     S
C449   C466    1.414   .     A
C449   C459    1.381   .     A
C450   C465    1.405   .     A
C450   N500    1.439   .     S
C450   C460    1.380   .     A
C451   N503    1.431   .     S
C451   C457    1.380   .     A
C451   C465    1.414   .     A
C452   N506    1.439   .     S
C452   C466    1.405   .     A
C452   C458    1.381   .     A
C453   C468    1.405   .     A
C453   C463    1.386   .     A
C453   N509    1.440   .     S
C454   C467    1.404   .     A
C454   N512    1.438   .     S
C454   C464    1.386   .     A
C455   C461    1.386   .     A
C455   N515    1.440   .     S
C455   C467    1.404   .     A
C456   C462    1.386   .     A
C456   N518    1.438   .     S
C456   C468    1.404   .     A
C457   N521    1.439   .     S
C457   C470    1.404   .     A
C458   N524    1.431   .     S
C458   C469    1.412   .     A
C459   C469    1.405   .     A
C459   N527    1.439   .     S
C460   N530    1.432   .     S
C460   C470    1.413   .     A
C461   C472    1.404   .     A
C461   N533    1.439   .     S
C462   C471    1.405   .     A
C462   N536    1.440   .     S
C463   C471    1.404   .     A
C463   N539    1.438   .     S
C464   C472    1.404   .     A
C464   N542    1.440   .     S
N473   H475    1.043   .     S
N473   H474    1.038   .     S
N476   H477    1.046   .     S
H478   N340    1.046   1_655 S
N479   H481    1.044   .     S
N479   H480    1.038   .     S
N482   H483    1.043   .     S
N482   H348    1.041   1_655 S
N485   H486    1.045   .     S
N485   H487    1.045   .     S
N488   H490    1.044   .     S
N488   H489    1.038   .     S
N491   H492    1.046   .     S
N491   H493    1.046   .     S
N494   H496    1.045   .     S
N494   H495    1.042   .     S
N497   O499    1.301   .     A
N497   O498    1.301   .     A
N500   O502    1.301   .     A
N500   O501    1.301   .     A
N503   O504    1.302   .     A
N503   O505    1.302   .     A
N506   O508    1.301   .     A
N506   O507    1.301   .     A
N509   O510    1.301   .     A
N509   O511    1.300   .     A
N512   O514    1.301   .     A
N512   O513    1.301   .     A
N515   O516    1.301   .     A
N515   O517    1.300   .     A
N518   O519    1.301   .     A
N518   O520    1.301   .     A
N521   O522    1.301   .     A
N521   O523    1.301   .     A
N524   O525    1.301   .     A
N524   O526    1.301   .     A
N527   O529    1.301   .     A
N527   O528    1.301   .     A
N530   O532    1.301   .     A
N530   O531    1.301   .     A
N533   O534    1.301   .     A
N533   O535    1.301   .     A
N536   O537    1.301   .     A
N536   O538    1.300   .     A
N539   O540    1.301   .     A
N539   O541    1.301   .     A
N542   O544    1.300   .     A
N542   O543    1.301   .     A
O545   Zn573   1.986   .     S
O545   C561    1.288   .     A
O546   C562    1.282   .     A
O546   Zn710   1.986   .     S
O547   C562    1.289   .     A
O547   Zn709   1.988   .     S
O548   C561    1.282   .     A
O548   Zn574   1.988   .     S
O549   C563    1.286   .     A
O549   Zn710   2.017   .     S
O550   C564    1.297   .     A
O550   Zn573   2.017   .     S
O551   Zn574   2.017   .     S
O551   C564    1.286   .     A
O552   C563    1.297   .     A
O552   Zn709   2.017   .     S
O553   C565    1.282   .     A
O553   Zn847   1.986   .     S
O554   C566    1.288   .     A
O554   Zn576   1.986   .     S
O555   Zn575   1.988   .     S
O555   C566    1.282   .     A
O556   C565    1.289   .     A
O556   Zn848   1.988   .     S
O557   C567    1.297   .     A
O557   Zn848   2.017   .     S
O558   Zn575   2.017   .     S
O558   C568    1.287   .     A
O559   Zn576   2.017   .     S
O559   C568    1.296   .     A
O560   C567    1.286   .     A
O560   Zn847   2.017   .     S
C561   C604    1.410   .     S
C562   C603    1.410   .     S
C563   C602    1.435   .     S
C564   C601    1.435   .     S
C565   C608    1.410   .     S
C566   C607    1.410   .     S
C567   C606    1.434   .     S
C568   C605    1.433   .     S
N569   C578    1.360   .     A
N569   Zn573   2.026   .     S
N569   C716    1.379   1_455 S
N570   C579    1.382   .     A
N570   Zn574   2.026   .     S
N570   C713    1.368   1_455 S
N571   Zn575   2.026   .     S
N571   C584    1.372   .     A
N571   C854    1.381   1_545 S
N572   Zn576   2.026   .     S
N572   C581    1.367   .     A
N572   C855    1.360   1_545 S
Zn573  O688    2.017   1_455 S
Zn573  O683    1.988   1_455 S
Zn574  O685    2.017   1_455 S
Zn574  O682    1.986   1_455 S
Zn575  O832    2.017   1_545 S
Zn575  O825    1.986   1_545 S
Zn576  O829    2.017   1_545 S
Zn576  O828    1.988   1_545 S
C577   N609    1.434   .     S
C577   N706    1.368   .     S
C578   N612    1.429   .     S
C578   C1123   1.421   .     S
C579   N615    1.427   .     S
C580   N618    1.427   .     S
C580   C1121   1.426   .     S
C580   N705    1.379   .     S
C581   N621    1.429   .     S
C582   N624    1.427   .     S
C582   N843    1.381   .     S
C582   C1127   1.421   .     S
C583   N627    1.429   .     S
C583   N844    1.360   .     S
C584   N630    1.430   .     S
C584   C1125   1.434   .     S
C585   N633    1.432   .     S
C585   C602    1.414   .     A
C585   C595    1.381   .     A
C586   C601    1.405   .     A
C586   N636    1.439   .     S
C586   C596    1.380   .     A
C587   N639    1.431   .     S
C587   C593    1.380   .     A
C587   C601    1.414   .     A
C588   N642    1.439   .     S
C588   C602    1.405   .     A
C588   C594    1.381   .     A
C589   C604    1.405   .     A
C589   C599    1.386   .     A
C589   N645    1.440   .     S
C590   C603    1.404   .     A
C590   N648    1.438   .     S
C590   C600    1.386   .     A
C591   C597    1.386   .     A
C591   N651    1.440   .     S
C591   C603    1.404   .     A
C592   C598    1.386   .     A
C592   N654    1.438   .     S
C592   C604    1.404   .     A
C593   N657    1.439   .     S
C593   C606    1.404   .     A
C594   N660    1.431   .     S
C594   C605    1.412   .     A
C595   C605    1.405   .     A
C595   N663    1.439   .     S
C596   N666    1.432   .     S
C596   C606    1.413   .     A
C597   C608    1.404   .     A
C597   N669    1.439   .     S
C598   C607    1.405   .     A
C598   N672    1.440   .     S
C599   C607    1.404   .     A
C599   N675    1.438   .     S
C600   C608    1.404   .     A
C600   N678    1.440   .     S
N609   H611    1.043   .     S
N609   H610    1.038   .     S
N612   H613    1.046   .     S
N612   H750    1.046   1_455 S
H614   N748    1.046   .     S
N615   H617    1.044   .     S
N615   H616    1.038   .     S
N618   H619    1.043   .     S
N618   H756    1.041   .     S
H620   N754    1.041   1_455 S
N621   H622    1.045   .     S
N621   H623    1.045   .     S
N624   H626    1.044   .     S
N624   H625    1.038   .     S
N627   H628    1.046   .     S
N627   H629    1.046   .     S
N630   H632    1.045   .     S
N630   H631    1.042   .     S
N633   O635    1.301   .     A
N633   O634    1.301   .     A
N636   O638    1.301   .     A
N636   O637    1.301   .     A
N639   O640    1.302   .     A
N639   O641    1.302   .     A
N642   O644    1.301   .     A
N642   O643    1.301   .     A
N645   O646    1.301   .     A
N645   O647    1.300   .     A
N648   O650    1.301   .     A
N648   O649    1.301   .     A
N651   O652    1.301   .     A
N651   O653    1.300   .     A
N654   O655    1.301   .     A
N654   O656    1.301   .     A
N657   O658    1.301   .     A
N657   O659    1.301   .     A
N660   O661    1.301   .     A
N660   O662    1.301   .     A
N663   O665    1.301   .     A
N663   O664    1.301   .     A
N666   O668    1.301   .     A
N666   O667    1.301   .     A
N669   O670    1.301   .     A
N669   O671    1.301   .     A
N672   O673    1.301   .     A
N672   O674    1.300   .     A
N675   O676    1.301   .     A
N675   O677    1.301   .     A
N678   O680    1.300   .     A
N678   O679    1.301   .     A
O681   Zn709   1.986   .     S
O681   C697    1.288   .     A
O682   C698    1.282   .     A
O682   Zn574   1.986   1_655 S
O683   C698    1.289   .     A
O683   Zn573   1.988   1_655 S
O684   C697    1.282   .     A
O684   Zn710   1.988   .     S
O685   C699    1.286   .     A
O685   Zn574   2.017   1_655 S
O686   C700    1.297   .     A
O686   Zn709   2.017   .     S
O687   Zn710   2.017   .     S
O687   C700    1.286   .     A
O688   C699    1.297   .     A
O688   Zn573   2.017   1_655 S
O689   C701    1.282   .     A
O689   Zn983   1.986   .     S
O690   C702    1.288   .     A
O690   Zn712   1.986   .     S
O691   Zn711   1.988   .     S
O691   C702    1.282   .     A
O692   C701    1.289   .     A
O692   Zn984   1.988   .     S
O693   C703    1.297   .     A
O693   Zn984   2.017   .     S
O694   Zn711   2.017   .     S
O694   C704    1.287   .     A
O695   Zn712   2.017   .     S
O695   C704    1.296   .     A
O696   C703    1.286   .     A
O696   Zn983   2.017   .     S
C697   C740    1.410   .     S
C698   C739    1.410   .     S
C699   C738    1.435   .     S
C700   C737    1.435   .     S
C701   C744    1.410   .     S
C702   C743    1.410   .     S
C703   C742    1.434   .     S
C704   C741    1.433   .     S
N705   C714    1.360   .     A
N705   Zn709   2.026   .     S
N706   C715    1.382   .     A
N706   Zn710   2.026   .     S
N707   Zn711   2.026   .     S
N707   C720    1.372   .     A
N707   C990    1.381   1_545 S
N708   Zn712   2.026   .     S
N708   C717    1.367   .     A
N708   C991    1.360   1_545 S
Zn711  O968    2.017   1_545 S
Zn711  O961    1.986   1_545 S
Zn712  O965    2.017   1_545 S
Zn712  O964    1.988   1_545 S
C713   N745    1.434   .     S
C713   N570    1.368   1_655 S
C714   N748    1.429   .     S
C714   C1259   1.421   .     S
C715   N751    1.427   .     S
C716   N754    1.427   .     S
C716   C1257   1.426   .     S
C716   N569    1.379   1_655 S
C717   N757    1.429   .     S
C718   N760    1.427   .     S
C718   N979    1.381   .     S
C718   C1263   1.421   .     S
C719   N763    1.429   .     S
C719   N980    1.360   .     S
C720   N766    1.430   .     S
C720   C1261   1.434   .     S
C721   N769    1.432   .     S
C721   C738    1.414   .     A
C721   C731    1.381   .     A
C722   C737    1.405   .     A
C722   N772    1.439   .     S
C722   C732    1.380   .     A
C723   N775    1.431   .     S
C723   C729    1.380   .     A
C723   C737    1.414   .     A
C724   N778    1.439   .     S
C724   C738    1.405   .     A
C724   C730    1.381   .     A
C725   C740    1.405   .     A
C725   C735    1.386   .     A
C725   N781    1.440   .     S
C726   C739    1.404   .     A
C726   N784    1.438   .     S
C726   C736    1.386   .     A
C727   C733    1.386   .     A
C727   N787    1.440   .     S
C727   C739    1.404   .     A
C728   C734    1.386   .     A
C728   N790    1.438   .     S
C728   C740    1.404   .     A
C729   N793    1.439   .     S
C729   C742    1.404   .     A
C730   N796    1.431   .     S
C730   C741    1.412   .     A
C731   C741    1.405   .     A
C731   N799    1.439   .     S
C732   N802    1.432   .     S
C732   C742    1.413   .     A
C733   C744    1.404   .     A
C733   N805    1.439   .     S
C734   C743    1.405   .     A
C734   N808    1.440   .     S
C735   C743    1.404   .     A
C735   N811    1.438   .     S
C736   C744    1.404   .     A
C736   N814    1.440   .     S
N745   H747    1.043   .     S
N745   H746    1.038   .     S
N748   H749    1.046   .     S
H750   N612    1.046   1_655 S
N751   H753    1.044   .     S
N751   H752    1.038   .     S
N754   H755    1.043   .     S
N754   H620    1.041   1_655 S
N757   H758    1.045   .     S
N757   H759    1.045   .     S
N760   H762    1.044   .     S
N760   H761    1.038   .     S
N763   H764    1.046   .     S
N763   H765    1.046   .     S
N766   H768    1.045   .     S
N766   H767    1.042   .     S
N769   O771    1.301   .     A
N769   O770    1.301   .     A
N772   O774    1.301   .     A
N772   O773    1.301   .     A
N775   O776    1.302   .     A
N775   O777    1.302   .     A
N778   O780    1.301   .     A
N778   O779    1.301   .     A
N781   O782    1.301   .     A
N781   O783    1.300   .     A
N784   O786    1.301   .     A
N784   O785    1.301   .     A
N787   O788    1.301   .     A
N787   O789    1.300   .     A
N790   O791    1.301   .     A
N790   O792    1.301   .     A
N793   O794    1.301   .     A
N793   O795    1.301   .     A
N796   O797    1.301   .     A
N796   O798    1.301   .     A
N799   O801    1.301   .     A
N799   O800    1.301   .     A
N802   O804    1.301   .     A
N802   O803    1.301   .     A
N805   O806    1.301   .     A
N805   O807    1.301   .     A
N808   O809    1.301   .     A
N808   O810    1.300   .     A
N811   O812    1.301   .     A
N811   O813    1.301   .     A
N814   O816    1.300   .     A
N814   O815    1.301   .     A
O817   Zn845   1.986   .     S
O817   C833    1.288   .     A
O818   C834    1.282   .     A
O818   Zn982   1.986   .     S
O819   C834    1.289   .     A
O819   Zn981   1.988   .     S
O820   C833    1.282   .     A
O820   Zn846   1.988   .     S
O821   C835    1.286   .     A
O821   Zn982   2.017   .     S
O822   C836    1.297   .     A
O822   Zn845   2.017   .     S
O823   Zn846   2.017   .     S
O823   C836    1.286   .     A
O824   C835    1.297   .     A
O824   Zn981   2.017   .     S
O825   C837    1.282   .     A
O825   Zn575   1.986   1_565 S
O826   C838    1.288   .     A
O826   Zn848   1.986   .     S
O827   Zn847   1.988   .     S
O827   C838    1.282   .     A
O828   C837    1.289   .     A
O828   Zn576   1.988   1_565 S
O829   C839    1.297   .     A
O829   Zn576   2.017   1_565 S
O830   Zn847   2.017   .     S
O830   C840    1.287   .     A
O831   Zn848   2.017   .     S
O831   C840    1.296   .     A
O832   C839    1.286   .     A
O832   Zn575   2.017   1_565 S
C833   C876    1.410   .     S
C834   C875    1.410   .     S
C835   C874    1.435   .     S
C836   C873    1.435   .     S
C837   C880    1.410   .     S
C838   C879    1.410   .     S
C839   C878    1.434   .     S
C840   C877    1.433   .     S
N841   C850    1.360   .     A
N841   Zn845   2.026   .     S
N841   C988    1.379   1_455 S
N842   C851    1.382   .     A
N842   Zn846   2.026   .     S
N842   C985    1.368   1_455 S
N843   Zn847   2.026   .     S
N843   C856    1.372   .     A
N844   Zn848   2.026   .     S
N844   C853    1.367   .     A
Zn845  O960    2.017   1_455 S
Zn845  O955    1.988   1_455 S
Zn846  O957    2.017   1_455 S
Zn846  O954    1.986   1_455 S
C849   N881    1.434   .     S
C849   N978    1.368   .     S
C850   N884    1.429   .     S
C850   C1395   1.421   .     S
C851   N887    1.427   .     S
C852   N890    1.427   .     S
C852   C1393   1.426   .     S
C852   N977    1.379   .     S
C853   N893    1.429   .     S
C854   N896    1.427   .     S
C854   N571    1.381   1_565 S
C854   C1399   1.421   .     S
C855   N899    1.429   .     S
C855   N572    1.360   1_565 S
C856   N902    1.430   .     S
C856   C1397   1.434   .     S
C857   N905    1.432   .     S
C857   C874    1.414   .     A
C857   C867    1.381   .     A
C858   C873    1.405   .     A
C858   N908    1.439   .     S
C858   C868    1.380   .     A
C859   N911    1.431   .     S
C859   C865    1.380   .     A
C859   C873    1.414   .     A
C860   N914    1.439   .     S
C860   C874    1.405   .     A
C860   C866    1.381   .     A
C861   C876    1.405   .     A
C861   C871    1.386   .     A
C861   N917    1.440   .     S
C862   C875    1.404   .     A
C862   N920    1.438   .     S
C862   C872    1.386   .     A
C863   C869    1.386   .     A
C863   N923    1.440   .     S
C863   C875    1.404   .     A
C864   C870    1.386   .     A
C864   N926    1.438   .     S
C864   C876    1.404   .     A
C865   N929    1.439   .     S
C865   C878    1.404   .     A
C866   N932    1.431   .     S
C866   C877    1.412   .     A
C867   C877    1.405   .     A
C867   N935    1.439   .     S
C868   N938    1.432   .     S
C868   C878    1.413   .     A
C869   C880    1.404   .     A
C869   N941    1.439   .     S
C870   C879    1.405   .     A
C870   N944    1.440   .     S
C871   C879    1.404   .     A
C871   N947    1.438   .     S
C872   C880    1.404   .     A
C872   N950    1.440   .     S
N881   H883    1.043   .     S
N881   H882    1.038   .     S
N884   H885    1.046   .     S
N884   H1022   1.046   1_455 S
H886   N1020   1.046   .     S
N887   H889    1.044   .     S
N887   H888    1.038   .     S
N890   H891    1.043   .     S
N890   H1028   1.041   .     S
H892   N1026   1.041   1_455 S
N893   H894    1.045   .     S
N893   H895    1.045   .     S
N896   H898    1.044   .     S
N896   H897    1.038   .     S
N899   H900    1.046   .     S
N899   H901    1.046   .     S
N902   H904    1.045   .     S
N902   H903    1.042   .     S
N905   O907    1.301   .     A
N905   O906    1.301   .     A
N908   O910    1.301   .     A
N908   O909    1.301   .     A
N911   O912    1.302   .     A
N911   O913    1.302   .     A
N914   O916    1.301   .     A
N914   O915    1.301   .     A
N917   O918    1.301   .     A
N917   O919    1.300   .     A
N920   O922    1.301   .     A
N920   O921    1.301   .     A
N923   O924    1.301   .     A
N923   O925    1.300   .     A
N926   O927    1.301   .     A
N926   O928    1.301   .     A
N929   O930    1.301   .     A
N929   O931    1.301   .     A
N932   O933    1.301   .     A
N932   O934    1.301   .     A
N935   O937    1.301   .     A
N935   O936    1.301   .     A
N938   O940    1.301   .     A
N938   O939    1.301   .     A
N941   O942    1.301   .     A
N941   O943    1.301   .     A
N944   O945    1.301   .     A
N944   O946    1.300   .     A
N947   O948    1.301   .     A
N947   O949    1.301   .     A
N950   O952    1.300   .     A
N950   O951    1.301   .     A
O953   Zn981   1.986   .     S
O953   C969    1.288   .     A
O954   C970    1.282   .     A
O954   Zn846   1.986   1_655 S
O955   C970    1.289   .     A
O955   Zn845   1.988   1_655 S
O956   C969    1.282   .     A
O956   Zn982   1.988   .     S
O957   C971    1.286   .     A
O957   Zn846   2.017   1_655 S
O958   C972    1.297   .     A
O958   Zn981   2.017   .     S
O959   Zn982   2.017   .     S
O959   C972    1.286   .     A
O960   C971    1.297   .     A
O960   Zn845   2.017   1_655 S
O961   C973    1.282   .     A
O961   Zn711   1.986   1_565 S
O962   C974    1.288   .     A
O962   Zn984   1.986   .     S
O963   Zn983   1.988   .     S
O963   C974    1.282   .     A
O964   C973    1.289   .     A
O964   Zn712   1.988   1_565 S
O965   C975    1.297   .     A
O965   Zn712   2.017   1_565 S
O966   Zn983   2.017   .     S
O966   C976    1.287   .     A
O967   Zn984   2.017   .     S
O967   C976    1.296   .     A
O968   C975    1.286   .     A
O968   Zn711   2.017   1_565 S
C969   C1012   1.410   .     S
C970   C1011   1.410   .     S
C971   C1010   1.435   .     S
C972   C1009   1.435   .     S
C973   C1016   1.410   .     S
C974   C1015   1.410   .     S
C975   C1014   1.434   .     S
C976   C1013   1.433   .     S
N977   C986    1.360   .     A
N977   Zn981   2.026   .     S
N978   C987    1.382   .     A
N978   Zn982   2.026   .     S
N979   Zn983   2.026   .     S
N979   C992    1.372   .     A
N980   Zn984   2.026   .     S
N980   C989    1.367   .     A
C985   N1017   1.434   .     S
C985   N842    1.368   1_655 S
C986   N1020   1.429   .     S
C986   C1531   1.421   .     S
C987   N1023   1.427   .     S
C988   N1026   1.427   .     S
C988   C1529   1.426   .     S
C988   N841    1.379   1_655 S
C989   N1029   1.429   .     S
C990   N1032   1.427   .     S
C990   N707    1.381   1_565 S
C990   C1535   1.421   .     S
C991   N1035   1.429   .     S
C991   N708    1.360   1_565 S
C992   N1038   1.430   .     S
C992   C1533   1.434   .     S
C993   N1041   1.432   .     S
C993   C1010   1.414   .     A
C993   C1003   1.381   .     A
C994   C1009   1.405   .     A
C994   N1044   1.439   .     S
C994   C1004   1.380   .     A
C995   N1047   1.431   .     S
C995   C1001   1.380   .     A
C995   C1009   1.414   .     A
C996   N1050   1.439   .     S
C996   C1010   1.405   .     A
C996   C1002   1.381   .     A
C997   C1012   1.405   .     A
C997   C1007   1.386   .     A
C997   N1053   1.440   .     S
C998   C1011   1.404   .     A
C998   N1056   1.438   .     S
C998   C1008   1.386   .     A
C999   C1005   1.386   .     A
C999   N1059   1.440   .     S
C999   C1011   1.404   .     A
C1000  C1006   1.386   .     A
C1000  N1062   1.438   .     S
C1000  C1012   1.404   .     A
C1001  N1065   1.439   .     S
C1001  C1014   1.404   .     A
C1002  N1068   1.431   .     S
C1002  C1013   1.412   .     A
C1003  C1013   1.405   .     A
C1003  N1071   1.439   .     S
C1004  N1074   1.432   .     S
C1004  C1014   1.413   .     A
C1005  C1016   1.404   .     A
C1005  N1077   1.439   .     S
C1006  C1015   1.405   .     A
C1006  N1080   1.440   .     S
C1007  C1015   1.404   .     A
C1007  N1083   1.438   .     S
C1008  C1016   1.404   .     A
C1008  N1086   1.440   .     S
N1017  H1019   1.043   .     S
N1017  H1018   1.038   .     S
N1020  H1021   1.046   .     S
H1022  N884    1.046   1_655 S
N1023  H1025   1.044   .     S
N1023  H1024   1.038   .     S
N1026  H1027   1.043   .     S
N1026  H892    1.041   1_655 S
N1029  H1030   1.045   .     S
N1029  H1031   1.045   .     S
N1032  H1034   1.044   .     S
N1032  H1033   1.038   .     S
N1035  H1036   1.046   .     S
N1035  H1037   1.046   .     S
N1038  H1040   1.045   .     S
N1038  H1039   1.042   .     S
N1041  O1043   1.301   .     A
N1041  O1042   1.301   .     A
N1044  O1046   1.301   .     A
N1044  O1045   1.301   .     A
N1047  O1048   1.302   .     A
N1047  O1049   1.302   .     A
N1050  O1052   1.301   .     A
N1050  O1051   1.301   .     A
N1053  O1054   1.301   .     A
N1053  O1055   1.300   .     A
N1056  O1058   1.301   .     A
N1056  O1057   1.301   .     A
N1059  O1060   1.301   .     A
N1059  O1061   1.300   .     A
N1062  O1063   1.301   .     A
N1062  O1064   1.301   .     A
N1065  O1066   1.301   .     A
N1065  O1067   1.301   .     A
N1068  O1069   1.301   .     A
N1068  O1070   1.301   .     A
N1071  O1073   1.301   .     A
N1071  O1072   1.301   .     A
N1074  O1076   1.301   .     A
N1074  O1075   1.301   .     A
N1077  O1078   1.301   .     A
N1077  O1079   1.301   .     A
N1080  O1081   1.301   .     A
N1080  O1082   1.300   .     A
N1083  O1084   1.301   .     A
N1083  O1085   1.301   .     A
N1086  O1088   1.300   .     A
N1086  O1087   1.301   .     A
O1089  Zn1117  1.986   .     S
O1089  C1105   1.288   .     A
O1090  C1106   1.282   .     A
O1090  Zn1254  1.986   .     S
O1091  C1106   1.289   .     A
O1091  Zn1253  1.988   .     S
O1092  C1105   1.282   .     A
O1092  Zn1118  1.988   .     S
O1093  C1107   1.286   .     A
O1093  Zn1254  2.017   .     S
O1094  C1108   1.297   .     A
O1094  Zn1117  2.017   .     S
O1095  Zn1118  2.017   .     S
O1095  C1108   1.286   .     A
O1096  C1107   1.297   .     A
O1096  Zn1253  2.017   .     S
O1097  C1109   1.282   .     A
O1097  Zn1391  1.986   .     S
O1098  C1110   1.288   .     A
O1098  Zn1120  1.986   .     S
O1099  Zn1119  1.988   .     S
O1099  C1110   1.282   .     A
O1100  C1109   1.289   .     A
O1100  Zn1392  1.988   .     S
O1101  C1111   1.297   .     A
O1101  Zn1392  2.017   .     S
O1102  Zn1119  2.017   .     S
O1102  C1112   1.287   .     A
O1103  Zn1120  2.017   .     S
O1103  C1112   1.296   .     A
O1104  C1111   1.286   .     A
O1104  Zn1391  2.017   .     S
C1105  C1148   1.410   .     S
C1106  C1147   1.410   .     S
C1107  C1146   1.435   .     S
C1108  C1145   1.435   .     S
C1109  C1152   1.410   .     S
C1110  C1151   1.410   .     S
C1111  C1150   1.434   .     S
C1112  C1149   1.433   .     S
N1113  C1122   1.360   .     A
N1113  Zn1117  2.026   .     S
N1113  C1260   1.379   1_455 S
N1114  C1123   1.382   .     A
N1114  Zn1118  2.026   .     S
N1114  C1257   1.368   1_455 S
N1115  Zn1119  2.026   .     S
N1115  C1128   1.372   .     A
N1115  C1398   1.381   1_545 S
N1116  Zn1120  2.026   .     S
N1116  C1125   1.367   .     A
N1116  C1399   1.360   1_545 S
Zn1117 O1232   2.017   1_455 S
Zn1117 O1227   1.988   1_455 S
Zn1118 O1229   2.017   1_455 S
Zn1118 O1226   1.986   1_455 S
Zn1119 O1376   2.017   1_545 S
Zn1119 O1369   1.986   1_545 S
Zn1120 O1373   2.017   1_545 S
Zn1120 O1372   1.988   1_545 S
C1121  N1153   1.434   .     S
C1121  N1250   1.368   .     S
C1122  N1156   1.429   .     S
C1122  C35     1.421   1_556 S
C1123  N1159   1.427   .     S
C1124  N1162   1.427   .     S
C1124  C33     1.426   1_556 S
C1124  N1249   1.379   .     S
C1125  N1165   1.429   .     S
C1126  N1168   1.427   .     S
C1126  N1387   1.381   .     S
C1126  C39     1.421   1_556 S
C1127  N1171   1.429   .     S
C1127  N1388   1.360   .     S
C1128  N1174   1.430   .     S
C1128  C37     1.434   1_556 S
C1129  N1177   1.432   .     S
C1129  C1146   1.414   .     A
C1129  C1139   1.381   .     A
C1130  C1145   1.405   .     A
C1130  N1180   1.439   .     S
C1130  C1140   1.380   .     A
C1131  N1183   1.431   .     S
C1131  C1137   1.380   .     A
C1131  C1145   1.414   .     A
C1132  N1186   1.439   .     S
C1132  C1146   1.405   .     A
C1132  C1138   1.381   .     A
C1133  C1148   1.405   .     A
C1133  C1143   1.386   .     A
C1133  N1189   1.440   .     S
C1134  C1147   1.404   .     A
C1134  N1192   1.438   .     S
C1134  C1144   1.386   .     A
C1135  C1141   1.386   .     A
C1135  N1195   1.440   .     S
C1135  C1147   1.404   .     A
C1136  C1142   1.386   .     A
C1136  N1198   1.438   .     S
C1136  C1148   1.404   .     A
C1137  N1201   1.439   .     S
C1137  C1150   1.404   .     A
C1138  N1204   1.431   .     S
C1138  C1149   1.412   .     A
C1139  C1149   1.405   .     A
C1139  N1207   1.439   .     S
C1140  N1210   1.432   .     S
C1140  C1150   1.413   .     A
C1141  C1152   1.404   .     A
C1141  N1213   1.439   .     S
C1142  C1151   1.405   .     A
C1142  N1216   1.440   .     S
C1143  C1151   1.404   .     A
C1143  N1219   1.438   .     S
C1144  C1152   1.404   .     A
C1144  N1222   1.440   .     S
N1153  H1155   1.043   .     S
N1153  H1154   1.038   .     S
N1156  H1157   1.046   .     S
N1156  H1294   1.046   1_455 S
H1158  N1292   1.046   .     S
N1159  H1161   1.044   .     S
N1159  H1160   1.038   .     S
N1162  H1163   1.043   .     S
N1162  H1300   1.041   .     S
H1164  N1298   1.041   1_455 S
N1165  H1166   1.045   .     S
N1165  H1167   1.045   .     S
N1168  H1170   1.044   .     S
N1168  H1169   1.038   .     S
N1171  H1172   1.046   .     S
N1171  H1173   1.046   .     S
N1174  H1176   1.045   .     S
N1174  H1175   1.042   .     S
N1177  O1179   1.301   .     A
N1177  O1178   1.301   .     A
N1180  O1182   1.301   .     A
N1180  O1181   1.301   .     A
N1183  O1184   1.302   .     A
N1183  O1185   1.302   .     A
N1186  O1188   1.301   .     A
N1186  O1187   1.301   .     A
N1189  O1190   1.301   .     A
N1189  O1191   1.300   .     A
N1192  O1194   1.301   .     A
N1192  O1193   1.301   .     A
N1195  O1196   1.301   .     A
N1195  O1197   1.300   .     A
N1198  O1199   1.301   .     A
N1198  O1200   1.301   .     A
N1201  O1202   1.301   .     A
N1201  O1203   1.301   .     A
N1204  O1205   1.301   .     A
N1204  O1206   1.301   .     A
N1207  O1209   1.301   .     A
N1207  O1208   1.301   .     A
N1210  O1212   1.301   .     A
N1210  O1211   1.301   .     A
N1213  O1214   1.301   .     A
N1213  O1215   1.301   .     A
N1216  O1217   1.301   .     A
N1216  O1218   1.300   .     A
N1219  O1220   1.301   .     A
N1219  O1221   1.301   .     A
N1222  O1224   1.300   .     A
N1222  O1223   1.301   .     A
O1225  Zn1253  1.986   .     S
O1225  C1241   1.288   .     A
O1226  C1242   1.282   .     A
O1226  Zn1118  1.986   1_655 S
O1227  C1242   1.289   .     A
O1227  Zn1117  1.988   1_655 S
O1228  C1241   1.282   .     A
O1228  Zn1254  1.988   .     S
O1229  C1243   1.286   .     A
O1229  Zn1118  2.017   1_655 S
O1230  C1244   1.297   .     A
O1230  Zn1253  2.017   .     S
O1231  Zn1254  2.017   .     S
O1231  C1244   1.286   .     A
O1232  C1243   1.297   .     A
O1232  Zn1117  2.017   1_655 S
O1233  C1245   1.282   .     A
O1233  Zn1527  1.986   .     S
O1234  C1246   1.288   .     A
O1234  Zn1256  1.986   .     S
O1235  Zn1255  1.988   .     S
O1235  C1246   1.282   .     A
O1236  C1245   1.289   .     A
O1236  Zn1528  1.988   .     S
O1237  C1247   1.297   .     A
O1237  Zn1528  2.017   .     S
O1238  Zn1255  2.017   .     S
O1238  C1248   1.287   .     A
O1239  Zn1256  2.017   .     S
O1239  C1248   1.296   .     A
O1240  C1247   1.286   .     A
O1240  Zn1527  2.017   .     S
C1241  C1284   1.410   .     S
C1242  C1283   1.410   .     S
C1243  C1282   1.435   .     S
C1244  C1281   1.435   .     S
C1245  C1288   1.410   .     S
C1246  C1287   1.410   .     S
C1247  C1286   1.434   .     S
C1248  C1285   1.433   .     S
N1249  C1258   1.360   .     A
N1249  Zn1253  2.026   .     S
N1250  C1259   1.382   .     A
N1250  Zn1254  2.026   .     S
N1251  Zn1255  2.026   .     S
N1251  C1264   1.372   .     A
N1251  C1534   1.381   1_545 S
N1252  Zn1256  2.026   .     S
N1252  C1261   1.367   .     A
N1252  C1535   1.360   1_545 S
Zn1255 O1512   2.017   1_545 S
Zn1255 O1505   1.986   1_545 S
Zn1256 O1509   2.017   1_545 S
Zn1256 O1508   1.988   1_545 S
C1257  N1289   1.434   .     S
C1257  N1114   1.368   1_655 S
C1258  N1292   1.429   .     S
C1258  C171    1.421   1_556 S
C1259  N1295   1.427   .     S
C1260  N1298   1.427   .     S
C1260  C169    1.426   1_556 S
C1260  N1113   1.379   1_655 S
C1261  N1301   1.429   .     S
C1262  N1304   1.427   .     S
C1262  N1523   1.381   .     S
C1262  C175    1.421   1_556 S
C1263  N1307   1.429   .     S
C1263  N1524   1.360   .     S
C1264  N1310   1.430   .     S
C1264  C173    1.434   1_556 S
C1265  N1313   1.432   .     S
C1265  C1282   1.414   .     A
C1265  C1275   1.381   .     A
C1266  C1281   1.405   .     A
C1266  N1316   1.439   .     S
C1266  C1276   1.380   .     A
C1267  N1319   1.431   .     S
C1267  C1273   1.380   .     A
C1267  C1281   1.414   .     A
C1268  N1322   1.439   .     S
C1268  C1282   1.405   .     A
C1268  C1274   1.381   .     A
C1269  C1284   1.405   .     A
C1269  C1279   1.386   .     A
C1269  N1325   1.440   .     S
C1270  C1283   1.404   .     A
C1270  N1328   1.438   .     S
C1270  C1280   1.386   .     A
C1271  C1277   1.386   .     A
C1271  N1331   1.440   .     S
C1271  C1283   1.404   .     A
C1272  C1278   1.386   .     A
C1272  N1334   1.438   .     S
C1272  C1284   1.404   .     A
C1273  N1337   1.439   .     S
C1273  C1286   1.404   .     A
C1274  N1340   1.431   .     S
C1274  C1285   1.412   .     A
C1275  C1285   1.405   .     A
C1275  N1343   1.439   .     S
C1276  N1346   1.432   .     S
C1276  C1286   1.413   .     A
C1277  C1288   1.404   .     A
C1277  N1349   1.439   .     S
C1278  C1287   1.405   .     A
C1278  N1352   1.440   .     S
C1279  C1287   1.404   .     A
C1279  N1355   1.438   .     S
C1280  C1288   1.404   .     A
C1280  N1358   1.440   .     S
N1289  H1291   1.043   .     S
N1289  H1290   1.038   .     S
N1292  H1293   1.046   .     S
H1294  N1156   1.046   1_655 S
N1295  H1297   1.044   .     S
N1295  H1296   1.038   .     S
N1298  H1299   1.043   .     S
N1298  H1164   1.041   1_655 S
N1301  H1302   1.045   .     S
N1301  H1303   1.045   .     S
N1304  H1306   1.044   .     S
N1304  H1305   1.038   .     S
N1307  H1308   1.046   .     S
N1307  H1309   1.046   .     S
N1310  H1312   1.045   .     S
N1310  H1311   1.042   .     S
N1313  O1315   1.301   .     A
N1313  O1314   1.301   .     A
N1316  O1318   1.301   .     A
N1316  O1317   1.301   .     A
N1319  O1320   1.302   .     A
N1319  O1321   1.302   .     A
N1322  O1324   1.301   .     A
N1322  O1323   1.301   .     A
N1325  O1326   1.301   .     A
N1325  O1327   1.300   .     A
N1328  O1330   1.301   .     A
N1328  O1329   1.301   .     A
N1331  O1332   1.301   .     A
N1331  O1333   1.300   .     A
N1334  O1335   1.301   .     A
N1334  O1336   1.301   .     A
N1337  O1338   1.301   .     A
N1337  O1339   1.301   .     A
N1340  O1341   1.301   .     A
N1340  O1342   1.301   .     A
N1343  O1345   1.301   .     A
N1343  O1344   1.301   .     A
N1346  O1348   1.301   .     A
N1346  O1347   1.301   .     A
N1349  O1350   1.301   .     A
N1349  O1351   1.301   .     A
N1352  O1353   1.301   .     A
N1352  O1354   1.300   .     A
N1355  O1356   1.301   .     A
N1355  O1357   1.301   .     A
N1358  O1360   1.300   .     A
N1358  O1359   1.301   .     A
O1361  Zn1389  1.986   .     S
O1361  C1377   1.288   .     A
O1362  C1378   1.282   .     A
O1362  Zn1526  1.986   .     S
O1363  C1378   1.289   .     A
O1363  Zn1525  1.988   .     S
O1364  C1377   1.282   .     A
O1364  Zn1390  1.988   .     S
O1365  C1379   1.286   .     A
O1365  Zn1526  2.017   .     S
O1366  C1380   1.297   .     A
O1366  Zn1389  2.017   .     S
O1367  Zn1390  2.017   .     S
O1367  C1380   1.286   .     A
O1368  C1379   1.297   .     A
O1368  Zn1525  2.017   .     S
O1369  C1381   1.282   .     A
O1369  Zn1119  1.986   1_565 S
O1370  C1382   1.288   .     A
O1370  Zn1392  1.986   .     S
O1371  Zn1391  1.988   .     S
O1371  C1382   1.282   .     A
O1372  C1381   1.289   .     A
O1372  Zn1120  1.988   1_565 S
O1373  C1383   1.297   .     A
O1373  Zn1120  2.017   1_565 S
O1374  Zn1391  2.017   .     S
O1374  C1384   1.287   .     A
O1375  Zn1392  2.017   .     S
O1375  C1384   1.296   .     A
O1376  C1383   1.286   .     A
O1376  Zn1119  2.017   1_565 S
C1377  C1420   1.410   .     S
C1378  C1419   1.410   .     S
C1379  C1418   1.435   .     S
C1380  C1417   1.435   .     S
C1381  C1424   1.410   .     S
C1382  C1423   1.410   .     S
C1383  C1422   1.434   .     S
C1384  C1421   1.433   .     S
N1385  C1394   1.360   .     A
N1385  Zn1389  2.026   .     S
N1385  C1532   1.379   1_455 S
N1386  C1395   1.382   .     A
N1386  Zn1390  2.026   .     S
N1386  C1529   1.368   1_455 S
N1387  Zn1391  2.026   .     S
N1387  C1400   1.372   .     A
N1388  Zn1392  2.026   .     S
N1388  C1397   1.367   .     A
Zn1389 O1504   2.017   1_455 S
Zn1389 O1499   1.988   1_455 S
Zn1390 O1501   2.017   1_455 S
Zn1390 O1498   1.986   1_455 S
C1393  N1425   1.434   .     S
C1393  N1522   1.368   .     S
C1394  N1428   1.429   .     S
C1394  C307    1.421   1_556 S
C1395  N1431   1.427   .     S
C1396  N1434   1.427   .     S
C1396  C305    1.426   1_556 S
C1396  N1521   1.379   .     S
C1397  N1437   1.429   .     S
C1398  N1440   1.427   .     S
C1398  N1115   1.381   1_565 S
C1398  C311    1.421   1_556 S
C1399  N1443   1.429   .     S
C1399  N1116   1.360   1_565 S
C1400  N1446   1.430   .     S
C1400  C309    1.434   1_556 S
C1401  N1449   1.432   .     S
C1401  C1418   1.414   .     A
C1401  C1411   1.381   .     A
C1402  C1417   1.405   .     A
C1402  N1452   1.439   .     S
C1402  C1412   1.380   .     A
C1403  N1455   1.431   .     S
C1403  C1409   1.380   .     A
C1403  C1417   1.414   .     A
C1404  N1458   1.439   .     S
C1404  C1418   1.405   .     A
C1404  C1410   1.381   .     A
C1405  C1420   1.405   .     A
C1405  C1415   1.386   .     A
C1405  N1461   1.440   .     S
C1406  C1419   1.404   .     A
C1406  N1464   1.438   .     S
C1406  C1416   1.386   .     A
C1407  C1413   1.386   .     A
C1407  N1467   1.440   .     S
C1407  C1419   1.404   .     A
C1408  C1414   1.386   .     A
C1408  N1470   1.438   .     S
C1408  C1420   1.404   .     A
C1409  N1473   1.439   .     S
C1409  C1422   1.404   .     A
C1410  N1476   1.431   .     S
C1410  C1421   1.412   .     A
C1411  C1421   1.405   .     A
C1411  N1479   1.439   .     S
C1412  N1482   1.432   .     S
C1412  C1422   1.413   .     A
C1413  C1424   1.404   .     A
C1413  N1485   1.439   .     S
C1414  C1423   1.405   .     A
C1414  N1488   1.440   .     S
C1415  C1423   1.404   .     A
C1415  N1491   1.438   .     S
C1416  C1424   1.404   .     A
C1416  N1494   1.440   .     S
N1425  H1427   1.043   .     S
N1425  H1426   1.038   .     S
N1428  H1429   1.046   .     S
N1428  H1566   1.046   1_455 S
H1430  N1564   1.046   .     S
N1431  H1433   1.044   .     S
N1431  H1432   1.038   .     S
N1434  H1435   1.043   .     S
N1434  H1572   1.041   .     S
H1436  N1570   1.041   1_455 S
N1437  H1438   1.045   .     S
N1437  H1439   1.045   .     S
N1440  H1442   1.044   .     S
N1440  H1441   1.038   .     S
N1443  H1444   1.046   .     S
N1443  H1445   1.046   .     S
N1446  H1448   1.045   .     S
N1446  H1447   1.042   .     S
N1449  O1451   1.301   .     A
N1449  O1450   1.301   .     A
N1452  O1454   1.301   .     A
N1452  O1453   1.301   .     A
N1455  O1456   1.302   .     A
N1455  O1457   1.302   .     A
N1458  O1460   1.301   .     A
N1458  O1459   1.301   .     A
N1461  O1462   1.301   .     A
N1461  O1463   1.300   .     A
N1464  O1466   1.301   .     A
N1464  O1465   1.301   .     A
N1467  O1468   1.301   .     A
N1467  O1469   1.300   .     A
N1470  O1471   1.301   .     A
N1470  O1472   1.301   .     A
N1473  O1474   1.301   .     A
N1473  O1475   1.301   .     A
N1476  O1477   1.301   .     A
N1476  O1478   1.301   .     A
N1479  O1481   1.301   .     A
N1479  O1480   1.301   .     A
N1482  O1484   1.301   .     A
N1482  O1483   1.301   .     A
N1485  O1486   1.301   .     A
N1485  O1487   1.301   .     A
N1488  O1489   1.301   .     A
N1488  O1490   1.300   .     A
N1491  O1492   1.301   .     A
N1491  O1493   1.301   .     A
N1494  O1496   1.300   .     A
N1494  O1495   1.301   .     A
O1497  Zn1525  1.986   .     S
O1497  C1513   1.288   .     A
O1498  C1514   1.282   .     A
O1498  Zn1390  1.986   1_655 S
O1499  C1514   1.289   .     A
O1499  Zn1389  1.988   1_655 S
O1500  C1513   1.282   .     A
O1500  Zn1526  1.988   .     S
O1501  C1515   1.286   .     A
O1501  Zn1390  2.017   1_655 S
O1502  C1516   1.297   .     A
O1502  Zn1525  2.017   .     S
O1503  Zn1526  2.017   .     S
O1503  C1516   1.286   .     A
O1504  C1515   1.297   .     A
O1504  Zn1389  2.017   1_655 S
O1505  C1517   1.282   .     A
O1505  Zn1255  1.986   1_565 S
O1506  C1518   1.288   .     A
O1506  Zn1528  1.986   .     S
O1507  Zn1527  1.988   .     S
O1507  C1518   1.282   .     A
O1508  C1517   1.289   .     A
O1508  Zn1256  1.988   1_565 S
O1509  C1519   1.297   .     A
O1509  Zn1256  2.017   1_565 S
O1510  Zn1527  2.017   .     S
O1510  C1520   1.287   .     A
O1511  Zn1528  2.017   .     S
O1511  C1520   1.296   .     A
O1512  C1519   1.286   .     A
O1512  Zn1255  2.017   1_565 S
C1513  C1556   1.410   .     S
C1514  C1555   1.410   .     S
C1515  C1554   1.435   .     S
C1516  C1553   1.435   .     S
C1517  C1560   1.410   .     S
C1518  C1559   1.410   .     S
C1519  C1558   1.434   .     S
C1520  C1557   1.433   .     S
N1521  C1530   1.360   .     A
N1521  Zn1525  2.026   .     S
N1522  C1531   1.382   .     A
N1522  Zn1526  2.026   .     S
N1523  Zn1527  2.026   .     S
N1523  C1536   1.372   .     A
N1524  Zn1528  2.026   .     S
N1524  C1533   1.367   .     A
C1529  N1561   1.434   .     S
C1529  N1386   1.368   1_655 S
C1530  N1564   1.429   .     S
C1530  C443    1.421   1_556 S
C1531  N1567   1.427   .     S
C1532  N1570   1.427   .     S
C1532  C441    1.426   1_556 S
C1532  N1385   1.379   1_655 S
C1533  N1573   1.429   .     S
C1534  N1576   1.427   .     S
C1534  N1251   1.381   1_565 S
C1534  C447    1.421   1_556 S
C1535  N1579   1.429   .     S
C1535  N1252   1.360   1_565 S
C1536  N1582   1.430   .     S
C1536  C445    1.434   1_556 S
C1537  N1585   1.432   .     S
C1537  C1554   1.414   .     A
C1537  C1547   1.381   .     A
C1538  C1553   1.405   .     A
C1538  N1588   1.439   .     S
C1538  C1548   1.380   .     A
C1539  N1591   1.431   .     S
C1539  C1545   1.380   .     A
C1539  C1553   1.414   .     A
C1540  N1594   1.439   .     S
C1540  C1554   1.405   .     A
C1540  C1546   1.381   .     A
C1541  C1556   1.405   .     A
C1541  C1551   1.386   .     A
C1541  N1597   1.440   .     S
C1542  C1555   1.404   .     A
C1542  N1600   1.438   .     S
C1542  C1552   1.386   .     A
C1543  C1549   1.386   .     A
C1543  N1603   1.440   .     S
C1543  C1555   1.404   .     A
C1544  C1550   1.386   .     A
C1544  N1606   1.438   .     S
C1544  C1556   1.404   .     A
C1545  N1609   1.439   .     S
C1545  C1558   1.404   .     A
C1546  N1612   1.431   .     S
C1546  C1557   1.412   .     A
C1547  C1557   1.405   .     A
C1547  N1615   1.439   .     S
C1548  N1618   1.432   .     S
C1548  C1558   1.413   .     A
C1549  C1560   1.404   .     A
C1549  N1621   1.439   .     S
C1550  C1559   1.405   .     A
C1550  N1624   1.440   .     S
C1551  C1559   1.404   .     A
C1551  N1627   1.438   .     S
C1552  C1560   1.404   .     A
C1552  N1630   1.440   .     S
N1561  H1563   1.043   .     S
N1561  H1562   1.038   .     S
N1564  H1565   1.046   .     S
H1566  N1428   1.046   1_655 S
N1567  H1569   1.044   .     S
N1567  H1568   1.038   .     S
N1570  H1571   1.043   .     S
N1570  H1436   1.041   1_655 S
N1573  H1574   1.045   .     S
N1573  H1575   1.045   .     S
N1576  H1578   1.044   .     S
N1576  H1577   1.038   .     S
N1579  H1580   1.046   .     S
N1579  H1581   1.046   .     S
N1582  H1584   1.045   .     S
N1582  H1583   1.042   .     S
N1585  O1587   1.301   .     A
N1585  O1586   1.301   .     A
N1588  O1590   1.301   .     A
N1588  O1589   1.301   .     A
N1591  O1592   1.302   .     A
N1591  O1593   1.302   .     A
N1594  O1596   1.301   .     A
N1594  O1595   1.301   .     A
N1597  O1598   1.301   .     A
N1597  O1599   1.300   .     A
N1600  O1602   1.301   .     A
N1600  O1601   1.301   .     A
N1603  O1604   1.301   .     A
N1603  O1605   1.300   .     A
N1606  O1607   1.301   .     A
N1606  O1608   1.301   .     A
N1609  O1610   1.301   .     A
N1609  O1611   1.301   .     A
N1612  O1613   1.301   .     A
N1612  O1614   1.301   .     A
N1615  O1617   1.301   .     A
N1615  O1616   1.301   .     A
N1618  O1620   1.301   .     A
N1618  O1619   1.301   .     A
N1621  O1622   1.301   .     A
N1621  O1623   1.301   .     A
N1624  O1625   1.301   .     A
N1624  O1626   1.300   .     A
N1627  O1628   1.301   .     A
N1627  O1629   1.301   .     A
N1630  O1632   1.300   .     A
N1630  O1631   1.301   .     A
