data_str_m3_o1_o17_pcu_sym.153
_audit_creation_date              2020-01-03
_audit_creation_method            'Materials Studio'
_symmetry_space_group_name_H-M    'P1'
_symmetry_Int_Tables_number       1
_symmetry_cell_setting            triclinic
loop_
_symmetry_equiv_pos_as_xyz
  x,y,z
_cell_length_a                    32.4934
_cell_length_b                    29.9133
_cell_length_c                    29.7848
_cell_angle_alpha                 91.5672
_cell_angle_beta                  89.2770
_cell_angle_gamma                 90.3193
loop_
_atom_site_label
_atom_site_type_symbol
_atom_site_fract_x
_atom_site_fract_y
_atom_site_fract_z
_atom_site_U_iso_or_equiv
_atom_site_adp_type
_atom_site_occupancy
C1     C     0.08682   0.16671   0.24786   0.00000  Uiso   1.00
C2     C     0.24666   0.16667   0.24755   0.00000  Uiso   1.00
C3     C     0.09454   0.14294   0.02670   0.00000  Uiso   1.00
C4     C     0.23683   0.18895   0.47329   0.00000  Uiso   1.00
C5     C     0.02166   0.12688   0.23466   0.00000  Uiso   1.00
C6     C     0.31237   0.20729   0.23658   0.00000  Uiso   1.00
C7     C     0.31267   0.12593   0.23986   0.00000  Uiso   1.00
C8     C     0.02140   0.20810   0.24289   0.00000  Uiso   1.00
C9     C     0.29100   0.16664   0.24182   0.00000  Uiso   1.00
C10    C     0.04280   0.16725   0.24239   0.00000  Uiso   1.00
C11    C     0.18022   0.02585   0.28677   0.00000  Uiso   1.00
C12    C     0.15147   0.30773   0.21415   0.00000  Uiso   1.00
C13    C     0.15534   0.02226   0.21270   0.00000  Uiso   1.00
C14    C     0.17728   0.31088   0.28772   0.00000  Uiso   1.00
C15    C     0.16729   0.16614   0.16375   0.00000  Uiso   1.00
C16    C     0.16492   0.16714   0.33623   0.00000  Uiso   1.00
C17    C     0.19822   0.18051   0.40593   0.00000  Uiso   1.00
C18    C     0.13229   0.15539   0.09444   0.00000  Uiso   1.00
C19    C     0.16253   0.16790   0.38394   0.00000  Uiso   1.00
C20    C     0.16894   0.16512   0.11606   0.00000  Uiso   1.00
C21    C     0.12657   0.15427   0.40700   0.00000  Uiso   1.00
C22    C     0.20589   0.17401   0.09259   0.00000  Uiso   1.00
C23    C     0.12759   0.15408   0.45434   0.00000  Uiso   1.00
C24    C     0.20446   0.17523   0.04538   0.00000  Uiso   1.00
C25    C     0.16476   0.16591   0.47652   0.00000  Uiso   1.00
C26    C     0.16681   0.16512   0.02341   0.00000  Uiso   1.00
C27    C     0.19998   0.17865   0.45190   0.00000  Uiso   1.00
C28    C     0.13111   0.15438   0.04823   0.00000  Uiso   1.00
C29    C     0.09285   0.14219   0.48026   0.00000  Uiso   1.00
C30    C     0.23928   0.18680   0.01946   0.00000  Uiso   1.00
H31    H     0.22522   0.19061   0.38674   0.00000  Uiso   1.00
H32    H     0.10468   0.14824   0.11393   0.00000  Uiso   1.00
H33    H     0.06389   0.13253   0.46545   0.00000  Uiso   1.00
H34    H     0.26876   0.19471   0.03404   0.00000  Uiso   1.00
H35    H     0.06717   0.13427   0.04586   0.00000  Uiso   1.00
H36    H     0.26401   0.19835   0.45419   0.00000  Uiso   1.00
N37    N     0.16667   0.28573   0.25000   0.00000  Uiso   1.00
N38    N     0.16667   0.04760   0.25000   0.00000  Uiso   1.00
O39    O     0.10559   0.20487   0.24999   0.00000  Uiso   1.00
O40    O     0.22774   0.12846   0.25000   0.00000  Uiso   1.00
O41    O     0.22774   0.20487   0.25000   0.00000  Uiso   1.00
O42    O     0.10559   0.12846   0.24999   0.00000  Uiso   1.00
O43    O     0.16666   0.20489   0.18392   0.00000  Uiso   1.00
O44    O     0.16667   0.12844   0.31607   0.00000  Uiso   1.00
O45    O     0.16667   0.20489   0.31607   0.00000  Uiso   1.00
O46    O     0.16666   0.12844   0.18392   0.00000  Uiso   1.00
Zn47   Zn    0.16667   0.21771   0.25000   0.00000  Uiso   1.00
Zn48   Zn    0.16667   0.11563   0.25000   0.00000  Uiso   1.00
C49    C     0.08766   0.14156   0.38123   0.00000  Uiso   1.00
C50    C     0.05716   0.18020   0.38187   0.00000  Uiso   1.00
H51    H     0.04436   0.18674   0.41608   0.00000  Uiso   1.00
H52    H     0.07284   0.21096   0.37058   0.00000  Uiso   1.00
H53    H     0.03135   0.17213   0.35888   0.00000  Uiso   1.00
H54    H     0.09437   0.13244   0.34563   0.00000  Uiso   1.00
H55    H     0.07315   0.11102   0.39482   0.00000  Uiso   1.00
C56    C     0.24592   0.18230   0.11773   0.00000  Uiso   1.00
C57    C     0.27443   0.14188   0.11448   0.00000  Uiso   1.00
H58    H     0.26061   0.11364   0.13272   0.00000  Uiso   1.00
H59    H     0.28032   0.13110   0.07907   0.00000  Uiso   1.00
H60    H     0.30432   0.15045   0.13028   0.00000  Uiso   1.00
H61    H     0.26165   0.21226   0.10467   0.00000  Uiso   1.00
H62    H     0.24063   0.19018   0.15383   0.00000  Uiso   1.00
O63    O     0.04191   0.08781   0.22229   0.00000  Uiso   1.00
C64    C     0.04821   0.08641   0.17509   0.00000  Uiso   1.00
H65    H     0.08056   0.07674   0.16821   0.00000  Uiso   1.00
H66    H     0.04373   0.11899   0.15831   0.00000  Uiso   1.00
C67    C     0.02016   0.05131   0.15343   0.00000  Uiso   1.00
H68    H     0.32081   0.06126   0.15753   0.00000  Uiso   1.00
H69    H     0.02745   0.04783   0.11699   0.00000  Uiso   1.00
H70    H     0.02479   0.01866   0.16930   0.00000  Uiso   1.00
O71    O     0.29195   0.24595   0.22530   0.00000  Uiso   1.00
C72    C     0.30547   0.25918   0.18215   0.00000  Uiso   1.00
H73    H     0.31117   0.23014   0.15875   0.00000  Uiso   1.00
H74    H     0.00102   0.27893   0.18460   0.00000  Uiso   1.00
C75    C     0.27332   0.28871   0.16167   0.00000  Uiso   1.00
H76    H     0.27270   0.32164   0.17954   0.00000  Uiso   1.00
H77    H     0.28110   0.29424   0.12583   0.00000  Uiso   1.00
H78    H     0.24248   0.27271   0.16402   0.00000  Uiso   1.00
O79    O     0.29265   0.08510   0.23741   0.00000  Uiso   1.00
C80    C     0.29802   0.06308   0.27824   0.00000  Uiso   1.00
H81    H     0.27888   0.07939   0.30498   0.00000  Uiso   1.00
H82    H     0.33053   0.06341   0.28969   0.00000  Uiso   1.00
C83    C     0.28499   0.01461   0.27178   0.00000  Uiso   1.00
H84    H     0.30754   0.33049   0.24964   0.00000  Uiso   1.00
H85    H     0.28310   0.33141   0.30467   0.00000  Uiso   1.00
H86    H     0.25490   0.01229   0.25496   0.00000  Uiso   1.00
O87    O     0.04211   0.24868   0.24312   0.00000  Uiso   1.00
C88    C     0.03647   0.27053   0.28528   0.00000  Uiso   1.00
H89    H     0.05173   0.25158   0.31177   0.00000  Uiso   1.00
H90    H     0.00337   0.27414   0.29445   0.00000  Uiso   1.00
C91    C     0.05587   0.31687   0.28371   0.00000  Uiso   1.00
H92    H     0.04368   0.00229   0.25525   0.00000  Uiso   1.00
H93    H     0.04961   0.00238   0.31567   0.00000  Uiso   1.00
H94    H     0.08944   0.31392   0.27858   0.00000  Uiso   1.00
O95    O     0.20676   0.05019   0.31463   0.00000  Uiso   1.00
C96    C     0.20052   0.04467   0.36104   0.00000  Uiso   1.00
H97    H     0.20927   0.01098   0.37149   0.00000  Uiso   1.00
H98    H     0.16831   0.05309   0.37099   0.00000  Uiso   1.00
C99    C     0.22989   0.07572   0.38648   0.00000  Uiso   1.00
H100   H     0.23234   0.10826   0.36985   0.00000  Uiso   1.00
H101   H     0.21899   0.08091   0.42172   0.00000  Uiso   1.00
H102   H     0.26118   0.06095   0.38671   0.00000  Uiso   1.00
O103   O     0.12199   0.28536   0.18831   0.00000  Uiso   1.00
C104   C     0.13150   0.28292   0.14184   0.00000  Uiso   1.00
H105   H     0.12852   0.24757   0.13043   0.00000  Uiso   1.00
H106   H     0.16338   0.29268   0.13299   0.00000  Uiso   1.00
C107   C     0.09963   0.30788   0.11516   0.00000  Uiso   1.00
H108   H     0.10019   0.01078   0.12331   0.00000  Uiso   1.00
H109   H     0.10610   0.30301   0.07866   0.00000  Uiso   1.00
H110   H     0.06837   0.29460   0.12262   0.00000  Uiso   1.00
O111   O     0.15287   0.04237   0.17179   0.00000  Uiso   1.00
C112   C     0.19272   0.04161   0.15162   0.00000  Uiso   1.00
H113   H     0.20881   0.00955   0.15595   0.00000  Uiso   1.00
H114   H     0.21258   0.06794   0.16702   0.00000  Uiso   1.00
C115   C     0.18979   0.04840   0.10126   0.00000  Uiso   1.00
H116   H     0.16915   0.07645   0.09438   0.00000  Uiso   1.00
H117   H     0.22079   0.05545   0.08696   0.00000  Uiso   1.00
H118   H     0.17735   0.01796   0.08410   0.00000  Uiso   1.00
O119   O     0.18048   0.28969   0.32802   0.00000  Uiso   1.00
C120   C     0.14166   0.29233   0.35063   0.00000  Uiso   1.00
H121   H     0.12073   0.26609   0.33693   0.00000  Uiso   1.00
H122   H     0.12606   0.32514   0.34706   0.00000  Uiso   1.00
C123   C     0.14674   0.28555   0.40083   0.00000  Uiso   1.00
H124   H     0.15313   0.31795   0.41850   0.00000  Uiso   1.00
H125   H     0.11807   0.27123   0.41534   0.00000  Uiso   1.00
H126   H     0.17267   0.26291   0.40699   0.00000  Uiso   1.00
C127   C     0.42015   0.16671   0.24786   0.00000  Uiso   1.00
C128   C     0.57999   0.16667   0.24755   0.00000  Uiso   1.00
C129   C     0.42787   0.14294   0.02670   0.00000  Uiso   1.00
C130   C     0.57016   0.18895   0.47329   0.00000  Uiso   1.00
C131   C     0.35499   0.12688   0.23466   0.00000  Uiso   1.00
C132   C     0.64570   0.20729   0.23658   0.00000  Uiso   1.00
C133   C     0.64601   0.12593   0.23986   0.00000  Uiso   1.00
C134   C     0.35473   0.20810   0.24289   0.00000  Uiso   1.00
C135   C     0.62434   0.16664   0.24182   0.00000  Uiso   1.00
C136   C     0.37613   0.16725   0.24239   0.00000  Uiso   1.00
C137   C     0.51355   0.02585   0.28677   0.00000  Uiso   1.00
C138   C     0.48480   0.30773   0.21415   0.00000  Uiso   1.00
C139   C     0.48867   0.02226   0.21270   0.00000  Uiso   1.00
C140   C     0.51062   0.31088   0.28772   0.00000  Uiso   1.00
C141   C     0.50062   0.16614   0.16375   0.00000  Uiso   1.00
C142   C     0.49825   0.16714   0.33623   0.00000  Uiso   1.00
C143   C     0.53155   0.18051   0.40593   0.00000  Uiso   1.00
C144   C     0.46562   0.15539   0.09444   0.00000  Uiso   1.00
C145   C     0.49586   0.16790   0.38394   0.00000  Uiso   1.00
C146   C     0.50228   0.16512   0.11606   0.00000  Uiso   1.00
C147   C     0.45990   0.15427   0.40700   0.00000  Uiso   1.00
C148   C     0.53922   0.17401   0.09259   0.00000  Uiso   1.00
C149   C     0.46092   0.15408   0.45434   0.00000  Uiso   1.00
C150   C     0.53779   0.17523   0.04538   0.00000  Uiso   1.00
C151   C     0.49809   0.16591   0.47652   0.00000  Uiso   1.00
C152   C     0.50015   0.16512   0.02341   0.00000  Uiso   1.00
C153   C     0.53331   0.17865   0.45190   0.00000  Uiso   1.00
C154   C     0.46444   0.15438   0.04823   0.00000  Uiso   1.00
C155   C     0.42618   0.14219   0.48026   0.00000  Uiso   1.00
C156   C     0.57262   0.18680   0.01946   0.00000  Uiso   1.00
H157   H     0.55855   0.19061   0.38674   0.00000  Uiso   1.00
H158   H     0.43801   0.14824   0.11393   0.00000  Uiso   1.00
H159   H     0.39722   0.13253   0.46545   0.00000  Uiso   1.00
H160   H     0.60210   0.19471   0.03404   0.00000  Uiso   1.00
H161   H     0.40050   0.13427   0.04586   0.00000  Uiso   1.00
H162   H     0.59735   0.19835   0.45419   0.00000  Uiso   1.00
N163   N     0.50000   0.28573   0.25000   0.00000  Uiso   1.00
N164   N     0.50000   0.04760   0.25000   0.00000  Uiso   1.00
O165   O     0.43892   0.20487   0.24999   0.00000  Uiso   1.00
O166   O     0.56108   0.12846   0.25000   0.00000  Uiso   1.00
O167   O     0.56108   0.20487   0.25000   0.00000  Uiso   1.00
O168   O     0.43892   0.12846   0.24999   0.00000  Uiso   1.00
O169   O     0.49999   0.20489   0.18392   0.00000  Uiso   1.00
O170   O     0.50001   0.12844   0.31607   0.00000  Uiso   1.00
O171   O     0.50001   0.20489   0.31607   0.00000  Uiso   1.00
O172   O     0.49999   0.12844   0.18392   0.00000  Uiso   1.00
Zn173  Zn    0.50000   0.21771   0.25000   0.00000  Uiso   1.00
Zn174  Zn    0.50000   0.11563   0.25000   0.00000  Uiso   1.00
C175   C     0.42100   0.14156   0.38123   0.00000  Uiso   1.00
C176   C     0.39049   0.18020   0.38187   0.00000  Uiso   1.00
H177   H     0.37770   0.18674   0.41608   0.00000  Uiso   1.00
H178   H     0.40617   0.21096   0.37058   0.00000  Uiso   1.00
H179   H     0.36468   0.17213   0.35888   0.00000  Uiso   1.00
H180   H     0.42770   0.13244   0.34563   0.00000  Uiso   1.00
H181   H     0.40648   0.11102   0.39482   0.00000  Uiso   1.00
C182   C     0.57926   0.18230   0.11773   0.00000  Uiso   1.00
C183   C     0.60777   0.14188   0.11448   0.00000  Uiso   1.00
H184   H     0.59394   0.11364   0.13272   0.00000  Uiso   1.00
H185   H     0.61365   0.13110   0.07907   0.00000  Uiso   1.00
H186   H     0.63765   0.15045   0.13028   0.00000  Uiso   1.00
H187   H     0.59499   0.21226   0.10467   0.00000  Uiso   1.00
H188   H     0.57396   0.19018   0.15383   0.00000  Uiso   1.00
O189   O     0.37524   0.08781   0.22229   0.00000  Uiso   1.00
C190   C     0.38154   0.08641   0.17509   0.00000  Uiso   1.00
H191   H     0.41390   0.07674   0.16821   0.00000  Uiso   1.00
H192   H     0.37707   0.11899   0.15831   0.00000  Uiso   1.00
C193   C     0.35350   0.05131   0.15343   0.00000  Uiso   1.00
H194   H     0.65415   0.06126   0.15753   0.00000  Uiso   1.00
H195   H     0.36078   0.04783   0.11699   0.00000  Uiso   1.00
H196   H     0.35813   0.01866   0.16930   0.00000  Uiso   1.00
O197   O     0.62528   0.24595   0.22530   0.00000  Uiso   1.00
C198   C     0.63881   0.25918   0.18215   0.00000  Uiso   1.00
H199   H     0.64450   0.23014   0.15875   0.00000  Uiso   1.00
H200   H     0.33435   0.27893   0.18460   0.00000  Uiso   1.00
C201   C     0.60665   0.28871   0.16167   0.00000  Uiso   1.00
H202   H     0.60604   0.32164   0.17954   0.00000  Uiso   1.00
H203   H     0.61443   0.29424   0.12583   0.00000  Uiso   1.00
H204   H     0.57581   0.27271   0.16402   0.00000  Uiso   1.00
O205   O     0.62598   0.08510   0.23741   0.00000  Uiso   1.00
C206   C     0.63136   0.06308   0.27824   0.00000  Uiso   1.00
H207   H     0.61221   0.07939   0.30498   0.00000  Uiso   1.00
H208   H     0.66386   0.06341   0.28969   0.00000  Uiso   1.00
C209   C     0.61832   0.01461   0.27178   0.00000  Uiso   1.00
H210   H     0.64087   0.33049   0.24964   0.00000  Uiso   1.00
H211   H     0.61643   0.33141   0.30467   0.00000  Uiso   1.00
H212   H     0.58824   0.01229   0.25496   0.00000  Uiso   1.00
O213   O     0.37545   0.24868   0.24312   0.00000  Uiso   1.00
C214   C     0.36980   0.27053   0.28528   0.00000  Uiso   1.00
H215   H     0.38507   0.25158   0.31177   0.00000  Uiso   1.00
H216   H     0.33670   0.27414   0.29445   0.00000  Uiso   1.00
C217   C     0.38920   0.31687   0.28371   0.00000  Uiso   1.00
H218   H     0.37701   0.00229   0.25525   0.00000  Uiso   1.00
H219   H     0.38294   0.00238   0.31567   0.00000  Uiso   1.00
H220   H     0.42278   0.31392   0.27858   0.00000  Uiso   1.00
O221   O     0.54010   0.05019   0.31463   0.00000  Uiso   1.00
C222   C     0.53386   0.04467   0.36104   0.00000  Uiso   1.00
H223   H     0.54261   0.01098   0.37149   0.00000  Uiso   1.00
H224   H     0.50165   0.05309   0.37099   0.00000  Uiso   1.00
C225   C     0.56322   0.07572   0.38648   0.00000  Uiso   1.00
H226   H     0.56568   0.10826   0.36985   0.00000  Uiso   1.00
H227   H     0.55233   0.08091   0.42172   0.00000  Uiso   1.00
H228   H     0.59452   0.06095   0.38671   0.00000  Uiso   1.00
O229   O     0.45532   0.28536   0.18831   0.00000  Uiso   1.00
C230   C     0.46484   0.28292   0.14184   0.00000  Uiso   1.00
H231   H     0.46185   0.24757   0.13043   0.00000  Uiso   1.00
H232   H     0.49671   0.29268   0.13299   0.00000  Uiso   1.00
C233   C     0.43296   0.30788   0.11516   0.00000  Uiso   1.00
H234   H     0.43352   0.01078   0.12331   0.00000  Uiso   1.00
H235   H     0.43943   0.30301   0.07866   0.00000  Uiso   1.00
H236   H     0.40170   0.29460   0.12262   0.00000  Uiso   1.00
O237   O     0.48620   0.04237   0.17179   0.00000  Uiso   1.00
C238   C     0.52606   0.04161   0.15162   0.00000  Uiso   1.00
H239   H     0.54214   0.00955   0.15595   0.00000  Uiso   1.00
H240   H     0.54592   0.06794   0.16702   0.00000  Uiso   1.00
C241   C     0.52312   0.04840   0.10126   0.00000  Uiso   1.00
H242   H     0.50249   0.07645   0.09438   0.00000  Uiso   1.00
H243   H     0.55413   0.05545   0.08696   0.00000  Uiso   1.00
H244   H     0.51068   0.01796   0.08410   0.00000  Uiso   1.00
O245   O     0.51381   0.28969   0.32802   0.00000  Uiso   1.00
C246   C     0.47499   0.29233   0.35063   0.00000  Uiso   1.00
H247   H     0.45406   0.26609   0.33693   0.00000  Uiso   1.00
H248   H     0.45939   0.32514   0.34706   0.00000  Uiso   1.00
C249   C     0.48007   0.28555   0.40083   0.00000  Uiso   1.00
H250   H     0.48646   0.31795   0.41850   0.00000  Uiso   1.00
H251   H     0.45140   0.27123   0.41534   0.00000  Uiso   1.00
H252   H     0.50600   0.26291   0.40699   0.00000  Uiso   1.00
C253   C     0.75349   0.16671   0.24786   0.00000  Uiso   1.00
C254   C     0.91332   0.16667   0.24755   0.00000  Uiso   1.00
C255   C     0.76120   0.14294   0.02670   0.00000  Uiso   1.00
C256   C     0.90350   0.18895   0.47329   0.00000  Uiso   1.00
C257   C     0.68832   0.12688   0.23466   0.00000  Uiso   1.00
C258   C     0.97904   0.20729   0.23658   0.00000  Uiso   1.00
C259   C     0.97934   0.12593   0.23986   0.00000  Uiso   1.00
C260   C     0.68807   0.20810   0.24289   0.00000  Uiso   1.00
C261   C     0.95767   0.16664   0.24182   0.00000  Uiso   1.00
C262   C     0.70946   0.16725   0.24239   0.00000  Uiso   1.00
C263   C     0.84688   0.02585   0.28677   0.00000  Uiso   1.00
C264   C     0.81814   0.30773   0.21415   0.00000  Uiso   1.00
C265   C     0.82201   0.02226   0.21270   0.00000  Uiso   1.00
C266   C     0.84395   0.31088   0.28772   0.00000  Uiso   1.00
C267   C     0.83395   0.16614   0.16375   0.00000  Uiso   1.00
C268   C     0.83158   0.16714   0.33623   0.00000  Uiso   1.00
C269   C     0.86489   0.18051   0.40593   0.00000  Uiso   1.00
C270   C     0.79895   0.15539   0.09444   0.00000  Uiso   1.00
C271   C     0.82920   0.16790   0.38394   0.00000  Uiso   1.00
C272   C     0.83561   0.16512   0.11606   0.00000  Uiso   1.00
C273   C     0.79324   0.15427   0.40700   0.00000  Uiso   1.00
C274   C     0.87255   0.17401   0.09259   0.00000  Uiso   1.00
C275   C     0.79425   0.15408   0.45434   0.00000  Uiso   1.00
C276   C     0.87113   0.17523   0.04538   0.00000  Uiso   1.00
C277   C     0.83142   0.16591   0.47652   0.00000  Uiso   1.00
C278   C     0.83348   0.16512   0.02341   0.00000  Uiso   1.00
C279   C     0.86664   0.17865   0.45190   0.00000  Uiso   1.00
C280   C     0.79777   0.15438   0.04823   0.00000  Uiso   1.00
C281   C     0.75952   0.14219   0.48026   0.00000  Uiso   1.00
C282   C     0.90595   0.18680   0.01946   0.00000  Uiso   1.00
H283   H     0.89189   0.19061   0.38674   0.00000  Uiso   1.00
H284   H     0.77135   0.14824   0.11393   0.00000  Uiso   1.00
H285   H     0.73056   0.13253   0.46545   0.00000  Uiso   1.00
H286   H     0.93543   0.19471   0.03404   0.00000  Uiso   1.00
H287   H     0.73384   0.13427   0.04586   0.00000  Uiso   1.00
H288   H     0.93068   0.19835   0.45419   0.00000  Uiso   1.00
N289   N     0.83333   0.28573   0.25000   0.00000  Uiso   1.00
N290   N     0.83333   0.04760   0.25000   0.00000  Uiso   1.00
O291   O     0.77226   0.20487   0.24999   0.00000  Uiso   1.00
O292   O     0.89441   0.12846   0.25000   0.00000  Uiso   1.00
O293   O     0.89441   0.20487   0.25000   0.00000  Uiso   1.00
O294   O     0.77226   0.12846   0.24999   0.00000  Uiso   1.00
O295   O     0.83333   0.20489   0.18392   0.00000  Uiso   1.00
O296   O     0.83334   0.12844   0.31607   0.00000  Uiso   1.00
O297   O     0.83334   0.20489   0.31607   0.00000  Uiso   1.00
O298   O     0.83333   0.12844   0.18392   0.00000  Uiso   1.00
Zn299  Zn    0.83333   0.21771   0.25000   0.00000  Uiso   1.00
Zn300  Zn    0.83333   0.11563   0.25000   0.00000  Uiso   1.00
C301   C     0.75433   0.14156   0.38123   0.00000  Uiso   1.00
C302   C     0.72383   0.18020   0.38187   0.00000  Uiso   1.00
H303   H     0.71103   0.18674   0.41608   0.00000  Uiso   1.00
H304   H     0.73950   0.21096   0.37058   0.00000  Uiso   1.00
H305   H     0.69801   0.17213   0.35888   0.00000  Uiso   1.00
H306   H     0.76104   0.13244   0.34563   0.00000  Uiso   1.00
H307   H     0.73981   0.11102   0.39482   0.00000  Uiso   1.00
C308   C     0.91259   0.18230   0.11773   0.00000  Uiso   1.00
C309   C     0.94110   0.14188   0.11448   0.00000  Uiso   1.00
H310   H     0.92727   0.11364   0.13272   0.00000  Uiso   1.00
H311   H     0.94699   0.13110   0.07907   0.00000  Uiso   1.00
H312   H     0.97099   0.15045   0.13028   0.00000  Uiso   1.00
H313   H     0.92832   0.21226   0.10467   0.00000  Uiso   1.00
H314   H     0.90729   0.19018   0.15383   0.00000  Uiso   1.00
O315   O     0.70857   0.08781   0.22229   0.00000  Uiso   1.00
C316   C     0.71487   0.08641   0.17509   0.00000  Uiso   1.00
H317   H     0.74723   0.07674   0.16821   0.00000  Uiso   1.00
H318   H     0.71040   0.11899   0.15831   0.00000  Uiso   1.00
C319   C     0.68683   0.05131   0.15343   0.00000  Uiso   1.00
H320   H     0.98748   0.06126   0.15753   0.00000  Uiso   1.00
H321   H     0.69412   0.04783   0.11699   0.00000  Uiso   1.00
H322   H     0.69146   0.01866   0.16930   0.00000  Uiso   1.00
O323   O     0.95861   0.24595   0.22530   0.00000  Uiso   1.00
C324   C     0.97214   0.25918   0.18215   0.00000  Uiso   1.00
H325   H     0.97784   0.23014   0.15875   0.00000  Uiso   1.00
H326   H     0.66769   0.27893   0.18460   0.00000  Uiso   1.00
C327   C     0.93998   0.28871   0.16167   0.00000  Uiso   1.00
H328   H     0.93937   0.32164   0.17954   0.00000  Uiso   1.00
H329   H     0.94776   0.29424   0.12583   0.00000  Uiso   1.00
H330   H     0.90914   0.27271   0.16402   0.00000  Uiso   1.00
O331   O     0.95932   0.08510   0.23741   0.00000  Uiso   1.00
C332   C     0.96469   0.06308   0.27824   0.00000  Uiso   1.00
H333   H     0.94555   0.07939   0.30498   0.00000  Uiso   1.00
H334   H     0.99720   0.06341   0.28969   0.00000  Uiso   1.00
C335   C     0.95165   0.01461   0.27178   0.00000  Uiso   1.00
H336   H     0.97420   0.33049   0.24964   0.00000  Uiso   1.00
H337   H     0.94976   0.33141   0.30467   0.00000  Uiso   1.00
H338   H     0.92157   0.01229   0.25496   0.00000  Uiso   1.00
O339   O     0.70878   0.24868   0.24312   0.00000  Uiso   1.00
C340   C     0.70314   0.27053   0.28528   0.00000  Uiso   1.00
H341   H     0.71840   0.25158   0.31177   0.00000  Uiso   1.00
H342   H     0.67004   0.27414   0.29445   0.00000  Uiso   1.00
C343   C     0.72254   0.31687   0.28371   0.00000  Uiso   1.00
H344   H     0.71035   0.00229   0.25525   0.00000  Uiso   1.00
H345   H     0.71628   0.00238   0.31567   0.00000  Uiso   1.00
H346   H     0.75611   0.31392   0.27858   0.00000  Uiso   1.00
O347   O     0.87343   0.05019   0.31463   0.00000  Uiso   1.00
C348   C     0.86719   0.04467   0.36104   0.00000  Uiso   1.00
H349   H     0.87594   0.01098   0.37149   0.00000  Uiso   1.00
H350   H     0.83498   0.05309   0.37099   0.00000  Uiso   1.00
C351   C     0.89655   0.07572   0.38648   0.00000  Uiso   1.00
H352   H     0.89901   0.10826   0.36985   0.00000  Uiso   1.00
H353   H     0.88566   0.08091   0.42172   0.00000  Uiso   1.00
H354   H     0.92785   0.06095   0.38671   0.00000  Uiso   1.00
O355   O     0.78866   0.28536   0.18831   0.00000  Uiso   1.00
C356   C     0.79817   0.28292   0.14184   0.00000  Uiso   1.00
H357   H     0.79518   0.24757   0.13043   0.00000  Uiso   1.00
H358   H     0.83005   0.29268   0.13299   0.00000  Uiso   1.00
C359   C     0.76630   0.30788   0.11516   0.00000  Uiso   1.00
H360   H     0.76685   0.01078   0.12331   0.00000  Uiso   1.00
H361   H     0.77277   0.30301   0.07866   0.00000  Uiso   1.00
H362   H     0.73503   0.29460   0.12262   0.00000  Uiso   1.00
O363   O     0.81954   0.04237   0.17179   0.00000  Uiso   1.00
C364   C     0.85939   0.04161   0.15162   0.00000  Uiso   1.00
H365   H     0.87547   0.00955   0.15595   0.00000  Uiso   1.00
H366   H     0.87925   0.06794   0.16702   0.00000  Uiso   1.00
C367   C     0.85646   0.04840   0.10126   0.00000  Uiso   1.00
H368   H     0.83582   0.07645   0.09438   0.00000  Uiso   1.00
H369   H     0.88746   0.05545   0.08696   0.00000  Uiso   1.00
H370   H     0.84402   0.01796   0.08410   0.00000  Uiso   1.00
O371   O     0.84714   0.28969   0.32802   0.00000  Uiso   1.00
C372   C     0.80833   0.29233   0.35063   0.00000  Uiso   1.00
H373   H     0.78739   0.26609   0.33693   0.00000  Uiso   1.00
H374   H     0.79272   0.32514   0.34706   0.00000  Uiso   1.00
C375   C     0.81341   0.28555   0.40083   0.00000  Uiso   1.00
H376   H     0.81979   0.31795   0.41850   0.00000  Uiso   1.00
H377   H     0.78474   0.27123   0.41534   0.00000  Uiso   1.00
H378   H     0.83934   0.26291   0.40699   0.00000  Uiso   1.00
C379   C     0.08682   0.50005   0.24786   0.00000  Uiso   1.00
C380   C     0.24666   0.50000   0.24755   0.00000  Uiso   1.00
C381   C     0.09454   0.47627   0.02670   0.00000  Uiso   1.00
C382   C     0.23683   0.52228   0.47329   0.00000  Uiso   1.00
C383   C     0.02166   0.46021   0.23466   0.00000  Uiso   1.00
C384   C     0.31237   0.54063   0.23658   0.00000  Uiso   1.00
C385   C     0.31267   0.45926   0.23986   0.00000  Uiso   1.00
C386   C     0.02140   0.54143   0.24289   0.00000  Uiso   1.00
C387   C     0.29100   0.49997   0.24182   0.00000  Uiso   1.00
C388   C     0.04280   0.50058   0.24239   0.00000  Uiso   1.00
C389   C     0.18022   0.35918   0.28677   0.00000  Uiso   1.00
C390   C     0.15147   0.64106   0.21415   0.00000  Uiso   1.00
C391   C     0.15534   0.35560   0.21270   0.00000  Uiso   1.00
C392   C     0.17728   0.64421   0.28772   0.00000  Uiso   1.00
C393   C     0.16729   0.49948   0.16375   0.00000  Uiso   1.00
C394   C     0.16492   0.50047   0.33623   0.00000  Uiso   1.00
C395   C     0.19822   0.51385   0.40593   0.00000  Uiso   1.00
C396   C     0.13229   0.48872   0.09444   0.00000  Uiso   1.00
C397   C     0.16253   0.50124   0.38394   0.00000  Uiso   1.00
C398   C     0.16894   0.49845   0.11606   0.00000  Uiso   1.00
C399   C     0.12657   0.48760   0.40700   0.00000  Uiso   1.00
C400   C     0.20589   0.50734   0.09259   0.00000  Uiso   1.00
C401   C     0.12759   0.48741   0.45434   0.00000  Uiso   1.00
C402   C     0.20446   0.50857   0.04538   0.00000  Uiso   1.00
C403   C     0.16476   0.49924   0.47652   0.00000  Uiso   1.00
C404   C     0.16681   0.49845   0.02341   0.00000  Uiso   1.00
C405   C     0.19998   0.51198   0.45190   0.00000  Uiso   1.00
C406   C     0.13111   0.48771   0.04823   0.00000  Uiso   1.00
C407   C     0.09285   0.47552   0.48026   0.00000  Uiso   1.00
C408   C     0.23928   0.52013   0.01946   0.00000  Uiso   1.00
H409   H     0.22522   0.52395   0.38674   0.00000  Uiso   1.00
H410   H     0.10468   0.48158   0.11393   0.00000  Uiso   1.00
H411   H     0.06389   0.46586   0.46545   0.00000  Uiso   1.00
H412   H     0.26876   0.52804   0.03404   0.00000  Uiso   1.00
H413   H     0.06717   0.46760   0.04586   0.00000  Uiso   1.00
H414   H     0.26401   0.53168   0.45419   0.00000  Uiso   1.00
N415   N     0.16667   0.61907   0.25000   0.00000  Uiso   1.00
N416   N     0.16667   0.38093   0.25000   0.00000  Uiso   1.00
O417   O     0.10559   0.53821   0.24999   0.00000  Uiso   1.00
O418   O     0.22774   0.46179   0.25000   0.00000  Uiso   1.00
O419   O     0.22774   0.53821   0.25000   0.00000  Uiso   1.00
O420   O     0.10559   0.46179   0.24999   0.00000  Uiso   1.00
O421   O     0.16666   0.53823   0.18392   0.00000  Uiso   1.00
O422   O     0.16667   0.46177   0.31607   0.00000  Uiso   1.00
O423   O     0.16667   0.53823   0.31607   0.00000  Uiso   1.00
O424   O     0.16666   0.46177   0.18392   0.00000  Uiso   1.00
Zn425  Zn    0.16667   0.55104   0.25000   0.00000  Uiso   1.00
Zn426  Zn    0.16667   0.44896   0.25000   0.00000  Uiso   1.00
C427   C     0.08766   0.47489   0.38123   0.00000  Uiso   1.00
C428   C     0.05716   0.51353   0.38187   0.00000  Uiso   1.00
H429   H     0.04436   0.52008   0.41608   0.00000  Uiso   1.00
H430   H     0.07284   0.54429   0.37058   0.00000  Uiso   1.00
H431   H     0.03135   0.50546   0.35888   0.00000  Uiso   1.00
H432   H     0.09437   0.46577   0.34563   0.00000  Uiso   1.00
H433   H     0.07315   0.44436   0.39482   0.00000  Uiso   1.00
C434   C     0.24592   0.51564   0.11773   0.00000  Uiso   1.00
C435   C     0.27443   0.47521   0.11448   0.00000  Uiso   1.00
H436   H     0.26061   0.44697   0.13272   0.00000  Uiso   1.00
H437   H     0.28032   0.46443   0.07907   0.00000  Uiso   1.00
H438   H     0.30432   0.48379   0.13028   0.00000  Uiso   1.00
H439   H     0.26165   0.54560   0.10467   0.00000  Uiso   1.00
H440   H     0.24063   0.52351   0.15383   0.00000  Uiso   1.00
O441   O     0.04191   0.42114   0.22229   0.00000  Uiso   1.00
C442   C     0.04821   0.41975   0.17509   0.00000  Uiso   1.00
H443   H     0.08056   0.41008   0.16821   0.00000  Uiso   1.00
H444   H     0.04373   0.45232   0.15831   0.00000  Uiso   1.00
C445   C     0.02016   0.38464   0.15343   0.00000  Uiso   1.00
H446   H     0.32081   0.39459   0.15753   0.00000  Uiso   1.00
H447   H     0.02745   0.38116   0.11699   0.00000  Uiso   1.00
H448   H     0.02479   0.35199   0.16930   0.00000  Uiso   1.00
O449   O     0.29195   0.57928   0.22530   0.00000  Uiso   1.00
C450   C     0.30547   0.59252   0.18215   0.00000  Uiso   1.00
H451   H     0.31117   0.56348   0.15875   0.00000  Uiso   1.00
H452   H     0.00102   0.61227   0.18460   0.00000  Uiso   1.00
C453   C     0.27332   0.62204   0.16167   0.00000  Uiso   1.00
H454   H     0.27270   0.65498   0.17954   0.00000  Uiso   1.00
H455   H     0.28110   0.62758   0.12583   0.00000  Uiso   1.00
H456   H     0.24248   0.60604   0.16402   0.00000  Uiso   1.00
O457   O     0.29265   0.41843   0.23741   0.00000  Uiso   1.00
C458   C     0.29802   0.39641   0.27824   0.00000  Uiso   1.00
H459   H     0.27888   0.41273   0.30498   0.00000  Uiso   1.00
H460   H     0.33053   0.39675   0.28969   0.00000  Uiso   1.00
C461   C     0.28499   0.34794   0.27178   0.00000  Uiso   1.00
H462   H     0.30754   0.66382   0.24964   0.00000  Uiso   1.00
H463   H     0.28310   0.66475   0.30467   0.00000  Uiso   1.00
H464   H     0.25490   0.34563   0.25496   0.00000  Uiso   1.00
O465   O     0.04211   0.58202   0.24312   0.00000  Uiso   1.00
C466   C     0.03647   0.60387   0.28528   0.00000  Uiso   1.00
H467   H     0.05173   0.58491   0.31177   0.00000  Uiso   1.00
H468   H     0.00337   0.60747   0.29445   0.00000  Uiso   1.00
C469   C     0.05587   0.65020   0.28371   0.00000  Uiso   1.00
H470   H     0.04368   0.33562   0.25525   0.00000  Uiso   1.00
H471   H     0.04961   0.33571   0.31567   0.00000  Uiso   1.00
H472   H     0.08944   0.64726   0.27858   0.00000  Uiso   1.00
O473   O     0.20676   0.38352   0.31463   0.00000  Uiso   1.00
C474   C     0.20052   0.37801   0.36104   0.00000  Uiso   1.00
H475   H     0.20927   0.34432   0.37149   0.00000  Uiso   1.00
H476   H     0.16831   0.38643   0.37099   0.00000  Uiso   1.00
C477   C     0.22989   0.40906   0.38648   0.00000  Uiso   1.00
H478   H     0.23234   0.44160   0.36985   0.00000  Uiso   1.00
H479   H     0.21899   0.41424   0.42172   0.00000  Uiso   1.00
H480   H     0.26118   0.39428   0.38671   0.00000  Uiso   1.00
O481   O     0.12199   0.61869   0.18831   0.00000  Uiso   1.00
C482   C     0.13150   0.61625   0.14184   0.00000  Uiso   1.00
H483   H     0.12852   0.58091   0.13043   0.00000  Uiso   1.00
H484   H     0.16338   0.62601   0.13299   0.00000  Uiso   1.00
C485   C     0.09963   0.64122   0.11516   0.00000  Uiso   1.00
H486   H     0.10019   0.34411   0.12331   0.00000  Uiso   1.00
H487   H     0.10610   0.63634   0.07866   0.00000  Uiso   1.00
H488   H     0.06837   0.62793   0.12262   0.00000  Uiso   1.00
O489   O     0.15287   0.37570   0.17179   0.00000  Uiso   1.00
C490   C     0.19272   0.37494   0.15162   0.00000  Uiso   1.00
H491   H     0.20881   0.34288   0.15595   0.00000  Uiso   1.00
H492   H     0.21258   0.40127   0.16702   0.00000  Uiso   1.00
C493   C     0.18979   0.38173   0.10126   0.00000  Uiso   1.00
H494   H     0.16915   0.40978   0.09438   0.00000  Uiso   1.00
H495   H     0.22079   0.38878   0.08696   0.00000  Uiso   1.00
H496   H     0.17735   0.35129   0.08410   0.00000  Uiso   1.00
O497   O     0.18048   0.62302   0.32802   0.00000  Uiso   1.00
C498   C     0.14166   0.62567   0.35063   0.00000  Uiso   1.00
H499   H     0.12073   0.59942   0.33693   0.00000  Uiso   1.00
H500   H     0.12606   0.65847   0.34706   0.00000  Uiso   1.00
C501   C     0.14674   0.61888   0.40083   0.00000  Uiso   1.00
H502   H     0.15313   0.65128   0.41850   0.00000  Uiso   1.00
H503   H     0.11807   0.60456   0.41534   0.00000  Uiso   1.00
H504   H     0.17267   0.59625   0.40699   0.00000  Uiso   1.00
C505   C     0.42015   0.50005   0.24786   0.00000  Uiso   1.00
C506   C     0.57999   0.50000   0.24755   0.00000  Uiso   1.00
C507   C     0.42787   0.47627   0.02670   0.00000  Uiso   1.00
C508   C     0.57016   0.52228   0.47329   0.00000  Uiso   1.00
C509   C     0.35499   0.46021   0.23466   0.00000  Uiso   1.00
C510   C     0.64570   0.54063   0.23658   0.00000  Uiso   1.00
C511   C     0.64601   0.45926   0.23986   0.00000  Uiso   1.00
C512   C     0.35473   0.54143   0.24289   0.00000  Uiso   1.00
C513   C     0.62434   0.49997   0.24182   0.00000  Uiso   1.00
C514   C     0.37613   0.50058   0.24239   0.00000  Uiso   1.00
C515   C     0.51355   0.35918   0.28677   0.00000  Uiso   1.00
C516   C     0.48480   0.64106   0.21415   0.00000  Uiso   1.00
C517   C     0.48867   0.35560   0.21270   0.00000  Uiso   1.00
C518   C     0.51062   0.64421   0.28772   0.00000  Uiso   1.00
C519   C     0.50062   0.49948   0.16375   0.00000  Uiso   1.00
C520   C     0.49825   0.50047   0.33623   0.00000  Uiso   1.00
C521   C     0.53155   0.51385   0.40593   0.00000  Uiso   1.00
C522   C     0.46562   0.48872   0.09444   0.00000  Uiso   1.00
C523   C     0.49586   0.50124   0.38394   0.00000  Uiso   1.00
C524   C     0.50228   0.49845   0.11606   0.00000  Uiso   1.00
C525   C     0.45990   0.48760   0.40700   0.00000  Uiso   1.00
C526   C     0.53922   0.50734   0.09259   0.00000  Uiso   1.00
C527   C     0.46092   0.48741   0.45434   0.00000  Uiso   1.00
C528   C     0.53779   0.50857   0.04538   0.00000  Uiso   1.00
C529   C     0.49809   0.49924   0.47652   0.00000  Uiso   1.00
C530   C     0.50015   0.49845   0.02341   0.00000  Uiso   1.00
C531   C     0.53331   0.51198   0.45190   0.00000  Uiso   1.00
C532   C     0.46444   0.48771   0.04823   0.00000  Uiso   1.00
C533   C     0.42618   0.47552   0.48026   0.00000  Uiso   1.00
C534   C     0.57262   0.52013   0.01946   0.00000  Uiso   1.00
H535   H     0.55855   0.52395   0.38674   0.00000  Uiso   1.00
H536   H     0.43801   0.48158   0.11393   0.00000  Uiso   1.00
H537   H     0.39722   0.46586   0.46545   0.00000  Uiso   1.00
H538   H     0.60210   0.52804   0.03404   0.00000  Uiso   1.00
H539   H     0.40050   0.46760   0.04586   0.00000  Uiso   1.00
H540   H     0.59735   0.53168   0.45419   0.00000  Uiso   1.00
N541   N     0.50000   0.61907   0.25000   0.00000  Uiso   1.00
N542   N     0.50000   0.38093   0.25000   0.00000  Uiso   1.00
O543   O     0.43892   0.53821   0.24999   0.00000  Uiso   1.00
O544   O     0.56108   0.46179   0.25000   0.00000  Uiso   1.00
O545   O     0.56108   0.53821   0.25000   0.00000  Uiso   1.00
O546   O     0.43892   0.46179   0.24999   0.00000  Uiso   1.00
O547   O     0.49999   0.53823   0.18392   0.00000  Uiso   1.00
O548   O     0.50001   0.46177   0.31607   0.00000  Uiso   1.00
O549   O     0.50001   0.53823   0.31607   0.00000  Uiso   1.00
O550   O     0.49999   0.46177   0.18392   0.00000  Uiso   1.00
Zn551  Zn    0.50000   0.55104   0.25000   0.00000  Uiso   1.00
Zn552  Zn    0.50000   0.44896   0.25000   0.00000  Uiso   1.00
C553   C     0.42100   0.47489   0.38123   0.00000  Uiso   1.00
C554   C     0.39049   0.51353   0.38187   0.00000  Uiso   1.00
H555   H     0.37770   0.52008   0.41608   0.00000  Uiso   1.00
H556   H     0.40617   0.54429   0.37058   0.00000  Uiso   1.00
H557   H     0.36468   0.50546   0.35888   0.00000  Uiso   1.00
H558   H     0.42770   0.46577   0.34563   0.00000  Uiso   1.00
H559   H     0.40648   0.44436   0.39482   0.00000  Uiso   1.00
C560   C     0.57926   0.51564   0.11773   0.00000  Uiso   1.00
C561   C     0.60777   0.47521   0.11448   0.00000  Uiso   1.00
H562   H     0.59394   0.44697   0.13272   0.00000  Uiso   1.00
H563   H     0.61365   0.46443   0.07907   0.00000  Uiso   1.00
H564   H     0.63765   0.48379   0.13028   0.00000  Uiso   1.00
H565   H     0.59499   0.54560   0.10467   0.00000  Uiso   1.00
H566   H     0.57396   0.52351   0.15383   0.00000  Uiso   1.00
O567   O     0.37524   0.42114   0.22229   0.00000  Uiso   1.00
C568   C     0.38154   0.41975   0.17509   0.00000  Uiso   1.00
H569   H     0.41390   0.41008   0.16821   0.00000  Uiso   1.00
H570   H     0.37707   0.45232   0.15831   0.00000  Uiso   1.00
C571   C     0.35350   0.38464   0.15343   0.00000  Uiso   1.00
H572   H     0.65415   0.39459   0.15753   0.00000  Uiso   1.00
H573   H     0.36078   0.38116   0.11699   0.00000  Uiso   1.00
H574   H     0.35813   0.35199   0.16930   0.00000  Uiso   1.00
O575   O     0.62528   0.57928   0.22530   0.00000  Uiso   1.00
C576   C     0.63881   0.59252   0.18215   0.00000  Uiso   1.00
H577   H     0.64450   0.56348   0.15875   0.00000  Uiso   1.00
H578   H     0.33435   0.61227   0.18460   0.00000  Uiso   1.00
C579   C     0.60665   0.62204   0.16167   0.00000  Uiso   1.00
H580   H     0.60604   0.65498   0.17954   0.00000  Uiso   1.00
H581   H     0.61443   0.62758   0.12583   0.00000  Uiso   1.00
H582   H     0.57581   0.60604   0.16402   0.00000  Uiso   1.00
O583   O     0.62598   0.41843   0.23741   0.00000  Uiso   1.00
C584   C     0.63136   0.39641   0.27824   0.00000  Uiso   1.00
H585   H     0.61221   0.41273   0.30498   0.00000  Uiso   1.00
H586   H     0.66386   0.39675   0.28969   0.00000  Uiso   1.00
C587   C     0.61832   0.34794   0.27178   0.00000  Uiso   1.00
H588   H     0.64087   0.66382   0.24964   0.00000  Uiso   1.00
H589   H     0.61643   0.66475   0.30467   0.00000  Uiso   1.00
H590   H     0.58824   0.34563   0.25496   0.00000  Uiso   1.00
O591   O     0.37545   0.58202   0.24312   0.00000  Uiso   1.00
C592   C     0.36980   0.60387   0.28528   0.00000  Uiso   1.00
H593   H     0.38507   0.58491   0.31177   0.00000  Uiso   1.00
H594   H     0.33670   0.60747   0.29445   0.00000  Uiso   1.00
C595   C     0.38920   0.65020   0.28371   0.00000  Uiso   1.00
H596   H     0.37701   0.33562   0.25525   0.00000  Uiso   1.00
H597   H     0.38294   0.33571   0.31567   0.00000  Uiso   1.00
H598   H     0.42278   0.64726   0.27858   0.00000  Uiso   1.00
O599   O     0.54010   0.38352   0.31463   0.00000  Uiso   1.00
C600   C     0.53386   0.37801   0.36104   0.00000  Uiso   1.00
H601   H     0.54261   0.34432   0.37149   0.00000  Uiso   1.00
H602   H     0.50165   0.38643   0.37099   0.00000  Uiso   1.00
C603   C     0.56322   0.40906   0.38648   0.00000  Uiso   1.00
H604   H     0.56568   0.44160   0.36985   0.00000  Uiso   1.00
H605   H     0.55233   0.41424   0.42172   0.00000  Uiso   1.00
H606   H     0.59452   0.39428   0.38671   0.00000  Uiso   1.00
O607   O     0.45532   0.61869   0.18831   0.00000  Uiso   1.00
C608   C     0.46484   0.61625   0.14184   0.00000  Uiso   1.00
H609   H     0.46185   0.58091   0.13043   0.00000  Uiso   1.00
H610   H     0.49671   0.62601   0.13299   0.00000  Uiso   1.00
C611   C     0.43296   0.64122   0.11516   0.00000  Uiso   1.00
H612   H     0.43352   0.34411   0.12331   0.00000  Uiso   1.00
H613   H     0.43943   0.63634   0.07866   0.00000  Uiso   1.00
H614   H     0.40170   0.62793   0.12262   0.00000  Uiso   1.00
O615   O     0.48620   0.37570   0.17179   0.00000  Uiso   1.00
C616   C     0.52606   0.37494   0.15162   0.00000  Uiso   1.00
H617   H     0.54214   0.34288   0.15595   0.00000  Uiso   1.00
H618   H     0.54592   0.40127   0.16702   0.00000  Uiso   1.00
C619   C     0.52312   0.38173   0.10126   0.00000  Uiso   1.00
H620   H     0.50249   0.40978   0.09438   0.00000  Uiso   1.00
H621   H     0.55413   0.38878   0.08696   0.00000  Uiso   1.00
H622   H     0.51068   0.35129   0.08410   0.00000  Uiso   1.00
O623   O     0.51381   0.62302   0.32802   0.00000  Uiso   1.00
C624   C     0.47499   0.62567   0.35063   0.00000  Uiso   1.00
H625   H     0.45406   0.59942   0.33693   0.00000  Uiso   1.00
H626   H     0.45939   0.65847   0.34706   0.00000  Uiso   1.00
C627   C     0.48007   0.61888   0.40083   0.00000  Uiso   1.00
H628   H     0.48646   0.65128   0.41850   0.00000  Uiso   1.00
H629   H     0.45140   0.60456   0.41534   0.00000  Uiso   1.00
H630   H     0.50600   0.59625   0.40699   0.00000  Uiso   1.00
C631   C     0.75349   0.50005   0.24786   0.00000  Uiso   1.00
C632   C     0.91332   0.50000   0.24755   0.00000  Uiso   1.00
C633   C     0.76120   0.47627   0.02670   0.00000  Uiso   1.00
C634   C     0.90350   0.52228   0.47329   0.00000  Uiso   1.00
C635   C     0.68832   0.46021   0.23466   0.00000  Uiso   1.00
C636   C     0.97904   0.54063   0.23658   0.00000  Uiso   1.00
C637   C     0.97934   0.45926   0.23986   0.00000  Uiso   1.00
C638   C     0.68807   0.54143   0.24289   0.00000  Uiso   1.00
C639   C     0.95767   0.49997   0.24182   0.00000  Uiso   1.00
C640   C     0.70946   0.50058   0.24239   0.00000  Uiso   1.00
C641   C     0.84688   0.35918   0.28677   0.00000  Uiso   1.00
C642   C     0.81814   0.64106   0.21415   0.00000  Uiso   1.00
C643   C     0.82201   0.35560   0.21270   0.00000  Uiso   1.00
C644   C     0.84395   0.64421   0.28772   0.00000  Uiso   1.00
C645   C     0.83395   0.49948   0.16375   0.00000  Uiso   1.00
C646   C     0.83158   0.50047   0.33623   0.00000  Uiso   1.00
C647   C     0.86489   0.51385   0.40593   0.00000  Uiso   1.00
C648   C     0.79895   0.48872   0.09444   0.00000  Uiso   1.00
C649   C     0.82920   0.50124   0.38394   0.00000  Uiso   1.00
C650   C     0.83561   0.49845   0.11606   0.00000  Uiso   1.00
C651   C     0.79324   0.48760   0.40700   0.00000  Uiso   1.00
C652   C     0.87255   0.50734   0.09259   0.00000  Uiso   1.00
C653   C     0.79425   0.48741   0.45434   0.00000  Uiso   1.00
C654   C     0.87113   0.50857   0.04538   0.00000  Uiso   1.00
C655   C     0.83142   0.49924   0.47652   0.00000  Uiso   1.00
C656   C     0.83348   0.49845   0.02341   0.00000  Uiso   1.00
C657   C     0.86664   0.51198   0.45190   0.00000  Uiso   1.00
C658   C     0.79777   0.48771   0.04823   0.00000  Uiso   1.00
C659   C     0.75952   0.47552   0.48026   0.00000  Uiso   1.00
C660   C     0.90595   0.52013   0.01946   0.00000  Uiso   1.00
H661   H     0.89189   0.52395   0.38674   0.00000  Uiso   1.00
H662   H     0.77135   0.48158   0.11393   0.00000  Uiso   1.00
H663   H     0.73056   0.46586   0.46545   0.00000  Uiso   1.00
H664   H     0.93543   0.52804   0.03404   0.00000  Uiso   1.00
H665   H     0.73384   0.46760   0.04586   0.00000  Uiso   1.00
H666   H     0.93068   0.53168   0.45419   0.00000  Uiso   1.00
N667   N     0.83333   0.61907   0.25000   0.00000  Uiso   1.00
N668   N     0.83333   0.38093   0.25000   0.00000  Uiso   1.00
O669   O     0.77226   0.53821   0.24999   0.00000  Uiso   1.00
O670   O     0.89441   0.46179   0.25000   0.00000  Uiso   1.00
O671   O     0.89441   0.53821   0.25000   0.00000  Uiso   1.00
O672   O     0.77226   0.46179   0.24999   0.00000  Uiso   1.00
O673   O     0.83333   0.53823   0.18392   0.00000  Uiso   1.00
O674   O     0.83334   0.46177   0.31607   0.00000  Uiso   1.00
O675   O     0.83334   0.53823   0.31607   0.00000  Uiso   1.00
O676   O     0.83333   0.46177   0.18392   0.00000  Uiso   1.00
Zn677  Zn    0.83333   0.55104   0.25000   0.00000  Uiso   1.00
Zn678  Zn    0.83333   0.44896   0.25000   0.00000  Uiso   1.00
C679   C     0.75433   0.47489   0.38123   0.00000  Uiso   1.00
C680   C     0.72383   0.51353   0.38187   0.00000  Uiso   1.00
H681   H     0.71103   0.52008   0.41608   0.00000  Uiso   1.00
H682   H     0.73950   0.54429   0.37058   0.00000  Uiso   1.00
H683   H     0.69801   0.50546   0.35888   0.00000  Uiso   1.00
H684   H     0.76104   0.46577   0.34563   0.00000  Uiso   1.00
H685   H     0.73981   0.44436   0.39482   0.00000  Uiso   1.00
C686   C     0.91259   0.51564   0.11773   0.00000  Uiso   1.00
C687   C     0.94110   0.47521   0.11448   0.00000  Uiso   1.00
H688   H     0.92727   0.44697   0.13272   0.00000  Uiso   1.00
H689   H     0.94699   0.46443   0.07907   0.00000  Uiso   1.00
H690   H     0.97099   0.48379   0.13028   0.00000  Uiso   1.00
H691   H     0.92832   0.54560   0.10467   0.00000  Uiso   1.00
H692   H     0.90729   0.52351   0.15383   0.00000  Uiso   1.00
O693   O     0.70857   0.42114   0.22229   0.00000  Uiso   1.00
C694   C     0.71487   0.41975   0.17509   0.00000  Uiso   1.00
H695   H     0.74723   0.41008   0.16821   0.00000  Uiso   1.00
H696   H     0.71040   0.45232   0.15831   0.00000  Uiso   1.00
C697   C     0.68683   0.38464   0.15343   0.00000  Uiso   1.00
H698   H     0.98748   0.39459   0.15753   0.00000  Uiso   1.00
H699   H     0.69412   0.38116   0.11699   0.00000  Uiso   1.00
H700   H     0.69146   0.35199   0.16930   0.00000  Uiso   1.00
O701   O     0.95861   0.57928   0.22530   0.00000  Uiso   1.00
C702   C     0.97214   0.59252   0.18215   0.00000  Uiso   1.00
H703   H     0.97784   0.56348   0.15875   0.00000  Uiso   1.00
H704   H     0.66769   0.61227   0.18460   0.00000  Uiso   1.00
C705   C     0.93998   0.62204   0.16167   0.00000  Uiso   1.00
H706   H     0.93937   0.65498   0.17954   0.00000  Uiso   1.00
H707   H     0.94776   0.62758   0.12583   0.00000  Uiso   1.00
H708   H     0.90914   0.60604   0.16402   0.00000  Uiso   1.00
O709   O     0.95932   0.41843   0.23741   0.00000  Uiso   1.00
C710   C     0.96469   0.39641   0.27824   0.00000  Uiso   1.00
H711   H     0.94555   0.41273   0.30498   0.00000  Uiso   1.00
H712   H     0.99720   0.39675   0.28969   0.00000  Uiso   1.00
C713   C     0.95165   0.34794   0.27178   0.00000  Uiso   1.00
H714   H     0.97420   0.66382   0.24964   0.00000  Uiso   1.00
H715   H     0.94976   0.66475   0.30467   0.00000  Uiso   1.00
H716   H     0.92157   0.34563   0.25496   0.00000  Uiso   1.00
O717   O     0.70878   0.58202   0.24312   0.00000  Uiso   1.00
C718   C     0.70314   0.60387   0.28528   0.00000  Uiso   1.00
H719   H     0.71840   0.58491   0.31177   0.00000  Uiso   1.00
H720   H     0.67004   0.60747   0.29445   0.00000  Uiso   1.00
C721   C     0.72254   0.65020   0.28371   0.00000  Uiso   1.00
H722   H     0.71035   0.33562   0.25525   0.00000  Uiso   1.00
H723   H     0.71628   0.33571   0.31567   0.00000  Uiso   1.00
H724   H     0.75611   0.64726   0.27858   0.00000  Uiso   1.00
O725   O     0.87343   0.38352   0.31463   0.00000  Uiso   1.00
C726   C     0.86719   0.37801   0.36104   0.00000  Uiso   1.00
H727   H     0.87594   0.34432   0.37149   0.00000  Uiso   1.00
H728   H     0.83498   0.38643   0.37099   0.00000  Uiso   1.00
C729   C     0.89655   0.40906   0.38648   0.00000  Uiso   1.00
H730   H     0.89901   0.44160   0.36985   0.00000  Uiso   1.00
H731   H     0.88566   0.41424   0.42172   0.00000  Uiso   1.00
H732   H     0.92785   0.39428   0.38671   0.00000  Uiso   1.00
O733   O     0.78866   0.61869   0.18831   0.00000  Uiso   1.00
C734   C     0.79817   0.61625   0.14184   0.00000  Uiso   1.00
H735   H     0.79518   0.58091   0.13043   0.00000  Uiso   1.00
H736   H     0.83005   0.62601   0.13299   0.00000  Uiso   1.00
C737   C     0.76630   0.64122   0.11516   0.00000  Uiso   1.00
H738   H     0.76685   0.34411   0.12331   0.00000  Uiso   1.00
H739   H     0.77277   0.63634   0.07866   0.00000  Uiso   1.00
H740   H     0.73503   0.62793   0.12262   0.00000  Uiso   1.00
O741   O     0.81954   0.37570   0.17179   0.00000  Uiso   1.00
C742   C     0.85939   0.37494   0.15162   0.00000  Uiso   1.00
H743   H     0.87547   0.34288   0.15595   0.00000  Uiso   1.00
H744   H     0.87925   0.40127   0.16702   0.00000  Uiso   1.00
C745   C     0.85646   0.38173   0.10126   0.00000  Uiso   1.00
H746   H     0.83582   0.40978   0.09438   0.00000  Uiso   1.00
H747   H     0.88746   0.38878   0.08696   0.00000  Uiso   1.00
H748   H     0.84402   0.35129   0.08410   0.00000  Uiso   1.00
O749   O     0.84714   0.62302   0.32802   0.00000  Uiso   1.00
C750   C     0.80833   0.62567   0.35063   0.00000  Uiso   1.00
H751   H     0.78739   0.59942   0.33693   0.00000  Uiso   1.00
H752   H     0.79272   0.65847   0.34706   0.00000  Uiso   1.00
C753   C     0.81341   0.61888   0.40083   0.00000  Uiso   1.00
H754   H     0.81979   0.65128   0.41850   0.00000  Uiso   1.00
H755   H     0.78474   0.60456   0.41534   0.00000  Uiso   1.00
H756   H     0.83934   0.59625   0.40699   0.00000  Uiso   1.00
C757   C     0.08682   0.83338   0.24786   0.00000  Uiso   1.00
C758   C     0.24666   0.83333   0.24755   0.00000  Uiso   1.00
C759   C     0.09454   0.80960   0.02670   0.00000  Uiso   1.00
C760   C     0.23683   0.85562   0.47329   0.00000  Uiso   1.00
C761   C     0.02166   0.79355   0.23466   0.00000  Uiso   1.00
C762   C     0.31237   0.87396   0.23658   0.00000  Uiso   1.00
C763   C     0.31267   0.79259   0.23986   0.00000  Uiso   1.00
C764   C     0.02140   0.87477   0.24289   0.00000  Uiso   1.00
C765   C     0.29100   0.83331   0.24182   0.00000  Uiso   1.00
C766   C     0.04280   0.83392   0.24239   0.00000  Uiso   1.00
C767   C     0.18022   0.69251   0.28677   0.00000  Uiso   1.00
C768   C     0.15147   0.97440   0.21415   0.00000  Uiso   1.00
C769   C     0.15534   0.68893   0.21270   0.00000  Uiso   1.00
C770   C     0.17728   0.97755   0.28772   0.00000  Uiso   1.00
C771   C     0.16729   0.83281   0.16375   0.00000  Uiso   1.00
C772   C     0.16492   0.83380   0.33623   0.00000  Uiso   1.00
C773   C     0.19822   0.84718   0.40593   0.00000  Uiso   1.00
C774   C     0.13229   0.82206   0.09444   0.00000  Uiso   1.00
C775   C     0.16253   0.83457   0.38394   0.00000  Uiso   1.00
C776   C     0.16894   0.83178   0.11606   0.00000  Uiso   1.00
C777   C     0.12657   0.82093   0.40700   0.00000  Uiso   1.00
C778   C     0.20589   0.84068   0.09259   0.00000  Uiso   1.00
C779   C     0.12759   0.82074   0.45434   0.00000  Uiso   1.00
C780   C     0.20446   0.84190   0.04538   0.00000  Uiso   1.00
C781   C     0.16476   0.83257   0.47652   0.00000  Uiso   1.00
C782   C     0.16681   0.83178   0.02341   0.00000  Uiso   1.00
C783   C     0.19998   0.84532   0.45190   0.00000  Uiso   1.00
C784   C     0.13111   0.82105   0.04823   0.00000  Uiso   1.00
C785   C     0.09285   0.80885   0.48026   0.00000  Uiso   1.00
C786   C     0.23928   0.85347   0.01946   0.00000  Uiso   1.00
H787   H     0.22522   0.85728   0.38674   0.00000  Uiso   1.00
H788   H     0.10468   0.81491   0.11393   0.00000  Uiso   1.00
H789   H     0.06389   0.79919   0.46545   0.00000  Uiso   1.00
H790   H     0.26876   0.86137   0.03404   0.00000  Uiso   1.00
H791   H     0.06717   0.80093   0.04586   0.00000  Uiso   1.00
H792   H     0.26401   0.86502   0.45419   0.00000  Uiso   1.00
N793   N     0.16667   0.95240   0.25000   0.00000  Uiso   1.00
N794   N     0.16667   0.71427   0.25000   0.00000  Uiso   1.00
O795   O     0.10559   0.87154   0.24999   0.00000  Uiso   1.00
O796   O     0.22774   0.79513   0.25000   0.00000  Uiso   1.00
O797   O     0.22774   0.87154   0.25000   0.00000  Uiso   1.00
O798   O     0.10559   0.79513   0.24999   0.00000  Uiso   1.00
O799   O     0.16666   0.87156   0.18392   0.00000  Uiso   1.00
O800   O     0.16667   0.79511   0.31607   0.00000  Uiso   1.00
O801   O     0.16667   0.87156   0.31607   0.00000  Uiso   1.00
O802   O     0.16666   0.79511   0.18392   0.00000  Uiso   1.00
Zn803  Zn    0.16667   0.88437   0.25000   0.00000  Uiso   1.00
Zn804  Zn    0.16667   0.78229   0.25000   0.00000  Uiso   1.00
C805   C     0.08766   0.80822   0.38123   0.00000  Uiso   1.00
C806   C     0.05716   0.84687   0.38187   0.00000  Uiso   1.00
H807   H     0.04436   0.85341   0.41608   0.00000  Uiso   1.00
H808   H     0.07284   0.87763   0.37058   0.00000  Uiso   1.00
H809   H     0.03135   0.83879   0.35888   0.00000  Uiso   1.00
H810   H     0.09437   0.79911   0.34563   0.00000  Uiso   1.00
H811   H     0.07315   0.77769   0.39482   0.00000  Uiso   1.00
C812   C     0.24592   0.84897   0.11773   0.00000  Uiso   1.00
C813   C     0.27443   0.80854   0.11448   0.00000  Uiso   1.00
H814   H     0.26061   0.78031   0.13272   0.00000  Uiso   1.00
H815   H     0.28032   0.79777   0.07907   0.00000  Uiso   1.00
H816   H     0.30432   0.81712   0.13028   0.00000  Uiso   1.00
H817   H     0.26165   0.87893   0.10467   0.00000  Uiso   1.00
H818   H     0.24063   0.85685   0.15383   0.00000  Uiso   1.00
O819   O     0.04191   0.75448   0.22229   0.00000  Uiso   1.00
C820   C     0.04821   0.75308   0.17509   0.00000  Uiso   1.00
H821   H     0.08056   0.74341   0.16821   0.00000  Uiso   1.00
H822   H     0.04373   0.78565   0.15831   0.00000  Uiso   1.00
C823   C     0.02016   0.71798   0.15343   0.00000  Uiso   1.00
H824   H     0.32081   0.72792   0.15753   0.00000  Uiso   1.00
H825   H     0.02745   0.71449   0.11699   0.00000  Uiso   1.00
H826   H     0.02479   0.68532   0.16930   0.00000  Uiso   1.00
O827   O     0.29195   0.91262   0.22530   0.00000  Uiso   1.00
C828   C     0.30547   0.92585   0.18215   0.00000  Uiso   1.00
H829   H     0.31117   0.89681   0.15875   0.00000  Uiso   1.00
H830   H     0.00102   0.94560   0.18460   0.00000  Uiso   1.00
C831   C     0.27332   0.95537   0.16167   0.00000  Uiso   1.00
H832   H     0.27270   0.98831   0.17954   0.00000  Uiso   1.00
H833   H     0.28110   0.96091   0.12583   0.00000  Uiso   1.00
H834   H     0.24248   0.93937   0.16402   0.00000  Uiso   1.00
O835   O     0.29265   0.75177   0.23741   0.00000  Uiso   1.00
C836   C     0.29802   0.72975   0.27824   0.00000  Uiso   1.00
H837   H     0.27888   0.74606   0.30498   0.00000  Uiso   1.00
H838   H     0.33053   0.73008   0.28969   0.00000  Uiso   1.00
C839   C     0.28499   0.68128   0.27178   0.00000  Uiso   1.00
H840   H     0.30754   0.99716   0.24964   0.00000  Uiso   1.00
H841   H     0.28310   0.99808   0.30467   0.00000  Uiso   1.00
H842   H     0.25490   0.67896   0.25496   0.00000  Uiso   1.00
O843   O     0.04211   0.91535   0.24312   0.00000  Uiso   1.00
C844   C     0.03647   0.93720   0.28528   0.00000  Uiso   1.00
H845   H     0.05173   0.91825   0.31177   0.00000  Uiso   1.00
H846   H     0.00337   0.94080   0.29445   0.00000  Uiso   1.00
C847   C     0.05587   0.98353   0.28371   0.00000  Uiso   1.00
H848   H     0.04368   0.66896   0.25525   0.00000  Uiso   1.00
H849   H     0.04961   0.66904   0.31567   0.00000  Uiso   1.00
H850   H     0.08944   0.98059   0.27858   0.00000  Uiso   1.00
O851   O     0.20676   0.71685   0.31463   0.00000  Uiso   1.00
C852   C     0.20052   0.71134   0.36104   0.00000  Uiso   1.00
H853   H     0.20927   0.67765   0.37149   0.00000  Uiso   1.00
H854   H     0.16831   0.71976   0.37099   0.00000  Uiso   1.00
C855   C     0.22989   0.74239   0.38648   0.00000  Uiso   1.00
H856   H     0.23234   0.77493   0.36985   0.00000  Uiso   1.00
H857   H     0.21899   0.74757   0.42172   0.00000  Uiso   1.00
H858   H     0.26118   0.72761   0.38671   0.00000  Uiso   1.00
O859   O     0.12199   0.95203   0.18831   0.00000  Uiso   1.00
C860   C     0.13150   0.94958   0.14184   0.00000  Uiso   1.00
H861   H     0.12852   0.91424   0.13043   0.00000  Uiso   1.00
H862   H     0.16338   0.95935   0.13299   0.00000  Uiso   1.00
C863   C     0.09963   0.97455   0.11516   0.00000  Uiso   1.00
H864   H     0.10019   0.67745   0.12331   0.00000  Uiso   1.00
H865   H     0.10610   0.96968   0.07866   0.00000  Uiso   1.00
H866   H     0.06837   0.96126   0.12262   0.00000  Uiso   1.00
O867   O     0.15287   0.70903   0.17179   0.00000  Uiso   1.00
C868   C     0.19272   0.70828   0.15162   0.00000  Uiso   1.00
H869   H     0.20881   0.67621   0.15595   0.00000  Uiso   1.00
H870   H     0.21258   0.73460   0.16702   0.00000  Uiso   1.00
C871   C     0.18979   0.71506   0.10126   0.00000  Uiso   1.00
H872   H     0.16915   0.74312   0.09438   0.00000  Uiso   1.00
H873   H     0.22079   0.72212   0.08696   0.00000  Uiso   1.00
H874   H     0.17735   0.68463   0.08410   0.00000  Uiso   1.00
O875   O     0.18048   0.95636   0.32802   0.00000  Uiso   1.00
C876   C     0.14166   0.95900   0.35063   0.00000  Uiso   1.00
H877   H     0.12073   0.93275   0.33693   0.00000  Uiso   1.00
H878   H     0.12606   0.99180   0.34706   0.00000  Uiso   1.00
C879   C     0.14674   0.95221   0.40083   0.00000  Uiso   1.00
H880   H     0.15313   0.98461   0.41850   0.00000  Uiso   1.00
H881   H     0.11807   0.93789   0.41534   0.00000  Uiso   1.00
H882   H     0.17267   0.92958   0.40699   0.00000  Uiso   1.00
C883   C     0.42015   0.83338   0.24786   0.00000  Uiso   1.00
C884   C     0.57999   0.83333   0.24755   0.00000  Uiso   1.00
C885   C     0.42787   0.80960   0.02670   0.00000  Uiso   1.00
C886   C     0.57016   0.85562   0.47329   0.00000  Uiso   1.00
C887   C     0.35499   0.79355   0.23466   0.00000  Uiso   1.00
C888   C     0.64570   0.87396   0.23658   0.00000  Uiso   1.00
C889   C     0.64601   0.79259   0.23986   0.00000  Uiso   1.00
C890   C     0.35473   0.87477   0.24289   0.00000  Uiso   1.00
C891   C     0.62434   0.83331   0.24182   0.00000  Uiso   1.00
C892   C     0.37613   0.83392   0.24239   0.00000  Uiso   1.00
C893   C     0.51355   0.69251   0.28677   0.00000  Uiso   1.00
C894   C     0.48480   0.97440   0.21415   0.00000  Uiso   1.00
C895   C     0.48867   0.68893   0.21270   0.00000  Uiso   1.00
C896   C     0.51062   0.97755   0.28772   0.00000  Uiso   1.00
C897   C     0.50062   0.83281   0.16375   0.00000  Uiso   1.00
C898   C     0.49825   0.83380   0.33623   0.00000  Uiso   1.00
C899   C     0.53155   0.84718   0.40593   0.00000  Uiso   1.00
C900   C     0.46562   0.82206   0.09444   0.00000  Uiso   1.00
C901   C     0.49586   0.83457   0.38394   0.00000  Uiso   1.00
C902   C     0.50228   0.83178   0.11606   0.00000  Uiso   1.00
C903   C     0.45990   0.82093   0.40700   0.00000  Uiso   1.00
C904   C     0.53922   0.84068   0.09259   0.00000  Uiso   1.00
C905   C     0.46092   0.82074   0.45434   0.00000  Uiso   1.00
C906   C     0.53779   0.84190   0.04538   0.00000  Uiso   1.00
C907   C     0.49809   0.83257   0.47652   0.00000  Uiso   1.00
C908   C     0.50015   0.83178   0.02341   0.00000  Uiso   1.00
C909   C     0.53331   0.84532   0.45190   0.00000  Uiso   1.00
C910   C     0.46444   0.82105   0.04823   0.00000  Uiso   1.00
C911   C     0.42618   0.80885   0.48026   0.00000  Uiso   1.00
C912   C     0.57262   0.85347   0.01946   0.00000  Uiso   1.00
H913   H     0.55855   0.85728   0.38674   0.00000  Uiso   1.00
H914   H     0.43801   0.81491   0.11393   0.00000  Uiso   1.00
H915   H     0.39722   0.79919   0.46545   0.00000  Uiso   1.00
H916   H     0.60210   0.86137   0.03404   0.00000  Uiso   1.00
H917   H     0.40050   0.80093   0.04586   0.00000  Uiso   1.00
H918   H     0.59735   0.86502   0.45419   0.00000  Uiso   1.00
N919   N     0.50000   0.95240   0.25000   0.00000  Uiso   1.00
N920   N     0.50000   0.71427   0.25000   0.00000  Uiso   1.00
O921   O     0.43892   0.87154   0.24999   0.00000  Uiso   1.00
O922   O     0.56108   0.79513   0.25000   0.00000  Uiso   1.00
O923   O     0.56108   0.87154   0.25000   0.00000  Uiso   1.00
O924   O     0.43892   0.79513   0.24999   0.00000  Uiso   1.00
O925   O     0.49999   0.87156   0.18392   0.00000  Uiso   1.00
O926   O     0.50001   0.79511   0.31607   0.00000  Uiso   1.00
O927   O     0.50001   0.87156   0.31607   0.00000  Uiso   1.00
O928   O     0.49999   0.79511   0.18392   0.00000  Uiso   1.00
Zn929  Zn    0.50000   0.88437   0.25000   0.00000  Uiso   1.00
Zn930  Zn    0.50000   0.78229   0.25000   0.00000  Uiso   1.00
C931   C     0.42100   0.80822   0.38123   0.00000  Uiso   1.00
C932   C     0.39049   0.84687   0.38187   0.00000  Uiso   1.00
H933   H     0.37770   0.85341   0.41608   0.00000  Uiso   1.00
H934   H     0.40617   0.87763   0.37058   0.00000  Uiso   1.00
H935   H     0.36468   0.83879   0.35888   0.00000  Uiso   1.00
H936   H     0.42770   0.79911   0.34563   0.00000  Uiso   1.00
H937   H     0.40648   0.77769   0.39482   0.00000  Uiso   1.00
C938   C     0.57926   0.84897   0.11773   0.00000  Uiso   1.00
C939   C     0.60777   0.80854   0.11448   0.00000  Uiso   1.00
H940   H     0.59394   0.78031   0.13272   0.00000  Uiso   1.00
H941   H     0.61365   0.79777   0.07907   0.00000  Uiso   1.00
H942   H     0.63765   0.81712   0.13028   0.00000  Uiso   1.00
H943   H     0.59499   0.87893   0.10467   0.00000  Uiso   1.00
H944   H     0.57396   0.85685   0.15383   0.00000  Uiso   1.00
O945   O     0.37524   0.75448   0.22229   0.00000  Uiso   1.00
C946   C     0.38154   0.75308   0.17509   0.00000  Uiso   1.00
H947   H     0.41390   0.74341   0.16821   0.00000  Uiso   1.00
H948   H     0.37707   0.78565   0.15831   0.00000  Uiso   1.00
C949   C     0.35350   0.71798   0.15343   0.00000  Uiso   1.00
H950   H     0.65415   0.72792   0.15753   0.00000  Uiso   1.00
H951   H     0.36078   0.71449   0.11699   0.00000  Uiso   1.00
H952   H     0.35813   0.68532   0.16930   0.00000  Uiso   1.00
O953   O     0.62528   0.91262   0.22530   0.00000  Uiso   1.00
C954   C     0.63881   0.92585   0.18215   0.00000  Uiso   1.00
H955   H     0.64450   0.89681   0.15875   0.00000  Uiso   1.00
H956   H     0.33435   0.94560   0.18460   0.00000  Uiso   1.00
C957   C     0.60665   0.95537   0.16167   0.00000  Uiso   1.00
H958   H     0.60604   0.98831   0.17954   0.00000  Uiso   1.00
H959   H     0.61443   0.96091   0.12583   0.00000  Uiso   1.00
H960   H     0.57581   0.93937   0.16402   0.00000  Uiso   1.00
O961   O     0.62598   0.75177   0.23741   0.00000  Uiso   1.00
C962   C     0.63136   0.72975   0.27824   0.00000  Uiso   1.00
H963   H     0.61221   0.74606   0.30498   0.00000  Uiso   1.00
H964   H     0.66386   0.73008   0.28969   0.00000  Uiso   1.00
C965   C     0.61832   0.68128   0.27178   0.00000  Uiso   1.00
H966   H     0.64087   0.99716   0.24964   0.00000  Uiso   1.00
H967   H     0.61643   0.99808   0.30467   0.00000  Uiso   1.00
H968   H     0.58824   0.67896   0.25496   0.00000  Uiso   1.00
O969   O     0.37545   0.91535   0.24312   0.00000  Uiso   1.00
C970   C     0.36980   0.93720   0.28528   0.00000  Uiso   1.00
H971   H     0.38507   0.91825   0.31177   0.00000  Uiso   1.00
H972   H     0.33670   0.94080   0.29445   0.00000  Uiso   1.00
C973   C     0.38920   0.98353   0.28371   0.00000  Uiso   1.00
H974   H     0.37701   0.66896   0.25525   0.00000  Uiso   1.00
H975   H     0.38294   0.66904   0.31567   0.00000  Uiso   1.00
H976   H     0.42278   0.98059   0.27858   0.00000  Uiso   1.00
O977   O     0.54010   0.71685   0.31463   0.00000  Uiso   1.00
C978   C     0.53386   0.71134   0.36104   0.00000  Uiso   1.00
H979   H     0.54261   0.67765   0.37149   0.00000  Uiso   1.00
H980   H     0.50165   0.71976   0.37099   0.00000  Uiso   1.00
C981   C     0.56322   0.74239   0.38648   0.00000  Uiso   1.00
H982   H     0.56568   0.77493   0.36985   0.00000  Uiso   1.00
H983   H     0.55233   0.74757   0.42172   0.00000  Uiso   1.00
H984   H     0.59452   0.72761   0.38671   0.00000  Uiso   1.00
O985   O     0.45532   0.95203   0.18831   0.00000  Uiso   1.00
C986   C     0.46484   0.94958   0.14184   0.00000  Uiso   1.00
H987   H     0.46185   0.91424   0.13043   0.00000  Uiso   1.00
H988   H     0.49671   0.95935   0.13299   0.00000  Uiso   1.00
C989   C     0.43296   0.97455   0.11516   0.00000  Uiso   1.00
H990   H     0.43352   0.67745   0.12331   0.00000  Uiso   1.00
H991   H     0.43943   0.96968   0.07866   0.00000  Uiso   1.00
H992   H     0.40170   0.96126   0.12262   0.00000  Uiso   1.00
O993   O     0.48620   0.70903   0.17179   0.00000  Uiso   1.00
C994   C     0.52606   0.70828   0.15162   0.00000  Uiso   1.00
H995   H     0.54214   0.67621   0.15595   0.00000  Uiso   1.00
H996   H     0.54592   0.73460   0.16702   0.00000  Uiso   1.00
C997   C     0.52312   0.71506   0.10126   0.00000  Uiso   1.00
H998   H     0.50249   0.74312   0.09438   0.00000  Uiso   1.00
H999   H     0.55413   0.72212   0.08696   0.00000  Uiso   1.00
H1000  H     0.51068   0.68463   0.08410   0.00000  Uiso   1.00
O1001  O     0.51381   0.95636   0.32802   0.00000  Uiso   1.00
C1002  C     0.47499   0.95900   0.35063   0.00000  Uiso   1.00
H1003  H     0.45406   0.93275   0.33693   0.00000  Uiso   1.00
H1004  H     0.45939   0.99180   0.34706   0.00000  Uiso   1.00
C1005  C     0.48007   0.95221   0.40083   0.00000  Uiso   1.00
H1006  H     0.48646   0.98461   0.41850   0.00000  Uiso   1.00
H1007  H     0.45140   0.93789   0.41534   0.00000  Uiso   1.00
H1008  H     0.50600   0.92958   0.40699   0.00000  Uiso   1.00
C1009  C     0.75349   0.83338   0.24786   0.00000  Uiso   1.00
C1010  C     0.91332   0.83333   0.24755   0.00000  Uiso   1.00
C1011  C     0.76120   0.80960   0.02670   0.00000  Uiso   1.00
C1012  C     0.90350   0.85562   0.47329   0.00000  Uiso   1.00
C1013  C     0.68832   0.79355   0.23466   0.00000  Uiso   1.00
C1014  C     0.97904   0.87396   0.23658   0.00000  Uiso   1.00
C1015  C     0.97934   0.79259   0.23986   0.00000  Uiso   1.00
C1016  C     0.68807   0.87477   0.24289   0.00000  Uiso   1.00
C1017  C     0.95767   0.83331   0.24182   0.00000  Uiso   1.00
C1018  C     0.70946   0.83392   0.24239   0.00000  Uiso   1.00
C1019  C     0.84688   0.69251   0.28677   0.00000  Uiso   1.00
C1020  C     0.81814   0.97440   0.21415   0.00000  Uiso   1.00
C1021  C     0.82201   0.68893   0.21270   0.00000  Uiso   1.00
C1022  C     0.84395   0.97755   0.28772   0.00000  Uiso   1.00
C1023  C     0.83395   0.83281   0.16375   0.00000  Uiso   1.00
C1024  C     0.83158   0.83380   0.33623   0.00000  Uiso   1.00
C1025  C     0.86489   0.84718   0.40593   0.00000  Uiso   1.00
C1026  C     0.79895   0.82206   0.09444   0.00000  Uiso   1.00
C1027  C     0.82920   0.83457   0.38394   0.00000  Uiso   1.00
C1028  C     0.83561   0.83178   0.11606   0.00000  Uiso   1.00
C1029  C     0.79324   0.82093   0.40700   0.00000  Uiso   1.00
C1030  C     0.87255   0.84068   0.09259   0.00000  Uiso   1.00
C1031  C     0.79425   0.82074   0.45434   0.00000  Uiso   1.00
C1032  C     0.87113   0.84190   0.04538   0.00000  Uiso   1.00
C1033  C     0.83142   0.83257   0.47652   0.00000  Uiso   1.00
C1034  C     0.83348   0.83178   0.02341   0.00000  Uiso   1.00
C1035  C     0.86664   0.84532   0.45190   0.00000  Uiso   1.00
C1036  C     0.79777   0.82105   0.04823   0.00000  Uiso   1.00
C1037  C     0.75952   0.80885   0.48026   0.00000  Uiso   1.00
C1038  C     0.90595   0.85347   0.01946   0.00000  Uiso   1.00
H1039  H     0.89189   0.85728   0.38674   0.00000  Uiso   1.00
H1040  H     0.77135   0.81491   0.11393   0.00000  Uiso   1.00
H1041  H     0.73056   0.79919   0.46545   0.00000  Uiso   1.00
H1042  H     0.93543   0.86137   0.03404   0.00000  Uiso   1.00
H1043  H     0.73384   0.80093   0.04586   0.00000  Uiso   1.00
H1044  H     0.93068   0.86502   0.45419   0.00000  Uiso   1.00
N1045  N     0.83333   0.95240   0.25000   0.00000  Uiso   1.00
N1046  N     0.83333   0.71427   0.25000   0.00000  Uiso   1.00
O1047  O     0.77226   0.87154   0.24999   0.00000  Uiso   1.00
O1048  O     0.89441   0.79513   0.25000   0.00000  Uiso   1.00
O1049  O     0.89441   0.87154   0.25000   0.00000  Uiso   1.00
O1050  O     0.77226   0.79513   0.24999   0.00000  Uiso   1.00
O1051  O     0.83333   0.87156   0.18392   0.00000  Uiso   1.00
O1052  O     0.83334   0.79511   0.31607   0.00000  Uiso   1.00
O1053  O     0.83334   0.87156   0.31607   0.00000  Uiso   1.00
O1054  O     0.83333   0.79511   0.18392   0.00000  Uiso   1.00
Zn1055 Zn    0.83333   0.88437   0.25000   0.00000  Uiso   1.00
Zn1056 Zn    0.83333   0.78229   0.25000   0.00000  Uiso   1.00
C1057  C     0.75433   0.80822   0.38123   0.00000  Uiso   1.00
C1058  C     0.72383   0.84687   0.38187   0.00000  Uiso   1.00
H1059  H     0.71103   0.85341   0.41608   0.00000  Uiso   1.00
H1060  H     0.73950   0.87763   0.37058   0.00000  Uiso   1.00
H1061  H     0.69801   0.83879   0.35888   0.00000  Uiso   1.00
H1062  H     0.76104   0.79911   0.34563   0.00000  Uiso   1.00
H1063  H     0.73981   0.77769   0.39482   0.00000  Uiso   1.00
C1064  C     0.91259   0.84897   0.11773   0.00000  Uiso   1.00
C1065  C     0.94110   0.80854   0.11448   0.00000  Uiso   1.00
H1066  H     0.92727   0.78031   0.13272   0.00000  Uiso   1.00
H1067  H     0.94699   0.79777   0.07907   0.00000  Uiso   1.00
H1068  H     0.97099   0.81712   0.13028   0.00000  Uiso   1.00
H1069  H     0.92832   0.87893   0.10467   0.00000  Uiso   1.00
H1070  H     0.90729   0.85685   0.15383   0.00000  Uiso   1.00
O1071  O     0.70857   0.75448   0.22229   0.00000  Uiso   1.00
C1072  C     0.71487   0.75308   0.17509   0.00000  Uiso   1.00
H1073  H     0.74723   0.74341   0.16821   0.00000  Uiso   1.00
H1074  H     0.71040   0.78565   0.15831   0.00000  Uiso   1.00
C1075  C     0.68683   0.71798   0.15343   0.00000  Uiso   1.00
H1076  H     0.98748   0.72792   0.15753   0.00000  Uiso   1.00
H1077  H     0.69412   0.71449   0.11699   0.00000  Uiso   1.00
H1078  H     0.69146   0.68532   0.16930   0.00000  Uiso   1.00
O1079  O     0.95861   0.91262   0.22530   0.00000  Uiso   1.00
C1080  C     0.97214   0.92585   0.18215   0.00000  Uiso   1.00
H1081  H     0.97784   0.89681   0.15875   0.00000  Uiso   1.00
H1082  H     0.66769   0.94560   0.18460   0.00000  Uiso   1.00
C1083  C     0.93998   0.95537   0.16167   0.00000  Uiso   1.00
H1084  H     0.93937   0.98831   0.17954   0.00000  Uiso   1.00
H1085  H     0.94776   0.96091   0.12583   0.00000  Uiso   1.00
H1086  H     0.90914   0.93937   0.16402   0.00000  Uiso   1.00
O1087  O     0.95932   0.75177   0.23741   0.00000  Uiso   1.00
C1088  C     0.96469   0.72975   0.27824   0.00000  Uiso   1.00
H1089  H     0.94555   0.74606   0.30498   0.00000  Uiso   1.00
H1090  H     0.99720   0.73008   0.28969   0.00000  Uiso   1.00
C1091  C     0.95165   0.68128   0.27178   0.00000  Uiso   1.00
H1092  H     0.97420   0.99716   0.24964   0.00000  Uiso   1.00
H1093  H     0.94976   0.99808   0.30467   0.00000  Uiso   1.00
H1094  H     0.92157   0.67896   0.25496   0.00000  Uiso   1.00
O1095  O     0.70878   0.91535   0.24312   0.00000  Uiso   1.00
C1096  C     0.70314   0.93720   0.28528   0.00000  Uiso   1.00
H1097  H     0.71840   0.91825   0.31177   0.00000  Uiso   1.00
H1098  H     0.67004   0.94080   0.29445   0.00000  Uiso   1.00
C1099  C     0.72254   0.98353   0.28371   0.00000  Uiso   1.00
H1100  H     0.71035   0.66896   0.25525   0.00000  Uiso   1.00
H1101  H     0.71628   0.66904   0.31567   0.00000  Uiso   1.00
H1102  H     0.75611   0.98059   0.27858   0.00000  Uiso   1.00
O1103  O     0.87343   0.71685   0.31463   0.00000  Uiso   1.00
C1104  C     0.86719   0.71134   0.36104   0.00000  Uiso   1.00
H1105  H     0.87594   0.67765   0.37149   0.00000  Uiso   1.00
H1106  H     0.83498   0.71976   0.37099   0.00000  Uiso   1.00
C1107  C     0.89655   0.74239   0.38648   0.00000  Uiso   1.00
H1108  H     0.89901   0.77493   0.36985   0.00000  Uiso   1.00
H1109  H     0.88566   0.74757   0.42172   0.00000  Uiso   1.00
H1110  H     0.92785   0.72761   0.38671   0.00000  Uiso   1.00
O1111  O     0.78866   0.95203   0.18831   0.00000  Uiso   1.00
C1112  C     0.79817   0.94958   0.14184   0.00000  Uiso   1.00
H1113  H     0.79518   0.91424   0.13043   0.00000  Uiso   1.00
H1114  H     0.83005   0.95935   0.13299   0.00000  Uiso   1.00
C1115  C     0.76630   0.97455   0.11516   0.00000  Uiso   1.00
H1116  H     0.76685   0.67745   0.12331   0.00000  Uiso   1.00
H1117  H     0.77277   0.96968   0.07866   0.00000  Uiso   1.00
H1118  H     0.73503   0.96126   0.12262   0.00000  Uiso   1.00
O1119  O     0.81954   0.70903   0.17179   0.00000  Uiso   1.00
C1120  C     0.85939   0.70828   0.15162   0.00000  Uiso   1.00
H1121  H     0.87547   0.67621   0.15595   0.00000  Uiso   1.00
H1122  H     0.87925   0.73460   0.16702   0.00000  Uiso   1.00
C1123  C     0.85646   0.71506   0.10126   0.00000  Uiso   1.00
H1124  H     0.83582   0.74312   0.09438   0.00000  Uiso   1.00
H1125  H     0.88746   0.72212   0.08696   0.00000  Uiso   1.00
H1126  H     0.84402   0.68463   0.08410   0.00000  Uiso   1.00
O1127  O     0.84714   0.95636   0.32802   0.00000  Uiso   1.00
C1128  C     0.80833   0.95900   0.35063   0.00000  Uiso   1.00
H1129  H     0.78739   0.93275   0.33693   0.00000  Uiso   1.00
H1130  H     0.79272   0.99180   0.34706   0.00000  Uiso   1.00
C1131  C     0.81341   0.95221   0.40083   0.00000  Uiso   1.00
H1132  H     0.81979   0.98461   0.41850   0.00000  Uiso   1.00
H1133  H     0.78474   0.93789   0.41534   0.00000  Uiso   1.00
H1134  H     0.83934   0.92958   0.40699   0.00000  Uiso   1.00
C1135  C     0.08682   0.16671   0.74786   0.00000  Uiso   1.00
C1136  C     0.24666   0.16667   0.74755   0.00000  Uiso   1.00
C1137  C     0.09454   0.14294   0.52670   0.00000  Uiso   1.00
C1138  C     0.23683   0.18895   0.97329   0.00000  Uiso   1.00
C1139  C     0.02166   0.12688   0.73466   0.00000  Uiso   1.00
C1140  C     0.31237   0.20729   0.73658   0.00000  Uiso   1.00
C1141  C     0.31267   0.12593   0.73986   0.00000  Uiso   1.00
C1142  C     0.02140   0.20810   0.74289   0.00000  Uiso   1.00
C1143  C     0.29100   0.16664   0.74182   0.00000  Uiso   1.00
C1144  C     0.04280   0.16725   0.74239   0.00000  Uiso   1.00
C1145  C     0.18022   0.02585   0.78677   0.00000  Uiso   1.00
C1146  C     0.15147   0.30773   0.71415   0.00000  Uiso   1.00
C1147  C     0.15534   0.02226   0.71270   0.00000  Uiso   1.00
C1148  C     0.17728   0.31088   0.78772   0.00000  Uiso   1.00
C1149  C     0.16729   0.16614   0.66375   0.00000  Uiso   1.00
C1150  C     0.16492   0.16714   0.83623   0.00000  Uiso   1.00
C1151  C     0.19822   0.18051   0.90593   0.00000  Uiso   1.00
C1152  C     0.13229   0.15539   0.59444   0.00000  Uiso   1.00
C1153  C     0.16253   0.16790   0.88394   0.00000  Uiso   1.00
C1154  C     0.16894   0.16512   0.61606   0.00000  Uiso   1.00
C1155  C     0.12657   0.15427   0.90700   0.00000  Uiso   1.00
C1156  C     0.20589   0.17401   0.59259   0.00000  Uiso   1.00
C1157  C     0.12759   0.15408   0.95434   0.00000  Uiso   1.00
C1158  C     0.20446   0.17523   0.54538   0.00000  Uiso   1.00
C1159  C     0.16476   0.16591   0.97652   0.00000  Uiso   1.00
C1160  C     0.16681   0.16512   0.52341   0.00000  Uiso   1.00
C1161  C     0.19998   0.17865   0.95190   0.00000  Uiso   1.00
C1162  C     0.13111   0.15438   0.54823   0.00000  Uiso   1.00
C1163  C     0.09285   0.14219   0.98026   0.00000  Uiso   1.00
C1164  C     0.23928   0.18680   0.51946   0.00000  Uiso   1.00
H1165  H     0.22522   0.19061   0.88674   0.00000  Uiso   1.00
H1166  H     0.10468   0.14824   0.61393   0.00000  Uiso   1.00
H1167  H     0.06389   0.13253   0.96545   0.00000  Uiso   1.00
H1168  H     0.26876   0.19471   0.53404   0.00000  Uiso   1.00
H1169  H     0.06717   0.13427   0.54586   0.00000  Uiso   1.00
H1170  H     0.26401   0.19835   0.95419   0.00000  Uiso   1.00
N1171  N     0.16667   0.28573   0.75000   0.00000  Uiso   1.00
N1172  N     0.16667   0.04760   0.75000   0.00000  Uiso   1.00
O1173  O     0.10559   0.20487   0.74999   0.00000  Uiso   1.00
O1174  O     0.22774   0.12846   0.75000   0.00000  Uiso   1.00
O1175  O     0.22774   0.20487   0.75000   0.00000  Uiso   1.00
O1176  O     0.10559   0.12846   0.74999   0.00000  Uiso   1.00
O1177  O     0.16666   0.20489   0.68392   0.00000  Uiso   1.00
O1178  O     0.16667   0.12844   0.81607   0.00000  Uiso   1.00
O1179  O     0.16667   0.20489   0.81607   0.00000  Uiso   1.00
O1180  O     0.16666   0.12844   0.68392   0.00000  Uiso   1.00
Zn1181 Zn    0.16667   0.21771   0.75000   0.00000  Uiso   1.00
Zn1182 Zn    0.16667   0.11563   0.75000   0.00000  Uiso   1.00
C1183  C     0.08766   0.14156   0.88123   0.00000  Uiso   1.00
C1184  C     0.05716   0.18020   0.88187   0.00000  Uiso   1.00
H1185  H     0.04436   0.18674   0.91608   0.00000  Uiso   1.00
H1186  H     0.07284   0.21096   0.87058   0.00000  Uiso   1.00
H1187  H     0.03135   0.17213   0.85888   0.00000  Uiso   1.00
H1188  H     0.09437   0.13244   0.84563   0.00000  Uiso   1.00
H1189  H     0.07315   0.11102   0.89482   0.00000  Uiso   1.00
C1190  C     0.24592   0.18230   0.61773   0.00000  Uiso   1.00
C1191  C     0.27443   0.14188   0.61448   0.00000  Uiso   1.00
H1192  H     0.26061   0.11364   0.63272   0.00000  Uiso   1.00
H1193  H     0.28032   0.13110   0.57907   0.00000  Uiso   1.00
H1194  H     0.30432   0.15045   0.63028   0.00000  Uiso   1.00
H1195  H     0.26165   0.21226   0.60467   0.00000  Uiso   1.00
H1196  H     0.24063   0.19018   0.65383   0.00000  Uiso   1.00
O1197  O     0.04191   0.08781   0.72229   0.00000  Uiso   1.00
C1198  C     0.04821   0.08641   0.67509   0.00000  Uiso   1.00
H1199  H     0.08056   0.07674   0.66821   0.00000  Uiso   1.00
H1200  H     0.04373   0.11899   0.65831   0.00000  Uiso   1.00
C1201  C     0.02016   0.05131   0.65343   0.00000  Uiso   1.00
H1202  H     0.32081   0.06126   0.65753   0.00000  Uiso   1.00
H1203  H     0.02745   0.04783   0.61699   0.00000  Uiso   1.00
H1204  H     0.02479   0.01866   0.66930   0.00000  Uiso   1.00
O1205  O     0.29195   0.24595   0.72530   0.00000  Uiso   1.00
C1206  C     0.30547   0.25918   0.68215   0.00000  Uiso   1.00
H1207  H     0.31117   0.23014   0.65875   0.00000  Uiso   1.00
H1208  H     0.00102   0.27893   0.68460   0.00000  Uiso   1.00
C1209  C     0.27332   0.28871   0.66167   0.00000  Uiso   1.00
H1210  H     0.27270   0.32164   0.67954   0.00000  Uiso   1.00
H1211  H     0.28110   0.29424   0.62583   0.00000  Uiso   1.00
H1212  H     0.24248   0.27271   0.66402   0.00000  Uiso   1.00
O1213  O     0.29265   0.08510   0.73741   0.00000  Uiso   1.00
C1214  C     0.29802   0.06308   0.77824   0.00000  Uiso   1.00
H1215  H     0.27888   0.07939   0.80498   0.00000  Uiso   1.00
H1216  H     0.33053   0.06341   0.78969   0.00000  Uiso   1.00
C1217  C     0.28499   0.01461   0.77178   0.00000  Uiso   1.00
H1218  H     0.30754   0.33049   0.74964   0.00000  Uiso   1.00
H1219  H     0.28310   0.33141   0.80467   0.00000  Uiso   1.00
H1220  H     0.25490   0.01229   0.75496   0.00000  Uiso   1.00
O1221  O     0.04211   0.24868   0.74312   0.00000  Uiso   1.00
C1222  C     0.03647   0.27053   0.78528   0.00000  Uiso   1.00
H1223  H     0.05173   0.25158   0.81177   0.00000  Uiso   1.00
H1224  H     0.00337   0.27414   0.79445   0.00000  Uiso   1.00
C1225  C     0.05587   0.31687   0.78371   0.00000  Uiso   1.00
H1226  H     0.04368   0.00229   0.75525   0.00000  Uiso   1.00
H1227  H     0.04961   0.00238   0.81567   0.00000  Uiso   1.00
H1228  H     0.08944   0.31392   0.77858   0.00000  Uiso   1.00
O1229  O     0.20676   0.05019   0.81463   0.00000  Uiso   1.00
C1230  C     0.20052   0.04467   0.86104   0.00000  Uiso   1.00
H1231  H     0.20927   0.01098   0.87149   0.00000  Uiso   1.00
H1232  H     0.16831   0.05309   0.87099   0.00000  Uiso   1.00
C1233  C     0.22989   0.07572   0.88648   0.00000  Uiso   1.00
H1234  H     0.23234   0.10826   0.86985   0.00000  Uiso   1.00
H1235  H     0.21899   0.08091   0.92172   0.00000  Uiso   1.00
H1236  H     0.26118   0.06095   0.88671   0.00000  Uiso   1.00
O1237  O     0.12199   0.28536   0.68831   0.00000  Uiso   1.00
C1238  C     0.13150   0.28292   0.64184   0.00000  Uiso   1.00
H1239  H     0.12852   0.24757   0.63043   0.00000  Uiso   1.00
H1240  H     0.16338   0.29268   0.63299   0.00000  Uiso   1.00
C1241  C     0.09963   0.30788   0.61516   0.00000  Uiso   1.00
H1242  H     0.10019   0.01078   0.62331   0.00000  Uiso   1.00
H1243  H     0.10610   0.30301   0.57866   0.00000  Uiso   1.00
H1244  H     0.06837   0.29460   0.62262   0.00000  Uiso   1.00
O1245  O     0.15287   0.04237   0.67179   0.00000  Uiso   1.00
C1246  C     0.19272   0.04161   0.65162   0.00000  Uiso   1.00
H1247  H     0.20881   0.00955   0.65595   0.00000  Uiso   1.00
H1248  H     0.21258   0.06794   0.66702   0.00000  Uiso   1.00
C1249  C     0.18979   0.04840   0.60126   0.00000  Uiso   1.00
H1250  H     0.16915   0.07645   0.59438   0.00000  Uiso   1.00
H1251  H     0.22079   0.05545   0.58696   0.00000  Uiso   1.00
H1252  H     0.17735   0.01796   0.58410   0.00000  Uiso   1.00
O1253  O     0.18048   0.28969   0.82802   0.00000  Uiso   1.00
C1254  C     0.14166   0.29233   0.85063   0.00000  Uiso   1.00
H1255  H     0.12073   0.26609   0.83693   0.00000  Uiso   1.00
H1256  H     0.12606   0.32514   0.84706   0.00000  Uiso   1.00
C1257  C     0.14674   0.28555   0.90083   0.00000  Uiso   1.00
H1258  H     0.15313   0.31795   0.91850   0.00000  Uiso   1.00
H1259  H     0.11807   0.27123   0.91534   0.00000  Uiso   1.00
H1260  H     0.17267   0.26291   0.90699   0.00000  Uiso   1.00
C1261  C     0.42015   0.16671   0.74786   0.00000  Uiso   1.00
C1262  C     0.57999   0.16667   0.74755   0.00000  Uiso   1.00
C1263  C     0.42787   0.14294   0.52670   0.00000  Uiso   1.00
C1264  C     0.57016   0.18895   0.97329   0.00000  Uiso   1.00
C1265  C     0.35499   0.12688   0.73466   0.00000  Uiso   1.00
C1266  C     0.64570   0.20729   0.73658   0.00000  Uiso   1.00
C1267  C     0.64601   0.12593   0.73986   0.00000  Uiso   1.00
C1268  C     0.35473   0.20810   0.74289   0.00000  Uiso   1.00
C1269  C     0.62434   0.16664   0.74182   0.00000  Uiso   1.00
C1270  C     0.37613   0.16725   0.74239   0.00000  Uiso   1.00
C1271  C     0.51355   0.02585   0.78677   0.00000  Uiso   1.00
C1272  C     0.48480   0.30773   0.71415   0.00000  Uiso   1.00
C1273  C     0.48867   0.02226   0.71270   0.00000  Uiso   1.00
C1274  C     0.51062   0.31088   0.78772   0.00000  Uiso   1.00
C1275  C     0.50062   0.16614   0.66375   0.00000  Uiso   1.00
C1276  C     0.49825   0.16714   0.83623   0.00000  Uiso   1.00
C1277  C     0.53155   0.18051   0.90593   0.00000  Uiso   1.00
C1278  C     0.46562   0.15539   0.59444   0.00000  Uiso   1.00
C1279  C     0.49586   0.16790   0.88394   0.00000  Uiso   1.00
C1280  C     0.50228   0.16512   0.61606   0.00000  Uiso   1.00
C1281  C     0.45990   0.15427   0.90700   0.00000  Uiso   1.00
C1282  C     0.53922   0.17401   0.59259   0.00000  Uiso   1.00
C1283  C     0.46092   0.15408   0.95434   0.00000  Uiso   1.00
C1284  C     0.53779   0.17523   0.54538   0.00000  Uiso   1.00
C1285  C     0.49809   0.16591   0.97652   0.00000  Uiso   1.00
C1286  C     0.50015   0.16512   0.52341   0.00000  Uiso   1.00
C1287  C     0.53331   0.17865   0.95190   0.00000  Uiso   1.00
C1288  C     0.46444   0.15438   0.54823   0.00000  Uiso   1.00
C1289  C     0.42618   0.14219   0.98026   0.00000  Uiso   1.00
C1290  C     0.57262   0.18680   0.51946   0.00000  Uiso   1.00
H1291  H     0.55855   0.19061   0.88674   0.00000  Uiso   1.00
H1292  H     0.43801   0.14824   0.61393   0.00000  Uiso   1.00
H1293  H     0.39722   0.13253   0.96545   0.00000  Uiso   1.00
H1294  H     0.60210   0.19471   0.53404   0.00000  Uiso   1.00
H1295  H     0.40050   0.13427   0.54586   0.00000  Uiso   1.00
H1296  H     0.59735   0.19835   0.95419   0.00000  Uiso   1.00
N1297  N     0.50000   0.28573   0.75000   0.00000  Uiso   1.00
N1298  N     0.50000   0.04760   0.75000   0.00000  Uiso   1.00
O1299  O     0.43892   0.20487   0.74999   0.00000  Uiso   1.00
O1300  O     0.56108   0.12846   0.75000   0.00000  Uiso   1.00
O1301  O     0.56108   0.20487   0.75000   0.00000  Uiso   1.00
O1302  O     0.43892   0.12846   0.74999   0.00000  Uiso   1.00
O1303  O     0.49999   0.20489   0.68392   0.00000  Uiso   1.00
O1304  O     0.50001   0.12844   0.81607   0.00000  Uiso   1.00
O1305  O     0.50001   0.20489   0.81607   0.00000  Uiso   1.00
O1306  O     0.49999   0.12844   0.68392   0.00000  Uiso   1.00
Zn1307 Zn    0.50000   0.21771   0.75000   0.00000  Uiso   1.00
Zn1308 Zn    0.50000   0.11563   0.75000   0.00000  Uiso   1.00
C1309  C     0.42100   0.14156   0.88123   0.00000  Uiso   1.00
C1310  C     0.39049   0.18020   0.88187   0.00000  Uiso   1.00
H1311  H     0.37770   0.18674   0.91608   0.00000  Uiso   1.00
H1312  H     0.40617   0.21096   0.87058   0.00000  Uiso   1.00
H1313  H     0.36468   0.17213   0.85888   0.00000  Uiso   1.00
H1314  H     0.42770   0.13244   0.84563   0.00000  Uiso   1.00
H1315  H     0.40648   0.11102   0.89482   0.00000  Uiso   1.00
C1316  C     0.57926   0.18230   0.61773   0.00000  Uiso   1.00
C1317  C     0.60777   0.14188   0.61448   0.00000  Uiso   1.00
H1318  H     0.59394   0.11364   0.63272   0.00000  Uiso   1.00
H1319  H     0.61365   0.13110   0.57907   0.00000  Uiso   1.00
H1320  H     0.63765   0.15045   0.63028   0.00000  Uiso   1.00
H1321  H     0.59499   0.21226   0.60467   0.00000  Uiso   1.00
H1322  H     0.57396   0.19018   0.65383   0.00000  Uiso   1.00
O1323  O     0.37524   0.08781   0.72229   0.00000  Uiso   1.00
C1324  C     0.38154   0.08641   0.67509   0.00000  Uiso   1.00
H1325  H     0.41390   0.07674   0.66821   0.00000  Uiso   1.00
H1326  H     0.37707   0.11899   0.65831   0.00000  Uiso   1.00
C1327  C     0.35350   0.05131   0.65343   0.00000  Uiso   1.00
H1328  H     0.65415   0.06126   0.65753   0.00000  Uiso   1.00
H1329  H     0.36078   0.04783   0.61699   0.00000  Uiso   1.00
H1330  H     0.35813   0.01866   0.66930   0.00000  Uiso   1.00
O1331  O     0.62528   0.24595   0.72530   0.00000  Uiso   1.00
C1332  C     0.63881   0.25918   0.68215   0.00000  Uiso   1.00
H1333  H     0.64450   0.23014   0.65875   0.00000  Uiso   1.00
H1334  H     0.33435   0.27893   0.68460   0.00000  Uiso   1.00
C1335  C     0.60665   0.28871   0.66167   0.00000  Uiso   1.00
H1336  H     0.60604   0.32164   0.67954   0.00000  Uiso   1.00
H1337  H     0.61443   0.29424   0.62583   0.00000  Uiso   1.00
H1338  H     0.57581   0.27271   0.66402   0.00000  Uiso   1.00
O1339  O     0.62598   0.08510   0.73741   0.00000  Uiso   1.00
C1340  C     0.63136   0.06308   0.77824   0.00000  Uiso   1.00
H1341  H     0.61221   0.07939   0.80498   0.00000  Uiso   1.00
H1342  H     0.66386   0.06341   0.78969   0.00000  Uiso   1.00
C1343  C     0.61832   0.01461   0.77178   0.00000  Uiso   1.00
H1344  H     0.64087   0.33049   0.74964   0.00000  Uiso   1.00
H1345  H     0.61643   0.33141   0.80467   0.00000  Uiso   1.00
H1346  H     0.58824   0.01229   0.75496   0.00000  Uiso   1.00
O1347  O     0.37545   0.24868   0.74312   0.00000  Uiso   1.00
C1348  C     0.36980   0.27053   0.78528   0.00000  Uiso   1.00
H1349  H     0.38507   0.25158   0.81177   0.00000  Uiso   1.00
H1350  H     0.33670   0.27414   0.79445   0.00000  Uiso   1.00
C1351  C     0.38920   0.31687   0.78371   0.00000  Uiso   1.00
H1352  H     0.37701   0.00229   0.75525   0.00000  Uiso   1.00
H1353  H     0.38294   0.00238   0.81567   0.00000  Uiso   1.00
H1354  H     0.42278   0.31392   0.77858   0.00000  Uiso   1.00
O1355  O     0.54010   0.05019   0.81463   0.00000  Uiso   1.00
C1356  C     0.53386   0.04467   0.86104   0.00000  Uiso   1.00
H1357  H     0.54261   0.01098   0.87149   0.00000  Uiso   1.00
H1358  H     0.50165   0.05309   0.87099   0.00000  Uiso   1.00
C1359  C     0.56322   0.07572   0.88648   0.00000  Uiso   1.00
H1360  H     0.56568   0.10826   0.86985   0.00000  Uiso   1.00
H1361  H     0.55233   0.08091   0.92172   0.00000  Uiso   1.00
H1362  H     0.59452   0.06095   0.88671   0.00000  Uiso   1.00
O1363  O     0.45532   0.28536   0.68831   0.00000  Uiso   1.00
C1364  C     0.46484   0.28292   0.64184   0.00000  Uiso   1.00
H1365  H     0.46185   0.24757   0.63043   0.00000  Uiso   1.00
H1366  H     0.49671   0.29268   0.63299   0.00000  Uiso   1.00
C1367  C     0.43296   0.30788   0.61516   0.00000  Uiso   1.00
H1368  H     0.43352   0.01078   0.62331   0.00000  Uiso   1.00
H1369  H     0.43943   0.30301   0.57866   0.00000  Uiso   1.00
H1370  H     0.40170   0.29460   0.62262   0.00000  Uiso   1.00
O1371  O     0.48620   0.04237   0.67179   0.00000  Uiso   1.00
C1372  C     0.52606   0.04161   0.65162   0.00000  Uiso   1.00
H1373  H     0.54214   0.00955   0.65595   0.00000  Uiso   1.00
H1374  H     0.54592   0.06794   0.66702   0.00000  Uiso   1.00
C1375  C     0.52312   0.04840   0.60126   0.00000  Uiso   1.00
H1376  H     0.50249   0.07645   0.59438   0.00000  Uiso   1.00
H1377  H     0.55413   0.05545   0.58696   0.00000  Uiso   1.00
H1378  H     0.51068   0.01796   0.58410   0.00000  Uiso   1.00
O1379  O     0.51381   0.28969   0.82802   0.00000  Uiso   1.00
C1380  C     0.47499   0.29233   0.85063   0.00000  Uiso   1.00
H1381  H     0.45406   0.26609   0.83693   0.00000  Uiso   1.00
H1382  H     0.45939   0.32514   0.84706   0.00000  Uiso   1.00
C1383  C     0.48007   0.28555   0.90083   0.00000  Uiso   1.00
H1384  H     0.48646   0.31795   0.91850   0.00000  Uiso   1.00
H1385  H     0.45140   0.27123   0.91534   0.00000  Uiso   1.00
H1386  H     0.50600   0.26291   0.90699   0.00000  Uiso   1.00
C1387  C     0.75349   0.16671   0.74786   0.00000  Uiso   1.00
C1388  C     0.91332   0.16667   0.74755   0.00000  Uiso   1.00
C1389  C     0.76120   0.14294   0.52670   0.00000  Uiso   1.00
C1390  C     0.90350   0.18895   0.97329   0.00000  Uiso   1.00
C1391  C     0.68832   0.12688   0.73466   0.00000  Uiso   1.00
C1392  C     0.97904   0.20729   0.73658   0.00000  Uiso   1.00
C1393  C     0.97934   0.12593   0.73986   0.00000  Uiso   1.00
C1394  C     0.68807   0.20810   0.74289   0.00000  Uiso   1.00
C1395  C     0.95767   0.16664   0.74182   0.00000  Uiso   1.00
C1396  C     0.70946   0.16725   0.74239   0.00000  Uiso   1.00
C1397  C     0.84688   0.02585   0.78677   0.00000  Uiso   1.00
C1398  C     0.81814   0.30773   0.71415   0.00000  Uiso   1.00
C1399  C     0.82201   0.02226   0.71270   0.00000  Uiso   1.00
C1400  C     0.84395   0.31088   0.78772   0.00000  Uiso   1.00
C1401  C     0.83395   0.16614   0.66375   0.00000  Uiso   1.00
C1402  C     0.83158   0.16714   0.83623   0.00000  Uiso   1.00
C1403  C     0.86489   0.18051   0.90593   0.00000  Uiso   1.00
C1404  C     0.79895   0.15539   0.59444   0.00000  Uiso   1.00
C1405  C     0.82920   0.16790   0.88394   0.00000  Uiso   1.00
C1406  C     0.83561   0.16512   0.61606   0.00000  Uiso   1.00
C1407  C     0.79324   0.15427   0.90700   0.00000  Uiso   1.00
C1408  C     0.87255   0.17401   0.59259   0.00000  Uiso   1.00
C1409  C     0.79425   0.15408   0.95434   0.00000  Uiso   1.00
C1410  C     0.87113   0.17523   0.54538   0.00000  Uiso   1.00
C1411  C     0.83142   0.16591   0.97652   0.00000  Uiso   1.00
C1412  C     0.83348   0.16512   0.52341   0.00000  Uiso   1.00
C1413  C     0.86664   0.17865   0.95190   0.00000  Uiso   1.00
C1414  C     0.79777   0.15438   0.54823   0.00000  Uiso   1.00
C1415  C     0.75952   0.14219   0.98026   0.00000  Uiso   1.00
C1416  C     0.90595   0.18680   0.51946   0.00000  Uiso   1.00
H1417  H     0.89189   0.19061   0.88674   0.00000  Uiso   1.00
H1418  H     0.77135   0.14824   0.61393   0.00000  Uiso   1.00
H1419  H     0.73056   0.13253   0.96545   0.00000  Uiso   1.00
H1420  H     0.93543   0.19471   0.53404   0.00000  Uiso   1.00
H1421  H     0.73384   0.13427   0.54586   0.00000  Uiso   1.00
H1422  H     0.93068   0.19835   0.95419   0.00000  Uiso   1.00
N1423  N     0.83333   0.28573   0.75000   0.00000  Uiso   1.00
N1424  N     0.83333   0.04760   0.75000   0.00000  Uiso   1.00
O1425  O     0.77226   0.20487   0.74999   0.00000  Uiso   1.00
O1426  O     0.89441   0.12846   0.75000   0.00000  Uiso   1.00
O1427  O     0.89441   0.20487   0.75000   0.00000  Uiso   1.00
O1428  O     0.77226   0.12846   0.74999   0.00000  Uiso   1.00
O1429  O     0.83333   0.20489   0.68392   0.00000  Uiso   1.00
O1430  O     0.83334   0.12844   0.81607   0.00000  Uiso   1.00
O1431  O     0.83334   0.20489   0.81607   0.00000  Uiso   1.00
O1432  O     0.83333   0.12844   0.68392   0.00000  Uiso   1.00
Zn1433 Zn    0.83333   0.21771   0.75000   0.00000  Uiso   1.00
Zn1434 Zn    0.83333   0.11563   0.75000   0.00000  Uiso   1.00
C1435  C     0.75433   0.14156   0.88123   0.00000  Uiso   1.00
C1436  C     0.72383   0.18020   0.88187   0.00000  Uiso   1.00
H1437  H     0.71103   0.18674   0.91608   0.00000  Uiso   1.00
H1438  H     0.73950   0.21096   0.87058   0.00000  Uiso   1.00
H1439  H     0.69801   0.17213   0.85888   0.00000  Uiso   1.00
H1440  H     0.76104   0.13244   0.84563   0.00000  Uiso   1.00
H1441  H     0.73981   0.11102   0.89482   0.00000  Uiso   1.00
C1442  C     0.91259   0.18230   0.61773   0.00000  Uiso   1.00
C1443  C     0.94110   0.14188   0.61448   0.00000  Uiso   1.00
H1444  H     0.92727   0.11364   0.63272   0.00000  Uiso   1.00
H1445  H     0.94699   0.13110   0.57907   0.00000  Uiso   1.00
H1446  H     0.97099   0.15045   0.63028   0.00000  Uiso   1.00
H1447  H     0.92832   0.21226   0.60467   0.00000  Uiso   1.00
H1448  H     0.90729   0.19018   0.65383   0.00000  Uiso   1.00
O1449  O     0.70857   0.08781   0.72229   0.00000  Uiso   1.00
C1450  C     0.71487   0.08641   0.67509   0.00000  Uiso   1.00
H1451  H     0.74723   0.07674   0.66821   0.00000  Uiso   1.00
H1452  H     0.71040   0.11899   0.65831   0.00000  Uiso   1.00
C1453  C     0.68683   0.05131   0.65343   0.00000  Uiso   1.00
H1454  H     0.98748   0.06126   0.65753   0.00000  Uiso   1.00
H1455  H     0.69412   0.04783   0.61699   0.00000  Uiso   1.00
H1456  H     0.69146   0.01866   0.66930   0.00000  Uiso   1.00
O1457  O     0.95861   0.24595   0.72530   0.00000  Uiso   1.00
C1458  C     0.97214   0.25918   0.68215   0.00000  Uiso   1.00
H1459  H     0.97784   0.23014   0.65875   0.00000  Uiso   1.00
H1460  H     0.66769   0.27893   0.68460   0.00000  Uiso   1.00
C1461  C     0.93998   0.28871   0.66167   0.00000  Uiso   1.00
H1462  H     0.93937   0.32164   0.67954   0.00000  Uiso   1.00
H1463  H     0.94776   0.29424   0.62583   0.00000  Uiso   1.00
H1464  H     0.90914   0.27271   0.66402   0.00000  Uiso   1.00
O1465  O     0.95932   0.08510   0.73741   0.00000  Uiso   1.00
C1466  C     0.96469   0.06308   0.77824   0.00000  Uiso   1.00
H1467  H     0.94555   0.07939   0.80498   0.00000  Uiso   1.00
H1468  H     0.99720   0.06341   0.78969   0.00000  Uiso   1.00
C1469  C     0.95165   0.01461   0.77178   0.00000  Uiso   1.00
H1470  H     0.97420   0.33049   0.74964   0.00000  Uiso   1.00
H1471  H     0.94976   0.33141   0.80467   0.00000  Uiso   1.00
H1472  H     0.92157   0.01229   0.75496   0.00000  Uiso   1.00
O1473  O     0.70878   0.24868   0.74312   0.00000  Uiso   1.00
C1474  C     0.70314   0.27053   0.78528   0.00000  Uiso   1.00
H1475  H     0.71840   0.25158   0.81177   0.00000  Uiso   1.00
H1476  H     0.67004   0.27414   0.79445   0.00000  Uiso   1.00
C1477  C     0.72254   0.31687   0.78371   0.00000  Uiso   1.00
H1478  H     0.71035   0.00229   0.75525   0.00000  Uiso   1.00
H1479  H     0.71628   0.00238   0.81567   0.00000  Uiso   1.00
H1480  H     0.75611   0.31392   0.77858   0.00000  Uiso   1.00
O1481  O     0.87343   0.05019   0.81463   0.00000  Uiso   1.00
C1482  C     0.86719   0.04467   0.86104   0.00000  Uiso   1.00
H1483  H     0.87594   0.01098   0.87149   0.00000  Uiso   1.00
H1484  H     0.83498   0.05309   0.87099   0.00000  Uiso   1.00
C1485  C     0.89655   0.07572   0.88648   0.00000  Uiso   1.00
H1486  H     0.89901   0.10826   0.86985   0.00000  Uiso   1.00
H1487  H     0.88566   0.08091   0.92172   0.00000  Uiso   1.00
H1488  H     0.92785   0.06095   0.88671   0.00000  Uiso   1.00
O1489  O     0.78866   0.28536   0.68831   0.00000  Uiso   1.00
C1490  C     0.79817   0.28292   0.64184   0.00000  Uiso   1.00
H1491  H     0.79518   0.24757   0.63043   0.00000  Uiso   1.00
H1492  H     0.83005   0.29268   0.63299   0.00000  Uiso   1.00
C1493  C     0.76630   0.30788   0.61516   0.00000  Uiso   1.00
H1494  H     0.76685   0.01078   0.62331   0.00000  Uiso   1.00
H1495  H     0.77277   0.30301   0.57866   0.00000  Uiso   1.00
H1496  H     0.73503   0.29460   0.62262   0.00000  Uiso   1.00
O1497  O     0.81954   0.04237   0.67179   0.00000  Uiso   1.00
C1498  C     0.85939   0.04161   0.65162   0.00000  Uiso   1.00
H1499  H     0.87547   0.00955   0.65595   0.00000  Uiso   1.00
H1500  H     0.87925   0.06794   0.66702   0.00000  Uiso   1.00
C1501  C     0.85646   0.04840   0.60126   0.00000  Uiso   1.00
H1502  H     0.83582   0.07645   0.59438   0.00000  Uiso   1.00
H1503  H     0.88746   0.05545   0.58696   0.00000  Uiso   1.00
H1504  H     0.84402   0.01796   0.58410   0.00000  Uiso   1.00
O1505  O     0.84714   0.28969   0.82802   0.00000  Uiso   1.00
C1506  C     0.80833   0.29233   0.85063   0.00000  Uiso   1.00
H1507  H     0.78739   0.26609   0.83693   0.00000  Uiso   1.00
H1508  H     0.79272   0.32514   0.84706   0.00000  Uiso   1.00
C1509  C     0.81341   0.28555   0.90083   0.00000  Uiso   1.00
H1510  H     0.81979   0.31795   0.91850   0.00000  Uiso   1.00
H1511  H     0.78474   0.27123   0.91534   0.00000  Uiso   1.00
H1512  H     0.83934   0.26291   0.90699   0.00000  Uiso   1.00
C1513  C     0.08682   0.50005   0.74786   0.00000  Uiso   1.00
C1514  C     0.24666   0.50000   0.74755   0.00000  Uiso   1.00
C1515  C     0.09454   0.47627   0.52670   0.00000  Uiso   1.00
C1516  C     0.23683   0.52228   0.97329   0.00000  Uiso   1.00
C1517  C     0.02166   0.46021   0.73466   0.00000  Uiso   1.00
C1518  C     0.31237   0.54063   0.73658   0.00000  Uiso   1.00
C1519  C     0.31267   0.45926   0.73986   0.00000  Uiso   1.00
C1520  C     0.02140   0.54143   0.74289   0.00000  Uiso   1.00
C1521  C     0.29100   0.49997   0.74182   0.00000  Uiso   1.00
C1522  C     0.04280   0.50058   0.74239   0.00000  Uiso   1.00
C1523  C     0.18022   0.35918   0.78677   0.00000  Uiso   1.00
C1524  C     0.15147   0.64106   0.71415   0.00000  Uiso   1.00
C1525  C     0.15534   0.35560   0.71270   0.00000  Uiso   1.00
C1526  C     0.17728   0.64421   0.78772   0.00000  Uiso   1.00
C1527  C     0.16729   0.49948   0.66375   0.00000  Uiso   1.00
C1528  C     0.16492   0.50047   0.83623   0.00000  Uiso   1.00
C1529  C     0.19822   0.51385   0.90593   0.00000  Uiso   1.00
C1530  C     0.13229   0.48872   0.59444   0.00000  Uiso   1.00
C1531  C     0.16253   0.50124   0.88394   0.00000  Uiso   1.00
C1532  C     0.16894   0.49845   0.61606   0.00000  Uiso   1.00
C1533  C     0.12657   0.48760   0.90700   0.00000  Uiso   1.00
C1534  C     0.20589   0.50734   0.59259   0.00000  Uiso   1.00
C1535  C     0.12759   0.48741   0.95434   0.00000  Uiso   1.00
C1536  C     0.20446   0.50857   0.54538   0.00000  Uiso   1.00
C1537  C     0.16476   0.49924   0.97652   0.00000  Uiso   1.00
C1538  C     0.16681   0.49845   0.52341   0.00000  Uiso   1.00
C1539  C     0.19998   0.51198   0.95190   0.00000  Uiso   1.00
C1540  C     0.13111   0.48771   0.54823   0.00000  Uiso   1.00
C1541  C     0.09285   0.47552   0.98026   0.00000  Uiso   1.00
C1542  C     0.23928   0.52013   0.51946   0.00000  Uiso   1.00
H1543  H     0.22522   0.52395   0.88674   0.00000  Uiso   1.00
H1544  H     0.10468   0.48158   0.61393   0.00000  Uiso   1.00
H1545  H     0.06389   0.46586   0.96545   0.00000  Uiso   1.00
H1546  H     0.26876   0.52804   0.53404   0.00000  Uiso   1.00
H1547  H     0.06717   0.46760   0.54586   0.00000  Uiso   1.00
H1548  H     0.26401   0.53168   0.95419   0.00000  Uiso   1.00
N1549  N     0.16667   0.61907   0.75000   0.00000  Uiso   1.00
N1550  N     0.16667   0.38093   0.75000   0.00000  Uiso   1.00
O1551  O     0.10559   0.53821   0.74999   0.00000  Uiso   1.00
O1552  O     0.22774   0.46179   0.75000   0.00000  Uiso   1.00
O1553  O     0.22774   0.53821   0.75000   0.00000  Uiso   1.00
O1554  O     0.10559   0.46179   0.74999   0.00000  Uiso   1.00
O1555  O     0.16666   0.53823   0.68392   0.00000  Uiso   1.00
O1556  O     0.16667   0.46177   0.81607   0.00000  Uiso   1.00
O1557  O     0.16667   0.53823   0.81607   0.00000  Uiso   1.00
O1558  O     0.16666   0.46177   0.68392   0.00000  Uiso   1.00
Zn1559 Zn    0.16667   0.55104   0.75000   0.00000  Uiso   1.00
Zn1560 Zn    0.16667   0.44896   0.75000   0.00000  Uiso   1.00
C1561  C     0.08766   0.47489   0.88123   0.00000  Uiso   1.00
C1562  C     0.05716   0.51353   0.88187   0.00000  Uiso   1.00
H1563  H     0.04436   0.52008   0.91608   0.00000  Uiso   1.00
H1564  H     0.07284   0.54429   0.87058   0.00000  Uiso   1.00
H1565  H     0.03135   0.50546   0.85888   0.00000  Uiso   1.00
H1566  H     0.09437   0.46577   0.84563   0.00000  Uiso   1.00
H1567  H     0.07315   0.44436   0.89482   0.00000  Uiso   1.00
C1568  C     0.24592   0.51564   0.61773   0.00000  Uiso   1.00
C1569  C     0.27443   0.47521   0.61448   0.00000  Uiso   1.00
H1570  H     0.26061   0.44697   0.63272   0.00000  Uiso   1.00
H1571  H     0.28032   0.46443   0.57907   0.00000  Uiso   1.00
H1572  H     0.30432   0.48379   0.63028   0.00000  Uiso   1.00
H1573  H     0.26165   0.54560   0.60467   0.00000  Uiso   1.00
H1574  H     0.24063   0.52351   0.65383   0.00000  Uiso   1.00
O1575  O     0.04191   0.42114   0.72229   0.00000  Uiso   1.00
C1576  C     0.04821   0.41975   0.67509   0.00000  Uiso   1.00
H1577  H     0.08056   0.41008   0.66821   0.00000  Uiso   1.00
H1578  H     0.04373   0.45232   0.65831   0.00000  Uiso   1.00
C1579  C     0.02016   0.38464   0.65343   0.00000  Uiso   1.00
H1580  H     0.32081   0.39459   0.65753   0.00000  Uiso   1.00
H1581  H     0.02745   0.38116   0.61699   0.00000  Uiso   1.00
H1582  H     0.02479   0.35199   0.66930   0.00000  Uiso   1.00
O1583  O     0.29195   0.57928   0.72530   0.00000  Uiso   1.00
C1584  C     0.30547   0.59252   0.68215   0.00000  Uiso   1.00
H1585  H     0.31117   0.56348   0.65875   0.00000  Uiso   1.00
H1586  H     0.00102   0.61227   0.68460   0.00000  Uiso   1.00
C1587  C     0.27332   0.62204   0.66167   0.00000  Uiso   1.00
H1588  H     0.27270   0.65498   0.67954   0.00000  Uiso   1.00
H1589  H     0.28110   0.62758   0.62583   0.00000  Uiso   1.00
H1590  H     0.24248   0.60604   0.66402   0.00000  Uiso   1.00
O1591  O     0.29265   0.41843   0.73741   0.00000  Uiso   1.00
C1592  C     0.29802   0.39641   0.77824   0.00000  Uiso   1.00
H1593  H     0.27888   0.41273   0.80498   0.00000  Uiso   1.00
H1594  H     0.33053   0.39675   0.78969   0.00000  Uiso   1.00
C1595  C     0.28499   0.34794   0.77178   0.00000  Uiso   1.00
H1596  H     0.30754   0.66382   0.74964   0.00000  Uiso   1.00
H1597  H     0.28310   0.66475   0.80467   0.00000  Uiso   1.00
H1598  H     0.25490   0.34563   0.75496   0.00000  Uiso   1.00
O1599  O     0.04211   0.58202   0.74312   0.00000  Uiso   1.00
C1600  C     0.03647   0.60387   0.78528   0.00000  Uiso   1.00
H1601  H     0.05173   0.58491   0.81177   0.00000  Uiso   1.00
H1602  H     0.00337   0.60747   0.79445   0.00000  Uiso   1.00
C1603  C     0.05587   0.65020   0.78371   0.00000  Uiso   1.00
H1604  H     0.04368   0.33562   0.75525   0.00000  Uiso   1.00
H1605  H     0.04961   0.33571   0.81567   0.00000  Uiso   1.00
H1606  H     0.08944   0.64726   0.77858   0.00000  Uiso   1.00
O1607  O     0.20676   0.38352   0.81463   0.00000  Uiso   1.00
C1608  C     0.20052   0.37801   0.86104   0.00000  Uiso   1.00
H1609  H     0.20927   0.34432   0.87149   0.00000  Uiso   1.00
H1610  H     0.16831   0.38643   0.87099   0.00000  Uiso   1.00
C1611  C     0.22989   0.40906   0.88648   0.00000  Uiso   1.00
H1612  H     0.23234   0.44160   0.86985   0.00000  Uiso   1.00
H1613  H     0.21899   0.41424   0.92172   0.00000  Uiso   1.00
H1614  H     0.26118   0.39428   0.88671   0.00000  Uiso   1.00
O1615  O     0.12199   0.61869   0.68831   0.00000  Uiso   1.00
C1616  C     0.13150   0.61625   0.64184   0.00000  Uiso   1.00
H1617  H     0.12852   0.58091   0.63043   0.00000  Uiso   1.00
H1618  H     0.16338   0.62601   0.63299   0.00000  Uiso   1.00
C1619  C     0.09963   0.64122   0.61516   0.00000  Uiso   1.00
H1620  H     0.10019   0.34411   0.62331   0.00000  Uiso   1.00
H1621  H     0.10610   0.63634   0.57866   0.00000  Uiso   1.00
H1622  H     0.06837   0.62793   0.62262   0.00000  Uiso   1.00
O1623  O     0.15287   0.37570   0.67179   0.00000  Uiso   1.00
C1624  C     0.19272   0.37494   0.65162   0.00000  Uiso   1.00
H1625  H     0.20881   0.34288   0.65595   0.00000  Uiso   1.00
H1626  H     0.21258   0.40127   0.66702   0.00000  Uiso   1.00
C1627  C     0.18979   0.38173   0.60126   0.00000  Uiso   1.00
H1628  H     0.16915   0.40978   0.59438   0.00000  Uiso   1.00
H1629  H     0.22079   0.38878   0.58696   0.00000  Uiso   1.00
H1630  H     0.17735   0.35129   0.58410   0.00000  Uiso   1.00
O1631  O     0.18048   0.62302   0.82802   0.00000  Uiso   1.00
C1632  C     0.14166   0.62567   0.85063   0.00000  Uiso   1.00
H1633  H     0.12073   0.59942   0.83693   0.00000  Uiso   1.00
H1634  H     0.12606   0.65847   0.84706   0.00000  Uiso   1.00
C1635  C     0.14674   0.61888   0.90083   0.00000  Uiso   1.00
H1636  H     0.15313   0.65128   0.91850   0.00000  Uiso   1.00
H1637  H     0.11807   0.60456   0.91534   0.00000  Uiso   1.00
H1638  H     0.17267   0.59625   0.90699   0.00000  Uiso   1.00
C1639  C     0.42015   0.50005   0.74786   0.00000  Uiso   1.00
C1640  C     0.57999   0.50000   0.74755   0.00000  Uiso   1.00
C1641  C     0.42787   0.47627   0.52670   0.00000  Uiso   1.00
C1642  C     0.57016   0.52228   0.97329   0.00000  Uiso   1.00
C1643  C     0.35499   0.46021   0.73466   0.00000  Uiso   1.00
C1644  C     0.64570   0.54063   0.73658   0.00000  Uiso   1.00
C1645  C     0.64601   0.45926   0.73986   0.00000  Uiso   1.00
C1646  C     0.35473   0.54143   0.74289   0.00000  Uiso   1.00
C1647  C     0.62434   0.49997   0.74182   0.00000  Uiso   1.00
C1648  C     0.37613   0.50058   0.74239   0.00000  Uiso   1.00
C1649  C     0.51355   0.35918   0.78677   0.00000  Uiso   1.00
C1650  C     0.48480   0.64106   0.71415   0.00000  Uiso   1.00
C1651  C     0.48867   0.35560   0.71270   0.00000  Uiso   1.00
C1652  C     0.51062   0.64421   0.78772   0.00000  Uiso   1.00
C1653  C     0.50062   0.49948   0.66375   0.00000  Uiso   1.00
C1654  C     0.49825   0.50047   0.83623   0.00000  Uiso   1.00
C1655  C     0.53155   0.51385   0.90593   0.00000  Uiso   1.00
C1656  C     0.46562   0.48872   0.59444   0.00000  Uiso   1.00
C1657  C     0.49586   0.50124   0.88394   0.00000  Uiso   1.00
C1658  C     0.50228   0.49845   0.61606   0.00000  Uiso   1.00
C1659  C     0.45990   0.48760   0.90700   0.00000  Uiso   1.00
C1660  C     0.53922   0.50734   0.59259   0.00000  Uiso   1.00
C1661  C     0.46092   0.48741   0.95434   0.00000  Uiso   1.00
C1662  C     0.53779   0.50857   0.54538   0.00000  Uiso   1.00
C1663  C     0.49809   0.49924   0.97652   0.00000  Uiso   1.00
C1664  C     0.50015   0.49845   0.52341   0.00000  Uiso   1.00
C1665  C     0.53331   0.51198   0.95190   0.00000  Uiso   1.00
C1666  C     0.46444   0.48771   0.54823   0.00000  Uiso   1.00
C1667  C     0.42618   0.47552   0.98026   0.00000  Uiso   1.00
C1668  C     0.57262   0.52013   0.51946   0.00000  Uiso   1.00
H1669  H     0.55855   0.52395   0.88674   0.00000  Uiso   1.00
H1670  H     0.43801   0.48158   0.61393   0.00000  Uiso   1.00
H1671  H     0.39722   0.46586   0.96545   0.00000  Uiso   1.00
H1672  H     0.60210   0.52804   0.53404   0.00000  Uiso   1.00
H1673  H     0.40050   0.46760   0.54586   0.00000  Uiso   1.00
H1674  H     0.59735   0.53168   0.95419   0.00000  Uiso   1.00
N1675  N     0.50000   0.61907   0.75000   0.00000  Uiso   1.00
N1676  N     0.50000   0.38093   0.75000   0.00000  Uiso   1.00
O1677  O     0.43892   0.53821   0.74999   0.00000  Uiso   1.00
O1678  O     0.56108   0.46179   0.75000   0.00000  Uiso   1.00
O1679  O     0.56108   0.53821   0.75000   0.00000  Uiso   1.00
O1680  O     0.43892   0.46179   0.74999   0.00000  Uiso   1.00
O1681  O     0.49999   0.53823   0.68392   0.00000  Uiso   1.00
O1682  O     0.50001   0.46177   0.81607   0.00000  Uiso   1.00
O1683  O     0.50001   0.53823   0.81607   0.00000  Uiso   1.00
O1684  O     0.49999   0.46177   0.68392   0.00000  Uiso   1.00
Zn1685 Zn    0.50000   0.55104   0.75000   0.00000  Uiso   1.00
Zn1686 Zn    0.50000   0.44896   0.75000   0.00000  Uiso   1.00
C1687  C     0.42100   0.47489   0.88123   0.00000  Uiso   1.00
C1688  C     0.39049   0.51353   0.88187   0.00000  Uiso   1.00
H1689  H     0.37770   0.52008   0.91608   0.00000  Uiso   1.00
H1690  H     0.40617   0.54429   0.87058   0.00000  Uiso   1.00
H1691  H     0.36468   0.50546   0.85888   0.00000  Uiso   1.00
H1692  H     0.42770   0.46577   0.84563   0.00000  Uiso   1.00
H1693  H     0.40648   0.44436   0.89482   0.00000  Uiso   1.00
C1694  C     0.57926   0.51564   0.61773   0.00000  Uiso   1.00
C1695  C     0.60777   0.47521   0.61448   0.00000  Uiso   1.00
H1696  H     0.59394   0.44697   0.63272   0.00000  Uiso   1.00
H1697  H     0.61365   0.46443   0.57907   0.00000  Uiso   1.00
H1698  H     0.63765   0.48379   0.63028   0.00000  Uiso   1.00
H1699  H     0.59499   0.54560   0.60467   0.00000  Uiso   1.00
H1700  H     0.57396   0.52351   0.65383   0.00000  Uiso   1.00
O1701  O     0.37524   0.42114   0.72229   0.00000  Uiso   1.00
C1702  C     0.38154   0.41975   0.67509   0.00000  Uiso   1.00
H1703  H     0.41390   0.41008   0.66821   0.00000  Uiso   1.00
H1704  H     0.37707   0.45232   0.65831   0.00000  Uiso   1.00
C1705  C     0.35350   0.38464   0.65343   0.00000  Uiso   1.00
H1706  H     0.65415   0.39459   0.65753   0.00000  Uiso   1.00
H1707  H     0.36078   0.38116   0.61699   0.00000  Uiso   1.00
H1708  H     0.35813   0.35199   0.66930   0.00000  Uiso   1.00
O1709  O     0.62528   0.57928   0.72530   0.00000  Uiso   1.00
C1710  C     0.63881   0.59252   0.68215   0.00000  Uiso   1.00
H1711  H     0.64450   0.56348   0.65875   0.00000  Uiso   1.00
H1712  H     0.33435   0.61227   0.68460   0.00000  Uiso   1.00
C1713  C     0.60665   0.62204   0.66167   0.00000  Uiso   1.00
H1714  H     0.60604   0.65498   0.67954   0.00000  Uiso   1.00
H1715  H     0.61443   0.62758   0.62583   0.00000  Uiso   1.00
H1716  H     0.57581   0.60604   0.66402   0.00000  Uiso   1.00
O1717  O     0.62598   0.41843   0.73741   0.00000  Uiso   1.00
C1718  C     0.63136   0.39641   0.77824   0.00000  Uiso   1.00
H1719  H     0.61221   0.41273   0.80498   0.00000  Uiso   1.00
H1720  H     0.66386   0.39675   0.78969   0.00000  Uiso   1.00
C1721  C     0.61832   0.34794   0.77178   0.00000  Uiso   1.00
H1722  H     0.64087   0.66382   0.74964   0.00000  Uiso   1.00
H1723  H     0.61643   0.66475   0.80467   0.00000  Uiso   1.00
H1724  H     0.58824   0.34563   0.75496   0.00000  Uiso   1.00
O1725  O     0.37545   0.58202   0.74312   0.00000  Uiso   1.00
C1726  C     0.36980   0.60387   0.78528   0.00000  Uiso   1.00
H1727  H     0.38507   0.58491   0.81177   0.00000  Uiso   1.00
H1728  H     0.33670   0.60747   0.79445   0.00000  Uiso   1.00
C1729  C     0.38920   0.65020   0.78371   0.00000  Uiso   1.00
H1730  H     0.37701   0.33562   0.75525   0.00000  Uiso   1.00
H1731  H     0.38294   0.33571   0.81567   0.00000  Uiso   1.00
H1732  H     0.42278   0.64726   0.77858   0.00000  Uiso   1.00
O1733  O     0.54010   0.38352   0.81463   0.00000  Uiso   1.00
C1734  C     0.53386   0.37801   0.86104   0.00000  Uiso   1.00
H1735  H     0.54261   0.34432   0.87149   0.00000  Uiso   1.00
H1736  H     0.50165   0.38643   0.87099   0.00000  Uiso   1.00
C1737  C     0.56322   0.40906   0.88648   0.00000  Uiso   1.00
H1738  H     0.56568   0.44160   0.86985   0.00000  Uiso   1.00
H1739  H     0.55233   0.41424   0.92172   0.00000  Uiso   1.00
H1740  H     0.59452   0.39428   0.88671   0.00000  Uiso   1.00
O1741  O     0.45532   0.61869   0.68831   0.00000  Uiso   1.00
C1742  C     0.46484   0.61625   0.64184   0.00000  Uiso   1.00
H1743  H     0.46185   0.58091   0.63043   0.00000  Uiso   1.00
H1744  H     0.49671   0.62601   0.63299   0.00000  Uiso   1.00
C1745  C     0.43296   0.64122   0.61516   0.00000  Uiso   1.00
H1746  H     0.43352   0.34411   0.62331   0.00000  Uiso   1.00
H1747  H     0.43943   0.63634   0.57866   0.00000  Uiso   1.00
H1748  H     0.40170   0.62793   0.62262   0.00000  Uiso   1.00
O1749  O     0.48620   0.37570   0.67179   0.00000  Uiso   1.00
C1750  C     0.52606   0.37494   0.65162   0.00000  Uiso   1.00
H1751  H     0.54214   0.34288   0.65595   0.00000  Uiso   1.00
H1752  H     0.54592   0.40127   0.66702   0.00000  Uiso   1.00
C1753  C     0.52312   0.38173   0.60126   0.00000  Uiso   1.00
H1754  H     0.50249   0.40978   0.59438   0.00000  Uiso   1.00
H1755  H     0.55413   0.38878   0.58696   0.00000  Uiso   1.00
H1756  H     0.51068   0.35129   0.58410   0.00000  Uiso   1.00
O1757  O     0.51381   0.62302   0.82802   0.00000  Uiso   1.00
C1758  C     0.47499   0.62567   0.85063   0.00000  Uiso   1.00
H1759  H     0.45406   0.59942   0.83693   0.00000  Uiso   1.00
H1760  H     0.45939   0.65847   0.84706   0.00000  Uiso   1.00
C1761  C     0.48007   0.61888   0.90083   0.00000  Uiso   1.00
H1762  H     0.48646   0.65128   0.91850   0.00000  Uiso   1.00
H1763  H     0.45140   0.60456   0.91534   0.00000  Uiso   1.00
H1764  H     0.50600   0.59625   0.90699   0.00000  Uiso   1.00
C1765  C     0.75349   0.50005   0.74786   0.00000  Uiso   1.00
C1766  C     0.91332   0.50000   0.74755   0.00000  Uiso   1.00
C1767  C     0.76120   0.47627   0.52670   0.00000  Uiso   1.00
C1768  C     0.90350   0.52228   0.97329   0.00000  Uiso   1.00
C1769  C     0.68832   0.46021   0.73466   0.00000  Uiso   1.00
C1770  C     0.97904   0.54063   0.73658   0.00000  Uiso   1.00
C1771  C     0.97934   0.45926   0.73986   0.00000  Uiso   1.00
C1772  C     0.68807   0.54143   0.74289   0.00000  Uiso   1.00
C1773  C     0.95767   0.49997   0.74182   0.00000  Uiso   1.00
C1774  C     0.70946   0.50058   0.74239   0.00000  Uiso   1.00
C1775  C     0.84688   0.35918   0.78677   0.00000  Uiso   1.00
C1776  C     0.81814   0.64106   0.71415   0.00000  Uiso   1.00
C1777  C     0.82201   0.35560   0.71270   0.00000  Uiso   1.00
C1778  C     0.84395   0.64421   0.78772   0.00000  Uiso   1.00
C1779  C     0.83395   0.49948   0.66375   0.00000  Uiso   1.00
C1780  C     0.83158   0.50047   0.83623   0.00000  Uiso   1.00
C1781  C     0.86489   0.51385   0.90593   0.00000  Uiso   1.00
C1782  C     0.79895   0.48872   0.59444   0.00000  Uiso   1.00
C1783  C     0.82920   0.50124   0.88394   0.00000  Uiso   1.00
C1784  C     0.83561   0.49845   0.61606   0.00000  Uiso   1.00
C1785  C     0.79324   0.48760   0.90700   0.00000  Uiso   1.00
C1786  C     0.87255   0.50734   0.59259   0.00000  Uiso   1.00
C1787  C     0.79425   0.48741   0.95434   0.00000  Uiso   1.00
C1788  C     0.87113   0.50857   0.54538   0.00000  Uiso   1.00
C1789  C     0.83142   0.49924   0.97652   0.00000  Uiso   1.00
C1790  C     0.83348   0.49845   0.52341   0.00000  Uiso   1.00
C1791  C     0.86664   0.51198   0.95190   0.00000  Uiso   1.00
C1792  C     0.79777   0.48771   0.54823   0.00000  Uiso   1.00
C1793  C     0.75952   0.47552   0.98026   0.00000  Uiso   1.00
C1794  C     0.90595   0.52013   0.51946   0.00000  Uiso   1.00
H1795  H     0.89189   0.52395   0.88674   0.00000  Uiso   1.00
H1796  H     0.77135   0.48158   0.61393   0.00000  Uiso   1.00
H1797  H     0.73056   0.46586   0.96545   0.00000  Uiso   1.00
H1798  H     0.93543   0.52804   0.53404   0.00000  Uiso   1.00
H1799  H     0.73384   0.46760   0.54586   0.00000  Uiso   1.00
H1800  H     0.93068   0.53168   0.95419   0.00000  Uiso   1.00
N1801  N     0.83333   0.61907   0.75000   0.00000  Uiso   1.00
N1802  N     0.83333   0.38093   0.75000   0.00000  Uiso   1.00
O1803  O     0.77226   0.53821   0.74999   0.00000  Uiso   1.00
O1804  O     0.89441   0.46179   0.75000   0.00000  Uiso   1.00
O1805  O     0.89441   0.53821   0.75000   0.00000  Uiso   1.00
O1806  O     0.77226   0.46179   0.74999   0.00000  Uiso   1.00
O1807  O     0.83333   0.53823   0.68392   0.00000  Uiso   1.00
O1808  O     0.83334   0.46177   0.81607   0.00000  Uiso   1.00
O1809  O     0.83334   0.53823   0.81607   0.00000  Uiso   1.00
O1810  O     0.83333   0.46177   0.68392   0.00000  Uiso   1.00
Zn1811 Zn    0.83333   0.55104   0.75000   0.00000  Uiso   1.00
Zn1812 Zn    0.83333   0.44896   0.75000   0.00000  Uiso   1.00
C1813  C     0.75433   0.47489   0.88123   0.00000  Uiso   1.00
C1814  C     0.72383   0.51353   0.88187   0.00000  Uiso   1.00
H1815  H     0.71103   0.52008   0.91608   0.00000  Uiso   1.00
H1816  H     0.73950   0.54429   0.87058   0.00000  Uiso   1.00
H1817  H     0.69801   0.50546   0.85888   0.00000  Uiso   1.00
H1818  H     0.76104   0.46577   0.84563   0.00000  Uiso   1.00
H1819  H     0.73981   0.44436   0.89482   0.00000  Uiso   1.00
C1820  C     0.91259   0.51564   0.61773   0.00000  Uiso   1.00
C1821  C     0.94110   0.47521   0.61448   0.00000  Uiso   1.00
H1822  H     0.92727   0.44697   0.63272   0.00000  Uiso   1.00
H1823  H     0.94699   0.46443   0.57907   0.00000  Uiso   1.00
H1824  H     0.97099   0.48379   0.63028   0.00000  Uiso   1.00
H1825  H     0.92832   0.54560   0.60467   0.00000  Uiso   1.00
H1826  H     0.90729   0.52351   0.65383   0.00000  Uiso   1.00
O1827  O     0.70857   0.42114   0.72229   0.00000  Uiso   1.00
C1828  C     0.71487   0.41975   0.67509   0.00000  Uiso   1.00
H1829  H     0.74723   0.41008   0.66821   0.00000  Uiso   1.00
H1830  H     0.71040   0.45232   0.65831   0.00000  Uiso   1.00
C1831  C     0.68683   0.38464   0.65343   0.00000  Uiso   1.00
H1832  H     0.98748   0.39459   0.65753   0.00000  Uiso   1.00
H1833  H     0.69412   0.38116   0.61699   0.00000  Uiso   1.00
H1834  H     0.69146   0.35199   0.66930   0.00000  Uiso   1.00
O1835  O     0.95861   0.57928   0.72530   0.00000  Uiso   1.00
C1836  C     0.97214   0.59252   0.68215   0.00000  Uiso   1.00
H1837  H     0.97784   0.56348   0.65875   0.00000  Uiso   1.00
H1838  H     0.66769   0.61227   0.68460   0.00000  Uiso   1.00
C1839  C     0.93998   0.62204   0.66167   0.00000  Uiso   1.00
H1840  H     0.93937   0.65498   0.67954   0.00000  Uiso   1.00
H1841  H     0.94776   0.62758   0.62583   0.00000  Uiso   1.00
H1842  H     0.90914   0.60604   0.66402   0.00000  Uiso   1.00
O1843  O     0.95932   0.41843   0.73741   0.00000  Uiso   1.00
C1844  C     0.96469   0.39641   0.77824   0.00000  Uiso   1.00
H1845  H     0.94555   0.41273   0.80498   0.00000  Uiso   1.00
H1846  H     0.99720   0.39675   0.78969   0.00000  Uiso   1.00
C1847  C     0.95165   0.34794   0.77178   0.00000  Uiso   1.00
H1848  H     0.97420   0.66382   0.74964   0.00000  Uiso   1.00
H1849  H     0.94976   0.66475   0.80467   0.00000  Uiso   1.00
H1850  H     0.92157   0.34563   0.75496   0.00000  Uiso   1.00
O1851  O     0.70878   0.58202   0.74312   0.00000  Uiso   1.00
C1852  C     0.70314   0.60387   0.78528   0.00000  Uiso   1.00
H1853  H     0.71840   0.58491   0.81177   0.00000  Uiso   1.00
H1854  H     0.67004   0.60747   0.79445   0.00000  Uiso   1.00
C1855  C     0.72254   0.65020   0.78371   0.00000  Uiso   1.00
H1856  H     0.71035   0.33562   0.75525   0.00000  Uiso   1.00
H1857  H     0.71628   0.33571   0.81567   0.00000  Uiso   1.00
H1858  H     0.75611   0.64726   0.77858   0.00000  Uiso   1.00
O1859  O     0.87343   0.38352   0.81463   0.00000  Uiso   1.00
C1860  C     0.86719   0.37801   0.86104   0.00000  Uiso   1.00
H1861  H     0.87594   0.34432   0.87149   0.00000  Uiso   1.00
H1862  H     0.83498   0.38643   0.87099   0.00000  Uiso   1.00
C1863  C     0.89655   0.40906   0.88648   0.00000  Uiso   1.00
H1864  H     0.89901   0.44160   0.86985   0.00000  Uiso   1.00
H1865  H     0.88566   0.41424   0.92172   0.00000  Uiso   1.00
H1866  H     0.92785   0.39428   0.88671   0.00000  Uiso   1.00
O1867  O     0.78866   0.61869   0.68831   0.00000  Uiso   1.00
C1868  C     0.79817   0.61625   0.64184   0.00000  Uiso   1.00
H1869  H     0.79518   0.58091   0.63043   0.00000  Uiso   1.00
H1870  H     0.83005   0.62601   0.63299   0.00000  Uiso   1.00
C1871  C     0.76630   0.64122   0.61516   0.00000  Uiso   1.00
H1872  H     0.76685   0.34411   0.62331   0.00000  Uiso   1.00
H1873  H     0.77277   0.63634   0.57866   0.00000  Uiso   1.00
H1874  H     0.73503   0.62793   0.62262   0.00000  Uiso   1.00
O1875  O     0.81954   0.37570   0.67179   0.00000  Uiso   1.00
C1876  C     0.85939   0.37494   0.65162   0.00000  Uiso   1.00
H1877  H     0.87547   0.34288   0.65595   0.00000  Uiso   1.00
H1878  H     0.87925   0.40127   0.66702   0.00000  Uiso   1.00
C1879  C     0.85646   0.38173   0.60126   0.00000  Uiso   1.00
H1880  H     0.83582   0.40978   0.59438   0.00000  Uiso   1.00
H1881  H     0.88746   0.38878   0.58696   0.00000  Uiso   1.00
H1882  H     0.84402   0.35129   0.58410   0.00000  Uiso   1.00
O1883  O     0.84714   0.62302   0.82802   0.00000  Uiso   1.00
C1884  C     0.80833   0.62567   0.85063   0.00000  Uiso   1.00
H1885  H     0.78739   0.59942   0.83693   0.00000  Uiso   1.00
H1886  H     0.79272   0.65847   0.84706   0.00000  Uiso   1.00
C1887  C     0.81341   0.61888   0.90083   0.00000  Uiso   1.00
H1888  H     0.81979   0.65128   0.91850   0.00000  Uiso   1.00
H1889  H     0.78474   0.60456   0.91534   0.00000  Uiso   1.00
H1890  H     0.83934   0.59625   0.90699   0.00000  Uiso   1.00
C1891  C     0.08682   0.83338   0.74786   0.00000  Uiso   1.00
C1892  C     0.24666   0.83333   0.74755   0.00000  Uiso   1.00
C1893  C     0.09454   0.80960   0.52670   0.00000  Uiso   1.00
C1894  C     0.23683   0.85562   0.97329   0.00000  Uiso   1.00
C1895  C     0.02166   0.79355   0.73466   0.00000  Uiso   1.00
C1896  C     0.31237   0.87396   0.73658   0.00000  Uiso   1.00
C1897  C     0.31267   0.79259   0.73986   0.00000  Uiso   1.00
C1898  C     0.02140   0.87477   0.74289   0.00000  Uiso   1.00
C1899  C     0.29100   0.83331   0.74182   0.00000  Uiso   1.00
C1900  C     0.04280   0.83392   0.74239   0.00000  Uiso   1.00
C1901  C     0.18022   0.69251   0.78677   0.00000  Uiso   1.00
C1902  C     0.15147   0.97440   0.71415   0.00000  Uiso   1.00
C1903  C     0.15534   0.68893   0.71270   0.00000  Uiso   1.00
C1904  C     0.17728   0.97755   0.78772   0.00000  Uiso   1.00
C1905  C     0.16729   0.83281   0.66375   0.00000  Uiso   1.00
C1906  C     0.16492   0.83380   0.83623   0.00000  Uiso   1.00
C1907  C     0.19822   0.84718   0.90593   0.00000  Uiso   1.00
C1908  C     0.13229   0.82206   0.59444   0.00000  Uiso   1.00
C1909  C     0.16253   0.83457   0.88394   0.00000  Uiso   1.00
C1910  C     0.16894   0.83178   0.61606   0.00000  Uiso   1.00
C1911  C     0.12657   0.82093   0.90700   0.00000  Uiso   1.00
C1912  C     0.20589   0.84068   0.59259   0.00000  Uiso   1.00
C1913  C     0.12759   0.82074   0.95434   0.00000  Uiso   1.00
C1914  C     0.20446   0.84190   0.54538   0.00000  Uiso   1.00
C1915  C     0.16476   0.83257   0.97652   0.00000  Uiso   1.00
C1916  C     0.16681   0.83178   0.52341   0.00000  Uiso   1.00
C1917  C     0.19998   0.84532   0.95190   0.00000  Uiso   1.00
C1918  C     0.13111   0.82105   0.54823   0.00000  Uiso   1.00
C1919  C     0.09285   0.80885   0.98026   0.00000  Uiso   1.00
C1920  C     0.23928   0.85347   0.51946   0.00000  Uiso   1.00
H1921  H     0.22522   0.85728   0.88674   0.00000  Uiso   1.00
H1922  H     0.10468   0.81491   0.61393   0.00000  Uiso   1.00
H1923  H     0.06389   0.79919   0.96545   0.00000  Uiso   1.00
H1924  H     0.26876   0.86137   0.53404   0.00000  Uiso   1.00
H1925  H     0.06717   0.80093   0.54586   0.00000  Uiso   1.00
H1926  H     0.26401   0.86502   0.95419   0.00000  Uiso   1.00
N1927  N     0.16667   0.95240   0.75000   0.00000  Uiso   1.00
N1928  N     0.16667   0.71427   0.75000   0.00000  Uiso   1.00
O1929  O     0.10559   0.87154   0.74999   0.00000  Uiso   1.00
O1930  O     0.22774   0.79513   0.75000   0.00000  Uiso   1.00
O1931  O     0.22774   0.87154   0.75000   0.00000  Uiso   1.00
O1932  O     0.10559   0.79513   0.74999   0.00000  Uiso   1.00
O1933  O     0.16666   0.87156   0.68392   0.00000  Uiso   1.00
O1934  O     0.16667   0.79511   0.81607   0.00000  Uiso   1.00
O1935  O     0.16667   0.87156   0.81607   0.00000  Uiso   1.00
O1936  O     0.16666   0.79511   0.68392   0.00000  Uiso   1.00
Zn1937 Zn    0.16667   0.88437   0.75000   0.00000  Uiso   1.00
Zn1938 Zn    0.16667   0.78229   0.75000   0.00000  Uiso   1.00
C1939  C     0.08766   0.80822   0.88123   0.00000  Uiso   1.00
C1940  C     0.05716   0.84687   0.88187   0.00000  Uiso   1.00
H1941  H     0.04436   0.85341   0.91608   0.00000  Uiso   1.00
H1942  H     0.07284   0.87763   0.87058   0.00000  Uiso   1.00
H1943  H     0.03135   0.83879   0.85888   0.00000  Uiso   1.00
H1944  H     0.09437   0.79911   0.84563   0.00000  Uiso   1.00
H1945  H     0.07315   0.77769   0.89482   0.00000  Uiso   1.00
C1946  C     0.24592   0.84897   0.61773   0.00000  Uiso   1.00
C1947  C     0.27443   0.80854   0.61448   0.00000  Uiso   1.00
H1948  H     0.26061   0.78031   0.63272   0.00000  Uiso   1.00
H1949  H     0.28032   0.79777   0.57907   0.00000  Uiso   1.00
H1950  H     0.30432   0.81712   0.63028   0.00000  Uiso   1.00
H1951  H     0.26165   0.87893   0.60467   0.00000  Uiso   1.00
H1952  H     0.24063   0.85685   0.65383   0.00000  Uiso   1.00
O1953  O     0.04191   0.75448   0.72229   0.00000  Uiso   1.00
C1954  C     0.04821   0.75308   0.67509   0.00000  Uiso   1.00
H1955  H     0.08056   0.74341   0.66821   0.00000  Uiso   1.00
H1956  H     0.04373   0.78565   0.65831   0.00000  Uiso   1.00
C1957  C     0.02016   0.71798   0.65343   0.00000  Uiso   1.00
H1958  H     0.32081   0.72792   0.65753   0.00000  Uiso   1.00
H1959  H     0.02745   0.71449   0.61699   0.00000  Uiso   1.00
H1960  H     0.02479   0.68532   0.66930   0.00000  Uiso   1.00
O1961  O     0.29195   0.91262   0.72530   0.00000  Uiso   1.00
C1962  C     0.30547   0.92585   0.68215   0.00000  Uiso   1.00
H1963  H     0.31117   0.89681   0.65875   0.00000  Uiso   1.00
H1964  H     0.00102   0.94560   0.68460   0.00000  Uiso   1.00
C1965  C     0.27332   0.95537   0.66167   0.00000  Uiso   1.00
H1966  H     0.27270   0.98831   0.67954   0.00000  Uiso   1.00
H1967  H     0.28110   0.96091   0.62583   0.00000  Uiso   1.00
H1968  H     0.24248   0.93937   0.66402   0.00000  Uiso   1.00
O1969  O     0.29265   0.75177   0.73741   0.00000  Uiso   1.00
C1970  C     0.29802   0.72975   0.77824   0.00000  Uiso   1.00
H1971  H     0.27888   0.74606   0.80498   0.00000  Uiso   1.00
H1972  H     0.33053   0.73008   0.78969   0.00000  Uiso   1.00
C1973  C     0.28499   0.68128   0.77178   0.00000  Uiso   1.00
H1974  H     0.30754   0.99716   0.74964   0.00000  Uiso   1.00
H1975  H     0.28310   0.99808   0.80467   0.00000  Uiso   1.00
H1976  H     0.25490   0.67896   0.75496   0.00000  Uiso   1.00
O1977  O     0.04211   0.91535   0.74312   0.00000  Uiso   1.00
C1978  C     0.03647   0.93720   0.78528   0.00000  Uiso   1.00
H1979  H     0.05173   0.91825   0.81177   0.00000  Uiso   1.00
H1980  H     0.00337   0.94080   0.79445   0.00000  Uiso   1.00
C1981  C     0.05587   0.98353   0.78371   0.00000  Uiso   1.00
H1982  H     0.04368   0.66896   0.75525   0.00000  Uiso   1.00
H1983  H     0.04961   0.66904   0.81567   0.00000  Uiso   1.00
H1984  H     0.08944   0.98059   0.77858   0.00000  Uiso   1.00
O1985  O     0.20676   0.71685   0.81463   0.00000  Uiso   1.00
C1986  C     0.20052   0.71134   0.86104   0.00000  Uiso   1.00
H1987  H     0.20927   0.67765   0.87149   0.00000  Uiso   1.00
H1988  H     0.16831   0.71976   0.87099   0.00000  Uiso   1.00
C1989  C     0.22989   0.74239   0.88648   0.00000  Uiso   1.00
H1990  H     0.23234   0.77493   0.86985   0.00000  Uiso   1.00
H1991  H     0.21899   0.74757   0.92172   0.00000  Uiso   1.00
H1992  H     0.26118   0.72761   0.88671   0.00000  Uiso   1.00
O1993  O     0.12199   0.95203   0.68831   0.00000  Uiso   1.00
C1994  C     0.13150   0.94958   0.64184   0.00000  Uiso   1.00
H1995  H     0.12852   0.91424   0.63043   0.00000  Uiso   1.00
H1996  H     0.16338   0.95935   0.63299   0.00000  Uiso   1.00
C1997  C     0.09963   0.97455   0.61516   0.00000  Uiso   1.00
H1998  H     0.10019   0.67745   0.62331   0.00000  Uiso   1.00
H1999  H     0.10610   0.96968   0.57866   0.00000  Uiso   1.00
H2000  H     0.06837   0.96126   0.62262   0.00000  Uiso   1.00
O2001  O     0.15287   0.70903   0.67179   0.00000  Uiso   1.00
C2002  C     0.19272   0.70828   0.65162   0.00000  Uiso   1.00
H2003  H     0.20881   0.67621   0.65595   0.00000  Uiso   1.00
H2004  H     0.21258   0.73460   0.66702   0.00000  Uiso   1.00
C2005  C     0.18979   0.71506   0.60126   0.00000  Uiso   1.00
H2006  H     0.16915   0.74312   0.59438   0.00000  Uiso   1.00
H2007  H     0.22079   0.72212   0.58696   0.00000  Uiso   1.00
H2008  H     0.17735   0.68463   0.58410   0.00000  Uiso   1.00
O2009  O     0.18048   0.95636   0.82802   0.00000  Uiso   1.00
C2010  C     0.14166   0.95900   0.85063   0.00000  Uiso   1.00
H2011  H     0.12073   0.93275   0.83693   0.00000  Uiso   1.00
H2012  H     0.12606   0.99180   0.84706   0.00000  Uiso   1.00
C2013  C     0.14674   0.95221   0.90083   0.00000  Uiso   1.00
H2014  H     0.15313   0.98461   0.91850   0.00000  Uiso   1.00
H2015  H     0.11807   0.93789   0.91534   0.00000  Uiso   1.00
H2016  H     0.17267   0.92958   0.90699   0.00000  Uiso   1.00
C2017  C     0.42015   0.83338   0.74786   0.00000  Uiso   1.00
C2018  C     0.57999   0.83333   0.74755   0.00000  Uiso   1.00
C2019  C     0.42787   0.80960   0.52670   0.00000  Uiso   1.00
C2020  C     0.57016   0.85562   0.97329   0.00000  Uiso   1.00
C2021  C     0.35499   0.79355   0.73466   0.00000  Uiso   1.00
C2022  C     0.64570   0.87396   0.73658   0.00000  Uiso   1.00
C2023  C     0.64601   0.79259   0.73986   0.00000  Uiso   1.00
C2024  C     0.35473   0.87477   0.74289   0.00000  Uiso   1.00
C2025  C     0.62434   0.83331   0.74182   0.00000  Uiso   1.00
C2026  C     0.37613   0.83392   0.74239   0.00000  Uiso   1.00
C2027  C     0.51355   0.69251   0.78677   0.00000  Uiso   1.00
C2028  C     0.48480   0.97440   0.71415   0.00000  Uiso   1.00
C2029  C     0.48867   0.68893   0.71270   0.00000  Uiso   1.00
C2030  C     0.51062   0.97755   0.78772   0.00000  Uiso   1.00
C2031  C     0.50062   0.83281   0.66375   0.00000  Uiso   1.00
C2032  C     0.49825   0.83380   0.83623   0.00000  Uiso   1.00
C2033  C     0.53155   0.84718   0.90593   0.00000  Uiso   1.00
C2034  C     0.46562   0.82206   0.59444   0.00000  Uiso   1.00
C2035  C     0.49586   0.83457   0.88394   0.00000  Uiso   1.00
C2036  C     0.50228   0.83178   0.61606   0.00000  Uiso   1.00
C2037  C     0.45990   0.82093   0.90700   0.00000  Uiso   1.00
C2038  C     0.53922   0.84068   0.59259   0.00000  Uiso   1.00
C2039  C     0.46092   0.82074   0.95434   0.00000  Uiso   1.00
C2040  C     0.53779   0.84190   0.54538   0.00000  Uiso   1.00
C2041  C     0.49809   0.83257   0.97652   0.00000  Uiso   1.00
C2042  C     0.50015   0.83178   0.52341   0.00000  Uiso   1.00
C2043  C     0.53331   0.84532   0.95190   0.00000  Uiso   1.00
C2044  C     0.46444   0.82105   0.54823   0.00000  Uiso   1.00
C2045  C     0.42618   0.80885   0.98026   0.00000  Uiso   1.00
C2046  C     0.57262   0.85347   0.51946   0.00000  Uiso   1.00
H2047  H     0.55855   0.85728   0.88674   0.00000  Uiso   1.00
H2048  H     0.43801   0.81491   0.61393   0.00000  Uiso   1.00
H2049  H     0.39722   0.79919   0.96545   0.00000  Uiso   1.00
H2050  H     0.60210   0.86137   0.53404   0.00000  Uiso   1.00
H2051  H     0.40050   0.80093   0.54586   0.00000  Uiso   1.00
H2052  H     0.59735   0.86502   0.95419   0.00000  Uiso   1.00
N2053  N     0.50000   0.95240   0.75000   0.00000  Uiso   1.00
N2054  N     0.50000   0.71427   0.75000   0.00000  Uiso   1.00
O2055  O     0.43892   0.87154   0.74999   0.00000  Uiso   1.00
O2056  O     0.56108   0.79513   0.75000   0.00000  Uiso   1.00
O2057  O     0.56108   0.87154   0.75000   0.00000  Uiso   1.00
O2058  O     0.43892   0.79513   0.74999   0.00000  Uiso   1.00
O2059  O     0.49999   0.87156   0.68392   0.00000  Uiso   1.00
O2060  O     0.50001   0.79511   0.81607   0.00000  Uiso   1.00
O2061  O     0.50001   0.87156   0.81607   0.00000  Uiso   1.00
O2062  O     0.49999   0.79511   0.68392   0.00000  Uiso   1.00
Zn2063 Zn    0.50000   0.88437   0.75000   0.00000  Uiso   1.00
Zn2064 Zn    0.50000   0.78229   0.75000   0.00000  Uiso   1.00
C2065  C     0.42100   0.80822   0.88123   0.00000  Uiso   1.00
C2066  C     0.39049   0.84687   0.88187   0.00000  Uiso   1.00
H2067  H     0.37770   0.85341   0.91608   0.00000  Uiso   1.00
H2068  H     0.40617   0.87763   0.87058   0.00000  Uiso   1.00
H2069  H     0.36468   0.83879   0.85888   0.00000  Uiso   1.00
H2070  H     0.42770   0.79911   0.84563   0.00000  Uiso   1.00
H2071  H     0.40648   0.77769   0.89482   0.00000  Uiso   1.00
C2072  C     0.57926   0.84897   0.61773   0.00000  Uiso   1.00
C2073  C     0.60777   0.80854   0.61448   0.00000  Uiso   1.00
H2074  H     0.59394   0.78031   0.63272   0.00000  Uiso   1.00
H2075  H     0.61365   0.79777   0.57907   0.00000  Uiso   1.00
H2076  H     0.63765   0.81712   0.63028   0.00000  Uiso   1.00
H2077  H     0.59499   0.87893   0.60467   0.00000  Uiso   1.00
H2078  H     0.57396   0.85685   0.65383   0.00000  Uiso   1.00
O2079  O     0.37524   0.75448   0.72229   0.00000  Uiso   1.00
C2080  C     0.38154   0.75308   0.67509   0.00000  Uiso   1.00
H2081  H     0.41390   0.74341   0.66821   0.00000  Uiso   1.00
H2082  H     0.37707   0.78565   0.65831   0.00000  Uiso   1.00
C2083  C     0.35350   0.71798   0.65343   0.00000  Uiso   1.00
H2084  H     0.65415   0.72792   0.65753   0.00000  Uiso   1.00
H2085  H     0.36078   0.71449   0.61699   0.00000  Uiso   1.00
H2086  H     0.35813   0.68532   0.66930   0.00000  Uiso   1.00
O2087  O     0.62528   0.91262   0.72530   0.00000  Uiso   1.00
C2088  C     0.63881   0.92585   0.68215   0.00000  Uiso   1.00
H2089  H     0.64450   0.89681   0.65875   0.00000  Uiso   1.00
H2090  H     0.33435   0.94560   0.68460   0.00000  Uiso   1.00
C2091  C     0.60665   0.95537   0.66167   0.00000  Uiso   1.00
H2092  H     0.60604   0.98831   0.67954   0.00000  Uiso   1.00
H2093  H     0.61443   0.96091   0.62583   0.00000  Uiso   1.00
H2094  H     0.57581   0.93937   0.66402   0.00000  Uiso   1.00
O2095  O     0.62598   0.75177   0.73741   0.00000  Uiso   1.00
C2096  C     0.63136   0.72975   0.77824   0.00000  Uiso   1.00
H2097  H     0.61221   0.74606   0.80498   0.00000  Uiso   1.00
H2098  H     0.66386   0.73008   0.78969   0.00000  Uiso   1.00
C2099  C     0.61832   0.68128   0.77178   0.00000  Uiso   1.00
H2100  H     0.64087   0.99716   0.74964   0.00000  Uiso   1.00
H2101  H     0.61643   0.99808   0.80467   0.00000  Uiso   1.00
H2102  H     0.58824   0.67896   0.75496   0.00000  Uiso   1.00
O2103  O     0.37545   0.91535   0.74312   0.00000  Uiso   1.00
C2104  C     0.36980   0.93720   0.78528   0.00000  Uiso   1.00
H2105  H     0.38507   0.91825   0.81177   0.00000  Uiso   1.00
H2106  H     0.33670   0.94080   0.79445   0.00000  Uiso   1.00
C2107  C     0.38920   0.98353   0.78371   0.00000  Uiso   1.00
H2108  H     0.37701   0.66896   0.75525   0.00000  Uiso   1.00
H2109  H     0.38294   0.66904   0.81567   0.00000  Uiso   1.00
H2110  H     0.42278   0.98059   0.77858   0.00000  Uiso   1.00
O2111  O     0.54010   0.71685   0.81463   0.00000  Uiso   1.00
C2112  C     0.53386   0.71134   0.86104   0.00000  Uiso   1.00
H2113  H     0.54261   0.67765   0.87149   0.00000  Uiso   1.00
H2114  H     0.50165   0.71976   0.87099   0.00000  Uiso   1.00
C2115  C     0.56322   0.74239   0.88648   0.00000  Uiso   1.00
H2116  H     0.56568   0.77493   0.86985   0.00000  Uiso   1.00
H2117  H     0.55233   0.74757   0.92172   0.00000  Uiso   1.00
H2118  H     0.59452   0.72761   0.88671   0.00000  Uiso   1.00
O2119  O     0.45532   0.95203   0.68831   0.00000  Uiso   1.00
C2120  C     0.46484   0.94958   0.64184   0.00000  Uiso   1.00
H2121  H     0.46185   0.91424   0.63043   0.00000  Uiso   1.00
H2122  H     0.49671   0.95935   0.63299   0.00000  Uiso   1.00
C2123  C     0.43296   0.97455   0.61516   0.00000  Uiso   1.00
H2124  H     0.43352   0.67745   0.62331   0.00000  Uiso   1.00
H2125  H     0.43943   0.96968   0.57866   0.00000  Uiso   1.00
H2126  H     0.40170   0.96126   0.62262   0.00000  Uiso   1.00
O2127  O     0.48620   0.70903   0.67179   0.00000  Uiso   1.00
C2128  C     0.52606   0.70828   0.65162   0.00000  Uiso   1.00
H2129  H     0.54214   0.67621   0.65595   0.00000  Uiso   1.00
H2130  H     0.54592   0.73460   0.66702   0.00000  Uiso   1.00
C2131  C     0.52312   0.71506   0.60126   0.00000  Uiso   1.00
H2132  H     0.50249   0.74312   0.59438   0.00000  Uiso   1.00
H2133  H     0.55413   0.72212   0.58696   0.00000  Uiso   1.00
H2134  H     0.51068   0.68463   0.58410   0.00000  Uiso   1.00
O2135  O     0.51381   0.95636   0.82802   0.00000  Uiso   1.00
C2136  C     0.47499   0.95900   0.85063   0.00000  Uiso   1.00
H2137  H     0.45406   0.93275   0.83693   0.00000  Uiso   1.00
H2138  H     0.45939   0.99180   0.84706   0.00000  Uiso   1.00
C2139  C     0.48007   0.95221   0.90083   0.00000  Uiso   1.00
H2140  H     0.48646   0.98461   0.91850   0.00000  Uiso   1.00
H2141  H     0.45140   0.93789   0.91534   0.00000  Uiso   1.00
H2142  H     0.50600   0.92958   0.90699   0.00000  Uiso   1.00
C2143  C     0.75349   0.83338   0.74786   0.00000  Uiso   1.00
C2144  C     0.91332   0.83333   0.74755   0.00000  Uiso   1.00
C2145  C     0.76120   0.80960   0.52670   0.00000  Uiso   1.00
C2146  C     0.90350   0.85562   0.97329   0.00000  Uiso   1.00
C2147  C     0.68832   0.79355   0.73466   0.00000  Uiso   1.00
C2148  C     0.97904   0.87396   0.73658   0.00000  Uiso   1.00
C2149  C     0.97934   0.79259   0.73986   0.00000  Uiso   1.00
C2150  C     0.68807   0.87477   0.74289   0.00000  Uiso   1.00
C2151  C     0.95767   0.83331   0.74182   0.00000  Uiso   1.00
C2152  C     0.70946   0.83392   0.74239   0.00000  Uiso   1.00
C2153  C     0.84688   0.69251   0.78677   0.00000  Uiso   1.00
C2154  C     0.81814   0.97440   0.71415   0.00000  Uiso   1.00
C2155  C     0.82201   0.68893   0.71270   0.00000  Uiso   1.00
C2156  C     0.84395   0.97755   0.78772   0.00000  Uiso   1.00
C2157  C     0.83395   0.83281   0.66375   0.00000  Uiso   1.00
C2158  C     0.83158   0.83380   0.83623   0.00000  Uiso   1.00
C2159  C     0.86489   0.84718   0.90593   0.00000  Uiso   1.00
C2160  C     0.79895   0.82206   0.59444   0.00000  Uiso   1.00
C2161  C     0.82920   0.83457   0.88394   0.00000  Uiso   1.00
C2162  C     0.83561   0.83178   0.61606   0.00000  Uiso   1.00
C2163  C     0.79324   0.82093   0.90700   0.00000  Uiso   1.00
C2164  C     0.87255   0.84068   0.59259   0.00000  Uiso   1.00
C2165  C     0.79425   0.82074   0.95434   0.00000  Uiso   1.00
C2166  C     0.87113   0.84190   0.54538   0.00000  Uiso   1.00
C2167  C     0.83142   0.83257   0.97652   0.00000  Uiso   1.00
C2168  C     0.83348   0.83178   0.52341   0.00000  Uiso   1.00
C2169  C     0.86664   0.84532   0.95190   0.00000  Uiso   1.00
C2170  C     0.79777   0.82105   0.54823   0.00000  Uiso   1.00
C2171  C     0.75952   0.80885   0.98026   0.00000  Uiso   1.00
C2172  C     0.90595   0.85347   0.51946   0.00000  Uiso   1.00
H2173  H     0.89189   0.85728   0.88674   0.00000  Uiso   1.00
H2174  H     0.77135   0.81491   0.61393   0.00000  Uiso   1.00
H2175  H     0.73056   0.79919   0.96545   0.00000  Uiso   1.00
H2176  H     0.93543   0.86137   0.53404   0.00000  Uiso   1.00
H2177  H     0.73384   0.80093   0.54586   0.00000  Uiso   1.00
H2178  H     0.93068   0.86502   0.95419   0.00000  Uiso   1.00
N2179  N     0.83333   0.95240   0.75000   0.00000  Uiso   1.00
N2180  N     0.83333   0.71427   0.75000   0.00000  Uiso   1.00
O2181  O     0.77226   0.87154   0.74999   0.00000  Uiso   1.00
O2182  O     0.89441   0.79513   0.75000   0.00000  Uiso   1.00
O2183  O     0.89441   0.87154   0.75000   0.00000  Uiso   1.00
O2184  O     0.77226   0.79513   0.74999   0.00000  Uiso   1.00
O2185  O     0.83333   0.87156   0.68392   0.00000  Uiso   1.00
O2186  O     0.83334   0.79511   0.81607   0.00000  Uiso   1.00
O2187  O     0.83334   0.87156   0.81607   0.00000  Uiso   1.00
O2188  O     0.83333   0.79511   0.68392   0.00000  Uiso   1.00
Zn2189 Zn    0.83333   0.88437   0.75000   0.00000  Uiso   1.00
Zn2190 Zn    0.83333   0.78229   0.75000   0.00000  Uiso   1.00
C2191  C     0.75433   0.80822   0.88123   0.00000  Uiso   1.00
C2192  C     0.72383   0.84687   0.88187   0.00000  Uiso   1.00
H2193  H     0.71103   0.85341   0.91608   0.00000  Uiso   1.00
H2194  H     0.73950   0.87763   0.87058   0.00000  Uiso   1.00
H2195  H     0.69801   0.83879   0.85888   0.00000  Uiso   1.00
H2196  H     0.76104   0.79911   0.84563   0.00000  Uiso   1.00
H2197  H     0.73981   0.77769   0.89482   0.00000  Uiso   1.00
C2198  C     0.91259   0.84897   0.61773   0.00000  Uiso   1.00
C2199  C     0.94110   0.80854   0.61448   0.00000  Uiso   1.00
H2200  H     0.92727   0.78031   0.63272   0.00000  Uiso   1.00
H2201  H     0.94699   0.79777   0.57907   0.00000  Uiso   1.00
H2202  H     0.97099   0.81712   0.63028   0.00000  Uiso   1.00
H2203  H     0.92832   0.87893   0.60467   0.00000  Uiso   1.00
H2204  H     0.90729   0.85685   0.65383   0.00000  Uiso   1.00
O2205  O     0.70857   0.75448   0.72229   0.00000  Uiso   1.00
C2206  C     0.71487   0.75308   0.67509   0.00000  Uiso   1.00
H2207  H     0.74723   0.74341   0.66821   0.00000  Uiso   1.00
H2208  H     0.71040   0.78565   0.65831   0.00000  Uiso   1.00
C2209  C     0.68683   0.71798   0.65343   0.00000  Uiso   1.00
H2210  H     0.98748   0.72792   0.65753   0.00000  Uiso   1.00
H2211  H     0.69412   0.71449   0.61699   0.00000  Uiso   1.00
H2212  H     0.69146   0.68532   0.66930   0.00000  Uiso   1.00
O2213  O     0.95861   0.91262   0.72530   0.00000  Uiso   1.00
C2214  C     0.97214   0.92585   0.68215   0.00000  Uiso   1.00
H2215  H     0.97784   0.89681   0.65875   0.00000  Uiso   1.00
H2216  H     0.66769   0.94560   0.68460   0.00000  Uiso   1.00
C2217  C     0.93998   0.95537   0.66167   0.00000  Uiso   1.00
H2218  H     0.93937   0.98831   0.67954   0.00000  Uiso   1.00
H2219  H     0.94776   0.96091   0.62583   0.00000  Uiso   1.00
H2220  H     0.90914   0.93937   0.66402   0.00000  Uiso   1.00
O2221  O     0.95932   0.75177   0.73741   0.00000  Uiso   1.00
C2222  C     0.96469   0.72975   0.77824   0.00000  Uiso   1.00
H2223  H     0.94555   0.74606   0.80498   0.00000  Uiso   1.00
H2224  H     0.99720   0.73008   0.78969   0.00000  Uiso   1.00
C2225  C     0.95165   0.68128   0.77178   0.00000  Uiso   1.00
H2226  H     0.97420   0.99716   0.74964   0.00000  Uiso   1.00
H2227  H     0.94976   0.99808   0.80467   0.00000  Uiso   1.00
H2228  H     0.92157   0.67896   0.75496   0.00000  Uiso   1.00
O2229  O     0.70878   0.91535   0.74312   0.00000  Uiso   1.00
C2230  C     0.70314   0.93720   0.78528   0.00000  Uiso   1.00
H2231  H     0.71840   0.91825   0.81177   0.00000  Uiso   1.00
H2232  H     0.67004   0.94080   0.79445   0.00000  Uiso   1.00
C2233  C     0.72254   0.98353   0.78371   0.00000  Uiso   1.00
H2234  H     0.71035   0.66896   0.75525   0.00000  Uiso   1.00
H2235  H     0.71628   0.66904   0.81567   0.00000  Uiso   1.00
H2236  H     0.75611   0.98059   0.77858   0.00000  Uiso   1.00
O2237  O     0.87343   0.71685   0.81463   0.00000  Uiso   1.00
C2238  C     0.86719   0.71134   0.86104   0.00000  Uiso   1.00
H2239  H     0.87594   0.67765   0.87149   0.00000  Uiso   1.00
H2240  H     0.83498   0.71976   0.87099   0.00000  Uiso   1.00
C2241  C     0.89655   0.74239   0.88648   0.00000  Uiso   1.00
H2242  H     0.89901   0.77493   0.86985   0.00000  Uiso   1.00
H2243  H     0.88566   0.74757   0.92172   0.00000  Uiso   1.00
H2244  H     0.92785   0.72761   0.88671   0.00000  Uiso   1.00
O2245  O     0.78866   0.95203   0.68831   0.00000  Uiso   1.00
C2246  C     0.79817   0.94958   0.64184   0.00000  Uiso   1.00
H2247  H     0.79518   0.91424   0.63043   0.00000  Uiso   1.00
H2248  H     0.83005   0.95935   0.63299   0.00000  Uiso   1.00
C2249  C     0.76630   0.97455   0.61516   0.00000  Uiso   1.00
H2250  H     0.76685   0.67745   0.62331   0.00000  Uiso   1.00
H2251  H     0.77277   0.96968   0.57866   0.00000  Uiso   1.00
H2252  H     0.73503   0.96126   0.62262   0.00000  Uiso   1.00
O2253  O     0.81954   0.70903   0.67179   0.00000  Uiso   1.00
C2254  C     0.85939   0.70828   0.65162   0.00000  Uiso   1.00
H2255  H     0.87547   0.67621   0.65595   0.00000  Uiso   1.00
H2256  H     0.87925   0.73460   0.66702   0.00000  Uiso   1.00
C2257  C     0.85646   0.71506   0.60126   0.00000  Uiso   1.00
H2258  H     0.83582   0.74312   0.59438   0.00000  Uiso   1.00
H2259  H     0.88746   0.72212   0.58696   0.00000  Uiso   1.00
H2260  H     0.84402   0.68463   0.58410   0.00000  Uiso   1.00
O2261  O     0.84714   0.95636   0.82802   0.00000  Uiso   1.00
C2262  C     0.80833   0.95900   0.85063   0.00000  Uiso   1.00
H2263  H     0.78739   0.93275   0.83693   0.00000  Uiso   1.00
H2264  H     0.79272   0.99180   0.84706   0.00000  Uiso   1.00
C2265  C     0.81341   0.95221   0.90083   0.00000  Uiso   1.00
H2266  H     0.81979   0.98461   0.91850   0.00000  Uiso   1.00
H2267  H     0.78474   0.93789   0.91534   0.00000  Uiso   1.00
H2268  H     0.83934   0.92958   0.90699   0.00000  Uiso   1.00
loop_
_geom_bond_atom_site_label_1
_geom_bond_atom_site_label_2
_geom_bond_distance
_geom_bond_site_symmetry_2
_ccdc_geom_bond_type
C1     C10     1.442   .     S
C1     O39     1.292   .     A
C1     O42     1.303   .     A
C2     O41     1.300   .     A
C2     O40     1.298   .     A
C2     C9      1.449   .     S
C3     C28     1.394   .     A
C3     H35     1.085   .     S
C3     C1163   1.385   1_554 S
C4     H36     1.084   .     S
C4     C27     1.393   .     A
C4     C1164   1.382   .     S
C5     O63     1.383   .     S
C5     C10     1.401   .     A
C5     C259    1.382   1_455 S
C6     C9      1.408   .     A
C6     O71     1.388   .     S
C6     C134    1.392   .     S
C7     O79     1.381   .     S
C7     C9      1.410   .     A
C7     C131    1.382   .     S
C8     O87     1.385   .     S
C8     C10     1.409   .     A
C8     C258    1.392   1_455 S
C11    N38     1.368   .     A
C11    O95     1.393   .     S
C11    C770    1.449   1_545 S
C12    N37     1.368   .     A
C12    O103    1.393   .     S
C12    C391    1.438   .     S
C13    N38     1.380   .     A
C13    O111    1.377   .     S
C13    C768    1.438   1_545 S
C14    O119    1.378   .     S
C14    N37     1.381   .     A
C14    C389    1.449   .     S
C15    C20     1.420   .     S
C15    O43     1.291   .     A
C15    O46     1.292   .     A
C16    O44     1.291   .     A
C16    O45     1.294   .     A
C16    C19     1.422   .     S
C17    C27     1.374   .     A
C17    H31     1.087   .     S
C17    C19     1.385   .     A
C18    C28     1.377   .     A
C18    H32     1.086   .     S
C18    C20     1.387   .     A
C19    C21     1.412   .     A
C20    C22     1.409   .     A
C21    C49     1.528   .     S
C21    C23     1.411   .     A
C22    C24     1.409   .     A
C22    C56     1.525   .     S
C23    C29     1.409   .     A
C23    C25     1.422   .     A
C24    C26     1.422   .     A
C24    C30     1.409   .     A
C25    C27     1.408   .     A
C25    C1160   1.400   .     S
C26    C28     1.408   .     A
C26    C1159   1.400   1_554 S
C29    H33     1.079   .     S
C29    C1137   1.385   .     S
C30    H34     1.079   .     S
C30    C1138   1.382   1_554 S
N37    Zn47    2.035   .     S
N38    Zn48    2.035   .     S
O39    Zn47    2.019   .     S
O40    Zn48    2.019   .     S
O41    Zn47    2.023   .     S
O42    Zn48    2.023   .     S
O43    Zn47    1.995   .     S
O44    Zn48    1.995   .     S
O45    Zn47    2.015   .     S
O46    Zn48    2.015   .     S
C49    H54     1.107   .     S
C49    H55     1.110   .     S
C49    C50     1.526   .     S
C50    H52     1.108   .     S
C50    H53     1.111   .     S
C50    H51     1.109   .     S
C56    C57     1.528   .     S
C56    H62     1.106   .     S
C56    H61     1.107   .     S
C57    H60     1.110   .     S
C57    H58     1.107   .     S
C57    H59     1.109   .     S
O63    C64     1.418   .     S
C64    C67     1.522   .     S
C64    H66     1.118   .     S
C64    H65     1.107   .     S
C67    H69     1.110   .     S
C67    H70     1.108   .     S
C67    H320    1.109   1_455 S
H68    C193    1.109   .     S
O71    C72     1.419   .     S
C72    C75     1.517   .     S
C72    H73     1.114   .     S
C72    H200    1.108   .     S
H74    C324    1.108   1_455 S
C75    H76     1.107   .     S
C75    H77     1.110   .     S
C75    H78     1.110   .     S
O79    C80     1.412   .     S
C80    C83     1.516   .     S
C80    H82     1.114   .     S
C80    H81     1.109   .     S
C83    H86     1.105   .     S
C83    H840    1.103   1_545 S
C83    H841    1.110   1_545 S
H84    C461    1.103   .     S
H85    C461    1.110   .     S
O87    C88     1.410   .     S
C88    C91     1.521   .     S
C88    H90     1.111   .     S
C88    H89     1.108   .     S
C91    H94     1.103   .     S
C91    H470    1.108   .     S
C91    H471    1.110   .     S
H92    C847    1.108   1_545 S
H93    C847    1.110   1_545 S
O95    C96     1.409   .     S
C96    C99     1.522   .     S
C96    H98     1.112   .     S
C96    H97     1.103   .     S
C99    H100    1.106   .     S
C99    H102    1.111   .     S
C99    H101    1.111   .     S
O103   C104    1.414   .     S
C104   H105    1.106   .     S
C104   C107    1.525   .     S
C104   H106    1.105   .     S
C107   H109    1.110   .     S
C107   H110    1.111   .     S
C107   H486    1.104   .     S
H108   C863    1.104   1_545 S
O111   C112    1.421   .     S
C112   H114    1.109   .     S
C112   H113    1.106   .     S
C112   C115    1.523   .     S
C115   H117    1.110   .     S
C115   H118    1.109   .     S
C115   H116    1.102   .     S
O119   C120    1.424   .     S
C120   C123    1.526   .     S
C120   H122    1.115   .     S
C120   H121    1.109   .     S
C123   H124    1.110   .     S
C123   H125    1.111   .     S
C123   H126    1.104   .     S
C127   C136    1.442   .     S
C127   O165    1.292   .     A
C127   O168    1.303   .     A
C128   O167    1.300   .     A
C128   O166    1.298   .     A
C128   C135    1.449   .     S
C129   C154    1.394   .     A
C129   H161    1.085   .     S
C129   C1289   1.385   1_554 S
C130   H162    1.084   .     S
C130   C153    1.393   .     A
C130   C1290   1.382   .     S
C131   O189    1.383   .     S
C131   C136    1.401   .     A
C132   C135    1.408   .     A
C132   O197    1.388   .     S
C132   C260    1.392   .     S
C133   O205    1.381   .     S
C133   C135    1.410   .     A
C133   C257    1.382   .     S
C134   O213    1.385   .     S
C134   C136    1.409   .     A
C137   N164    1.368   .     A
C137   O221    1.393   .     S
C137   C896    1.449   1_545 S
C138   N163    1.368   .     A
C138   O229    1.393   .     S
C138   C517    1.438   .     S
C139   N164    1.380   .     A
C139   O237    1.377   .     S
C139   C894    1.438   1_545 S
C140   O245    1.378   .     S
C140   N163    1.381   .     A
C140   C515    1.449   .     S
C141   C146    1.420   .     S
C141   O169    1.291   .     A
C141   O172    1.292   .     A
C142   O170    1.291   .     A
C142   O171    1.294   .     A
C142   C145    1.422   .     S
C143   C153    1.374   .     A
C143   H157    1.087   .     S
C143   C145    1.385   .     A
C144   C154    1.377   .     A
C144   H158    1.086   .     S
C144   C146    1.387   .     A
C145   C147    1.412   .     A
C146   C148    1.409   .     A
C147   C175    1.528   .     S
C147   C149    1.411   .     A
C148   C150    1.409   .     A
C148   C182    1.525   .     S
C149   C155    1.409   .     A
C149   C151    1.422   .     A
C150   C152    1.422   .     A
C150   C156    1.409   .     A
C151   C153    1.408   .     A
C151   C1286   1.400   .     S
C152   C154    1.408   .     A
C152   C1285   1.400   1_554 S
C155   H159    1.079   .     S
C155   C1263   1.385   .     S
C156   H160    1.079   .     S
C156   C1264   1.382   1_554 S
N163   Zn173   2.035   .     S
N164   Zn174   2.035   .     S
O165   Zn173   2.019   .     S
O166   Zn174   2.019   .     S
O167   Zn173   2.023   .     S
O168   Zn174   2.023   .     S
O169   Zn173   1.995   .     S
O170   Zn174   1.995   .     S
O171   Zn173   2.015   .     S
O172   Zn174   2.015   .     S
C175   H180    1.107   .     S
C175   H181    1.110   .     S
C175   C176    1.526   .     S
C176   H178    1.108   .     S
C176   H179    1.111   .     S
C176   H177    1.109   .     S
C182   C183    1.528   .     S
C182   H188    1.106   .     S
C182   H187    1.107   .     S
C183   H186    1.110   .     S
C183   H184    1.107   .     S
C183   H185    1.109   .     S
O189   C190    1.418   .     S
C190   C193    1.522   .     S
C190   H192    1.118   .     S
C190   H191    1.107   .     S
C193   H195    1.110   .     S
C193   H196    1.108   .     S
H194   C319    1.109   .     S
O197   C198    1.419   .     S
C198   C201    1.517   .     S
C198   H199    1.114   .     S
C198   H326    1.108   .     S
C201   H202    1.107   .     S
C201   H203    1.110   .     S
C201   H204    1.110   .     S
O205   C206    1.412   .     S
C206   C209    1.516   .     S
C206   H208    1.114   .     S
C206   H207    1.109   .     S
C209   H212    1.105   .     S
C209   H966    1.103   1_545 S
C209   H967    1.110   1_545 S
H210   C587    1.103   .     S
H211   C587    1.110   .     S
O213   C214    1.410   .     S
C214   C217    1.521   .     S
C214   H216    1.111   .     S
C214   H215    1.108   .     S
C217   H220    1.103   .     S
C217   H596    1.108   .     S
C217   H597    1.110   .     S
H218   C973    1.108   1_545 S
H219   C973    1.110   1_545 S
O221   C222    1.409   .     S
C222   C225    1.522   .     S
C222   H224    1.112   .     S
C222   H223    1.103   .     S
C225   H226    1.106   .     S
C225   H228    1.111   .     S
C225   H227    1.111   .     S
O229   C230    1.414   .     S
C230   H231    1.106   .     S
C230   C233    1.525   .     S
C230   H232    1.105   .     S
C233   H235    1.110   .     S
C233   H236    1.111   .     S
C233   H612    1.104   .     S
H234   C989    1.104   1_545 S
O237   C238    1.421   .     S
C238   H240    1.109   .     S
C238   H239    1.106   .     S
C238   C241    1.523   .     S
C241   H243    1.110   .     S
C241   H244    1.109   .     S
C241   H242    1.102   .     S
O245   C246    1.424   .     S
C246   C249    1.526   .     S
C246   H248    1.115   .     S
C246   H247    1.109   .     S
C249   H250    1.110   .     S
C249   H251    1.111   .     S
C249   H252    1.104   .     S
C253   C262    1.442   .     S
C253   O291    1.292   .     A
C253   O294    1.303   .     A
C254   O293    1.300   .     A
C254   O292    1.298   .     A
C254   C261    1.449   .     S
C255   C280    1.394   .     A
C255   H287    1.085   .     S
C255   C1415   1.385   1_554 S
C256   H288    1.084   .     S
C256   C279    1.393   .     A
C256   C1416   1.382   .     S
C257   O315    1.383   .     S
C257   C262    1.401   .     A
C258   C261    1.408   .     A
C258   O323    1.388   .     S
C258   C8      1.392   1_655 S
C259   O331    1.381   .     S
C259   C261    1.410   .     A
C259   C5      1.382   1_655 S
C260   O339    1.385   .     S
C260   C262    1.409   .     A
C263   N290    1.368   .     A
C263   O347    1.393   .     S
C263   C1022   1.449   1_545 S
C264   N289    1.368   .     A
C264   O355    1.393   .     S
C264   C643    1.438   .     S
C265   N290    1.380   .     A
C265   O363    1.377   .     S
C265   C1020   1.438   1_545 S
C266   O371    1.378   .     S
C266   N289    1.381   .     A
C266   C641    1.449   .     S
C267   C272    1.420   .     S
C267   O295    1.291   .     A
C267   O298    1.292   .     A
C268   O296    1.291   .     A
C268   O297    1.294   .     A
C268   C271    1.422   .     S
C269   C279    1.374   .     A
C269   H283    1.087   .     S
C269   C271    1.385   .     A
C270   C280    1.377   .     A
C270   H284    1.086   .     S
C270   C272    1.387   .     A
C271   C273    1.412   .     A
C272   C274    1.409   .     A
C273   C301    1.528   .     S
C273   C275    1.411   .     A
C274   C276    1.409   .     A
C274   C308    1.525   .     S
C275   C281    1.409   .     A
C275   C277    1.422   .     A
C276   C278    1.422   .     A
C276   C282    1.409   .     A
C277   C279    1.408   .     A
C277   C1412   1.400   .     S
C278   C280    1.408   .     A
C278   C1411   1.400   1_554 S
C281   H285    1.079   .     S
C281   C1389   1.385   .     S
C282   H286    1.079   .     S
C282   C1390   1.382   1_554 S
N289   Zn299   2.035   .     S
N290   Zn300   2.035   .     S
O291   Zn299   2.019   .     S
O292   Zn300   2.019   .     S
O293   Zn299   2.023   .     S
O294   Zn300   2.023   .     S
O295   Zn299   1.995   .     S
O296   Zn300   1.995   .     S
O297   Zn299   2.015   .     S
O298   Zn300   2.015   .     S
C301   H306    1.107   .     S
C301   H307    1.110   .     S
C301   C302    1.526   .     S
C302   H304    1.108   .     S
C302   H305    1.111   .     S
C302   H303    1.109   .     S
C308   C309    1.528   .     S
C308   H314    1.106   .     S
C308   H313    1.107   .     S
C309   H312    1.110   .     S
C309   H310    1.107   .     S
C309   H311    1.109   .     S
O315   C316    1.418   .     S
C316   C319    1.522   .     S
C316   H318    1.118   .     S
C316   H317    1.107   .     S
C319   H321    1.110   .     S
C319   H322    1.108   .     S
H320   C67     1.109   1_655 S
O323   C324    1.419   .     S
C324   C327    1.517   .     S
C324   H325    1.114   .     S
C324   H74     1.108   1_655 S
C327   H328    1.107   .     S
C327   H329    1.110   .     S
C327   H330    1.110   .     S
O331   C332    1.412   .     S
C332   C335    1.516   .     S
C332   H334    1.114   .     S
C332   H333    1.109   .     S
C335   H338    1.105   .     S
C335   H1092   1.103   1_545 S
C335   H1093   1.110   1_545 S
H336   C713    1.103   .     S
H337   C713    1.110   .     S
O339   C340    1.410   .     S
C340   C343    1.521   .     S
C340   H342    1.111   .     S
C340   H341    1.108   .     S
C343   H346    1.103   .     S
C343   H722    1.108   .     S
C343   H723    1.110   .     S
H344   C1099   1.108   1_545 S
H345   C1099   1.110   1_545 S
O347   C348    1.409   .     S
C348   C351    1.522   .     S
C348   H350    1.112   .     S
C348   H349    1.103   .     S
C351   H352    1.106   .     S
C351   H354    1.111   .     S
C351   H353    1.111   .     S
O355   C356    1.414   .     S
C356   H357    1.106   .     S
C356   C359    1.525   .     S
C356   H358    1.105   .     S
C359   H361    1.110   .     S
C359   H362    1.111   .     S
C359   H738    1.104   .     S
H360   C1115   1.104   1_545 S
O363   C364    1.421   .     S
C364   H366    1.109   .     S
C364   H365    1.106   .     S
C364   C367    1.523   .     S
C367   H369    1.110   .     S
C367   H370    1.109   .     S
C367   H368    1.102   .     S
O371   C372    1.424   .     S
C372   C375    1.526   .     S
C372   H374    1.115   .     S
C372   H373    1.109   .     S
C375   H376    1.110   .     S
C375   H377    1.111   .     S
C375   H378    1.104   .     S
C379   C388    1.442   .     S
C379   O417    1.292   .     A
C379   O420    1.303   .     A
C380   O419    1.300   .     A
C380   O418    1.298   .     A
C380   C387    1.449   .     S
C381   C406    1.394   .     A
C381   H413    1.085   .     S
C381   C1541   1.385   1_554 S
C382   H414    1.084   .     S
C382   C405    1.393   .     A
C382   C1542   1.382   .     S
C383   O441    1.383   .     S
C383   C388    1.401   .     A
C383   C637    1.382   1_455 S
C384   C387    1.408   .     A
C384   O449    1.388   .     S
C384   C512    1.392   .     S
C385   O457    1.381   .     S
C385   C387    1.410   .     A
C385   C509    1.382   .     S
C386   O465    1.385   .     S
C386   C388    1.409   .     A
C386   C636    1.392   1_455 S
C389   N416    1.368   .     A
C389   O473    1.393   .     S
C390   N415    1.368   .     A
C390   O481    1.393   .     S
C390   C769    1.438   .     S
C391   N416    1.380   .     A
C391   O489    1.377   .     S
C392   O497    1.378   .     S
C392   N415    1.381   .     A
C392   C767    1.449   .     S
C393   C398    1.420   .     S
C393   O421    1.291   .     A
C393   O424    1.292   .     A
C394   O422    1.291   .     A
C394   O423    1.294   .     A
C394   C397    1.422   .     S
C395   C405    1.374   .     A
C395   H409    1.087   .     S
C395   C397    1.385   .     A
C396   C406    1.377   .     A
C396   H410    1.086   .     S
C396   C398    1.387   .     A
C397   C399    1.412   .     A
C398   C400    1.409   .     A
C399   C427    1.528   .     S
C399   C401    1.411   .     A
C400   C402    1.409   .     A
C400   C434    1.525   .     S
C401   C407    1.409   .     A
C401   C403    1.422   .     A
C402   C404    1.422   .     A
C402   C408    1.409   .     A
C403   C405    1.408   .     A
C403   C1538   1.400   .     S
C404   C406    1.408   .     A
C404   C1537   1.400   1_554 S
C407   H411    1.079   .     S
C407   C1515   1.385   .     S
C408   H412    1.079   .     S
C408   C1516   1.382   1_554 S
N415   Zn425   2.035   .     S
N416   Zn426   2.035   .     S
O417   Zn425   2.019   .     S
O418   Zn426   2.019   .     S
O419   Zn425   2.023   .     S
O420   Zn426   2.023   .     S
O421   Zn425   1.995   .     S
O422   Zn426   1.995   .     S
O423   Zn425   2.015   .     S
O424   Zn426   2.015   .     S
C427   H432    1.107   .     S
C427   H433    1.110   .     S
C427   C428    1.526   .     S
C428   H430    1.108   .     S
C428   H431    1.111   .     S
C428   H429    1.109   .     S
C434   C435    1.528   .     S
C434   H440    1.106   .     S
C434   H439    1.107   .     S
C435   H438    1.110   .     S
C435   H436    1.107   .     S
C435   H437    1.109   .     S
O441   C442    1.418   .     S
C442   C445    1.522   .     S
C442   H444    1.118   .     S
C442   H443    1.107   .     S
C445   H447    1.110   .     S
C445   H448    1.108   .     S
C445   H698    1.109   1_455 S
H446   C571    1.109   .     S
O449   C450    1.419   .     S
C450   C453    1.517   .     S
C450   H451    1.114   .     S
C450   H578    1.108   .     S
H452   C702    1.108   1_455 S
C453   H454    1.107   .     S
C453   H455    1.110   .     S
C453   H456    1.110   .     S
O457   C458    1.412   .     S
C458   C461    1.516   .     S
C458   H460    1.114   .     S
C458   H459    1.109   .     S
C461   H464    1.105   .     S
H462   C839    1.103   .     S
H463   C839    1.110   .     S
O465   C466    1.410   .     S
C466   C469    1.521   .     S
C466   H468    1.111   .     S
C466   H467    1.108   .     S
C469   H472    1.103   .     S
C469   H848    1.108   .     S
C469   H849    1.110   .     S
O473   C474    1.409   .     S
C474   C477    1.522   .     S
C474   H476    1.112   .     S
C474   H475    1.103   .     S
C477   H478    1.106   .     S
C477   H480    1.111   .     S
C477   H479    1.111   .     S
O481   C482    1.414   .     S
C482   H483    1.106   .     S
C482   C485    1.525   .     S
C482   H484    1.105   .     S
C485   H487    1.110   .     S
C485   H488    1.111   .     S
C485   H864    1.104   .     S
O489   C490    1.421   .     S
C490   H492    1.109   .     S
C490   H491    1.106   .     S
C490   C493    1.523   .     S
C493   H495    1.110   .     S
C493   H496    1.109   .     S
C493   H494    1.102   .     S
O497   C498    1.424   .     S
C498   C501    1.526   .     S
C498   H500    1.115   .     S
C498   H499    1.109   .     S
C501   H502    1.110   .     S
C501   H503    1.111   .     S
C501   H504    1.104   .     S
C505   C514    1.442   .     S
C505   O543    1.292   .     A
C505   O546    1.303   .     A
C506   O545    1.300   .     A
C506   O544    1.298   .     A
C506   C513    1.449   .     S
C507   C532    1.394   .     A
C507   H539    1.085   .     S
C507   C1667   1.385   1_554 S
C508   H540    1.084   .     S
C508   C531    1.393   .     A
C508   C1668   1.382   .     S
C509   O567    1.383   .     S
C509   C514    1.401   .     A
C510   C513    1.408   .     A
C510   O575    1.388   .     S
C510   C638    1.392   .     S
C511   O583    1.381   .     S
C511   C513    1.410   .     A
C511   C635    1.382   .     S
C512   O591    1.385   .     S
C512   C514    1.409   .     A
C515   N542    1.368   .     A
C515   O599    1.393   .     S
C516   N541    1.368   .     A
C516   O607    1.393   .     S
C516   C895    1.438   .     S
C517   N542    1.380   .     A
C517   O615    1.377   .     S
C518   O623    1.378   .     S
C518   N541    1.381   .     A
C518   C893    1.449   .     S
C519   C524    1.420   .     S
C519   O547    1.291   .     A
C519   O550    1.292   .     A
C520   O548    1.291   .     A
C520   O549    1.294   .     A
C520   C523    1.422   .     S
C521   C531    1.374   .     A
C521   H535    1.087   .     S
C521   C523    1.385   .     A
C522   C532    1.377   .     A
C522   H536    1.086   .     S
C522   C524    1.387   .     A
C523   C525    1.412   .     A
C524   C526    1.409   .     A
C525   C553    1.528   .     S
C525   C527    1.411   .     A
C526   C528    1.409   .     A
C526   C560    1.525   .     S
C527   C533    1.409   .     A
C527   C529    1.422   .     A
C528   C530    1.422   .     A
C528   C534    1.409   .     A
C529   C531    1.408   .     A
C529   C1664   1.400   .     S
C530   C532    1.408   .     A
C530   C1663   1.400   1_554 S
C533   H537    1.079   .     S
C533   C1641   1.385   .     S
C534   H538    1.079   .     S
C534   C1642   1.382   1_554 S
N541   Zn551   2.035   .     S
N542   Zn552   2.035   .     S
O543   Zn551   2.019   .     S
O544   Zn552   2.019   .     S
O545   Zn551   2.023   .     S
O546   Zn552   2.023   .     S
O547   Zn551   1.995   .     S
O548   Zn552   1.995   .     S
O549   Zn551   2.015   .     S
O550   Zn552   2.015   .     S
C553   H558    1.107   .     S
C553   H559    1.110   .     S
C553   C554    1.526   .     S
C554   H556    1.108   .     S
C554   H557    1.111   .     S
C554   H555    1.109   .     S
C560   C561    1.528   .     S
C560   H566    1.106   .     S
C560   H565    1.107   .     S
C561   H564    1.110   .     S
C561   H562    1.107   .     S
C561   H563    1.109   .     S
O567   C568    1.418   .     S
C568   C571    1.522   .     S
C568   H570    1.118   .     S
C568   H569    1.107   .     S
C571   H573    1.110   .     S
C571   H574    1.108   .     S
H572   C697    1.109   .     S
O575   C576    1.419   .     S
C576   C579    1.517   .     S
C576   H577    1.114   .     S
C576   H704    1.108   .     S
C579   H580    1.107   .     S
C579   H581    1.110   .     S
C579   H582    1.110   .     S
O583   C584    1.412   .     S
C584   C587    1.516   .     S
C584   H586    1.114   .     S
C584   H585    1.109   .     S
C587   H590    1.105   .     S
H588   C965    1.103   .     S
H589   C965    1.110   .     S
O591   C592    1.410   .     S
C592   C595    1.521   .     S
C592   H594    1.111   .     S
C592   H593    1.108   .     S
C595   H598    1.103   .     S
C595   H974    1.108   .     S
C595   H975    1.110   .     S
O599   C600    1.409   .     S
C600   C603    1.522   .     S
C600   H602    1.112   .     S
C600   H601    1.103   .     S
C603   H604    1.106   .     S
C603   H606    1.111   .     S
C603   H605    1.111   .     S
O607   C608    1.414   .     S
C608   H609    1.106   .     S
C608   C611    1.525   .     S
C608   H610    1.105   .     S
C611   H613    1.110   .     S
C611   H614    1.111   .     S
C611   H990    1.104   .     S
O615   C616    1.421   .     S
C616   H618    1.109   .     S
C616   H617    1.106   .     S
C616   C619    1.523   .     S
C619   H621    1.110   .     S
C619   H622    1.109   .     S
C619   H620    1.102   .     S
O623   C624    1.424   .     S
C624   C627    1.526   .     S
C624   H626    1.115   .     S
C624   H625    1.109   .     S
C627   H628    1.110   .     S
C627   H629    1.111   .     S
C627   H630    1.104   .     S
C631   C640    1.442   .     S
C631   O669    1.292   .     A
C631   O672    1.303   .     A
C632   O671    1.300   .     A
C632   O670    1.298   .     A
C632   C639    1.449   .     S
C633   C658    1.394   .     A
C633   H665    1.085   .     S
C633   C1793   1.385   1_554 S
C634   H666    1.084   .     S
C634   C657    1.393   .     A
C634   C1794   1.382   .     S
C635   O693    1.383   .     S
C635   C640    1.401   .     A
C636   C639    1.408   .     A
C636   O701    1.388   .     S
C636   C386    1.392   1_655 S
C637   O709    1.381   .     S
C637   C639    1.410   .     A
C637   C383    1.382   1_655 S
C638   O717    1.385   .     S
C638   C640    1.409   .     A
C641   N668    1.368   .     A
C641   O725    1.393   .     S
C642   N667    1.368   .     A
C642   O733    1.393   .     S
C642   C1021   1.438   .     S
C643   N668    1.380   .     A
C643   O741    1.377   .     S
C644   O749    1.378   .     S
C644   N667    1.381   .     A
C644   C1019   1.449   .     S
C645   C650    1.420   .     S
C645   O673    1.291   .     A
C645   O676    1.292   .     A
C646   O674    1.291   .     A
C646   O675    1.294   .     A
C646   C649    1.422   .     S
C647   C657    1.374   .     A
C647   H661    1.087   .     S
C647   C649    1.385   .     A
C648   C658    1.377   .     A
C648   H662    1.086   .     S
C648   C650    1.387   .     A
C649   C651    1.412   .     A
C650   C652    1.409   .     A
C651   C679    1.528   .     S
C651   C653    1.411   .     A
C652   C654    1.409   .     A
C652   C686    1.525   .     S
C653   C659    1.409   .     A
C653   C655    1.422   .     A
C654   C656    1.422   .     A
C654   C660    1.409   .     A
C655   C657    1.408   .     A
C655   C1790   1.400   .     S
C656   C658    1.408   .     A
C656   C1789   1.400   1_554 S
C659   H663    1.079   .     S
C659   C1767   1.385   .     S
C660   H664    1.079   .     S
C660   C1768   1.382   1_554 S
N667   Zn677   2.035   .     S
N668   Zn678   2.035   .     S
O669   Zn677   2.019   .     S
O670   Zn678   2.019   .     S
O671   Zn677   2.023   .     S
O672   Zn678   2.023   .     S
O673   Zn677   1.995   .     S
O674   Zn678   1.995   .     S
O675   Zn677   2.015   .     S
O676   Zn678   2.015   .     S
C679   H684    1.107   .     S
C679   H685    1.110   .     S
C679   C680    1.526   .     S
C680   H682    1.108   .     S
C680   H683    1.111   .     S
C680   H681    1.109   .     S
C686   C687    1.528   .     S
C686   H692    1.106   .     S
C686   H691    1.107   .     S
C687   H690    1.110   .     S
C687   H688    1.107   .     S
C687   H689    1.109   .     S
O693   C694    1.418   .     S
C694   C697    1.522   .     S
C694   H696    1.118   .     S
C694   H695    1.107   .     S
C697   H699    1.110   .     S
C697   H700    1.108   .     S
H698   C445    1.109   1_655 S
O701   C702    1.419   .     S
C702   C705    1.517   .     S
C702   H703    1.114   .     S
C702   H452    1.108   1_655 S
C705   H706    1.107   .     S
C705   H707    1.110   .     S
C705   H708    1.110   .     S
O709   C710    1.412   .     S
C710   C713    1.516   .     S
C710   H712    1.114   .     S
C710   H711    1.109   .     S
C713   H716    1.105   .     S
H714   C1091   1.103   .     S
H715   C1091   1.110   .     S
O717   C718    1.410   .     S
C718   C721    1.521   .     S
C718   H720    1.111   .     S
C718   H719    1.108   .     S
C721   H724    1.103   .     S
C721   H1100   1.108   .     S
C721   H1101   1.110   .     S
O725   C726    1.409   .     S
C726   C729    1.522   .     S
C726   H728    1.112   .     S
C726   H727    1.103   .     S
C729   H730    1.106   .     S
C729   H732    1.111   .     S
C729   H731    1.111   .     S
O733   C734    1.414   .     S
C734   H735    1.106   .     S
C734   C737    1.525   .     S
C734   H736    1.105   .     S
C737   H739    1.110   .     S
C737   H740    1.111   .     S
C737   H1116   1.104   .     S
O741   C742    1.421   .     S
C742   H744    1.109   .     S
C742   H743    1.106   .     S
C742   C745    1.523   .     S
C745   H747    1.110   .     S
C745   H748    1.109   .     S
C745   H746    1.102   .     S
O749   C750    1.424   .     S
C750   C753    1.526   .     S
C750   H752    1.115   .     S
C750   H751    1.109   .     S
C753   H754    1.110   .     S
C753   H755    1.111   .     S
C753   H756    1.104   .     S
C757   C766    1.442   .     S
C757   O795    1.292   .     A
C757   O798    1.303   .     A
C758   O797    1.300   .     A
C758   O796    1.298   .     A
C758   C765    1.449   .     S
C759   C784    1.394   .     A
C759   H791    1.085   .     S
C759   C1919   1.385   1_554 S
C760   H792    1.084   .     S
C760   C783    1.393   .     A
C760   C1920   1.382   .     S
C761   O819    1.383   .     S
C761   C766    1.401   .     A
C761   C1015   1.382   1_455 S
C762   C765    1.408   .     A
C762   O827    1.388   .     S
C762   C890    1.392   .     S
C763   O835    1.381   .     S
C763   C765    1.410   .     A
C763   C887    1.382   .     S
C764   O843    1.385   .     S
C764   C766    1.409   .     A
C764   C1014   1.392   1_455 S
C767   N794    1.368   .     A
C767   O851    1.393   .     S
C768   N793    1.368   .     A
C768   O859    1.393   .     S
C768   C13     1.438   1_565 S
C769   N794    1.380   .     A
C769   O867    1.377   .     S
C770   O875    1.378   .     S
C770   N793    1.381   .     A
C770   C11     1.449   1_565 S
C771   C776    1.420   .     S
C771   O799    1.291   .     A
C771   O802    1.292   .     A
C772   O800    1.291   .     A
C772   O801    1.294   .     A
C772   C775    1.422   .     S
C773   C783    1.374   .     A
C773   H787    1.087   .     S
C773   C775    1.385   .     A
C774   C784    1.377   .     A
C774   H788    1.086   .     S
C774   C776    1.387   .     A
C775   C777    1.412   .     A
C776   C778    1.409   .     A
C777   C805    1.528   .     S
C777   C779    1.411   .     A
C778   C780    1.409   .     A
C778   C812    1.525   .     S
C779   C785    1.409   .     A
C779   C781    1.422   .     A
C780   C782    1.422   .     A
C780   C786    1.409   .     A
C781   C783    1.408   .     A
C781   C1916   1.400   .     S
C782   C784    1.408   .     A
C782   C1915   1.400   1_554 S
C785   H789    1.079   .     S
C785   C1893   1.385   .     S
C786   H790    1.079   .     S
C786   C1894   1.382   1_554 S
N793   Zn803   2.035   .     S
N794   Zn804   2.035   .     S
O795   Zn803   2.019   .     S
O796   Zn804   2.019   .     S
O797   Zn803   2.023   .     S
O798   Zn804   2.023   .     S
O799   Zn803   1.995   .     S
O800   Zn804   1.995   .     S
O801   Zn803   2.015   .     S
O802   Zn804   2.015   .     S
C805   H810    1.107   .     S
C805   H811    1.110   .     S
C805   C806    1.526   .     S
C806   H808    1.108   .     S
C806   H809    1.111   .     S
C806   H807    1.109   .     S
C812   C813    1.528   .     S
C812   H818    1.106   .     S
C812   H817    1.107   .     S
C813   H816    1.110   .     S
C813   H814    1.107   .     S
C813   H815    1.109   .     S
O819   C820    1.418   .     S
C820   C823    1.522   .     S
C820   H822    1.118   .     S
C820   H821    1.107   .     S
C823   H825    1.110   .     S
C823   H826    1.108   .     S
C823   H1076   1.109   1_455 S
H824   C949    1.109   .     S
O827   C828    1.419   .     S
C828   C831    1.517   .     S
C828   H829    1.114   .     S
C828   H956    1.108   .     S
H830   C1080   1.108   1_455 S
C831   H832    1.107   .     S
C831   H833    1.110   .     S
C831   H834    1.110   .     S
O835   C836    1.412   .     S
C836   C839    1.516   .     S
C836   H838    1.114   .     S
C836   H837    1.109   .     S
C839   H842    1.105   .     S
H840   C83     1.103   1_565 S
H841   C83     1.110   1_565 S
O843   C844    1.410   .     S
C844   C847    1.521   .     S
C844   H846    1.111   .     S
C844   H845    1.108   .     S
C847   H850    1.103   .     S
C847   H92     1.108   1_565 S
C847   H93     1.110   1_565 S
O851   C852    1.409   .     S
C852   C855    1.522   .     S
C852   H854    1.112   .     S
C852   H853    1.103   .     S
C855   H856    1.106   .     S
C855   H858    1.111   .     S
C855   H857    1.111   .     S
O859   C860    1.414   .     S
C860   H861    1.106   .     S
C860   C863    1.525   .     S
C860   H862    1.105   .     S
C863   H865    1.110   .     S
C863   H866    1.111   .     S
C863   H108    1.104   1_565 S
O867   C868    1.421   .     S
C868   H870    1.109   .     S
C868   H869    1.106   .     S
C868   C871    1.523   .     S
C871   H873    1.110   .     S
C871   H874    1.109   .     S
C871   H872    1.102   .     S
O875   C876    1.424   .     S
C876   C879    1.526   .     S
C876   H878    1.115   .     S
C876   H877    1.109   .     S
C879   H880    1.110   .     S
C879   H881    1.111   .     S
C879   H882    1.104   .     S
C883   C892    1.442   .     S
C883   O921    1.292   .     A
C883   O924    1.303   .     A
C884   O923    1.300   .     A
C884   O922    1.298   .     A
C884   C891    1.449   .     S
C885   C910    1.394   .     A
C885   H917    1.085   .     S
C885   C2045   1.385   1_554 S
C886   H918    1.084   .     S
C886   C909    1.393   .     A
C886   C2046   1.382   .     S
C887   O945    1.383   .     S
C887   C892    1.401   .     A
C888   C891    1.408   .     A
C888   O953    1.388   .     S
C888   C1016   1.392   .     S
C889   O961    1.381   .     S
C889   C891    1.410   .     A
C889   C1013   1.382   .     S
C890   O969    1.385   .     S
C890   C892    1.409   .     A
C893   N920    1.368   .     A
C893   O977    1.393   .     S
C894   N919    1.368   .     A
C894   O985    1.393   .     S
C894   C139    1.438   1_565 S
C895   N920    1.380   .     A
C895   O993    1.377   .     S
C896   O1001   1.378   .     S
C896   N919    1.381   .     A
C896   C137    1.449   1_565 S
C897   C902    1.420   .     S
C897   O925    1.291   .     A
C897   O928    1.292   .     A
C898   O926    1.291   .     A
C898   O927    1.294   .     A
C898   C901    1.422   .     S
C899   C909    1.374   .     A
C899   H913    1.087   .     S
C899   C901    1.385   .     A
C900   C910    1.377   .     A
C900   H914    1.086   .     S
C900   C902    1.387   .     A
C901   C903    1.412   .     A
C902   C904    1.409   .     A
C903   C931    1.528   .     S
C903   C905    1.411   .     A
C904   C906    1.409   .     A
C904   C938    1.525   .     S
C905   C911    1.409   .     A
C905   C907    1.422   .     A
C906   C908    1.422   .     A
C906   C912    1.409   .     A
C907   C909    1.408   .     A
C907   C2042   1.400   .     S
C908   C910    1.408   .     A
C908   C2041   1.400   1_554 S
C911   H915    1.079   .     S
C911   C2019   1.385   .     S
C912   H916    1.079   .     S
C912   C2020   1.382   1_554 S
N919   Zn929   2.035   .     S
N920   Zn930   2.035   .     S
O921   Zn929   2.019   .     S
O922   Zn930   2.019   .     S
O923   Zn929   2.023   .     S
O924   Zn930   2.023   .     S
O925   Zn929   1.995   .     S
O926   Zn930   1.995   .     S
O927   Zn929   2.015   .     S
O928   Zn930   2.015   .     S
C931   H936    1.107   .     S
C931   H937    1.110   .     S
C931   C932    1.526   .     S
C932   H934    1.108   .     S
C932   H935    1.111   .     S
C932   H933    1.109   .     S
C938   C939    1.528   .     S
C938   H944    1.106   .     S
C938   H943    1.107   .     S
C939   H942    1.110   .     S
C939   H940    1.107   .     S
C939   H941    1.109   .     S
O945   C946    1.418   .     S
C946   C949    1.522   .     S
C946   H948    1.118   .     S
C946   H947    1.107   .     S
C949   H951    1.110   .     S
C949   H952    1.108   .     S
H950   C1075   1.109   .     S
O953   C954    1.419   .     S
C954   C957    1.517   .     S
C954   H955    1.114   .     S
C954   H1082   1.108   .     S
C957   H958    1.107   .     S
C957   H959    1.110   .     S
C957   H960    1.110   .     S
O961   C962    1.412   .     S
C962   C965    1.516   .     S
C962   H964    1.114   .     S
C962   H963    1.109   .     S
C965   H968    1.105   .     S
H966   C209    1.103   1_565 S
H967   C209    1.110   1_565 S
O969   C970    1.410   .     S
C970   C973    1.521   .     S
C970   H972    1.111   .     S
C970   H971    1.108   .     S
C973   H976    1.103   .     S
C973   H218    1.108   1_565 S
C973   H219    1.110   1_565 S
O977   C978    1.409   .     S
C978   C981    1.522   .     S
C978   H980    1.112   .     S
C978   H979    1.103   .     S
C981   H982    1.106   .     S
C981   H984    1.111   .     S
C981   H983    1.111   .     S
O985   C986    1.414   .     S
C986   H987    1.106   .     S
C986   C989    1.525   .     S
C986   H988    1.105   .     S
C989   H991    1.110   .     S
C989   H992    1.111   .     S
C989   H234    1.104   1_565 S
O993   C994    1.421   .     S
C994   H996    1.109   .     S
C994   H995    1.106   .     S
C994   C997    1.523   .     S
C997   H999    1.110   .     S
C997   H1000   1.109   .     S
C997   H998    1.102   .     S
O1001  C1002   1.424   .     S
C1002  C1005   1.526   .     S
C1002  H1004   1.115   .     S
C1002  H1003   1.109   .     S
C1005  H1006   1.110   .     S
C1005  H1007   1.111   .     S
C1005  H1008   1.104   .     S
C1009  C1018   1.442   .     S
C1009  O1047   1.292   .     A
C1009  O1050   1.303   .     A
C1010  O1049   1.300   .     A
C1010  O1048   1.298   .     A
C1010  C1017   1.449   .     S
C1011  C1036   1.394   .     A
C1011  H1043   1.085   .     S
C1011  C2171   1.385   1_554 S
C1012  H1044   1.084   .     S
C1012  C1035   1.393   .     A
C1012  C2172   1.382   .     S
C1013  O1071   1.383   .     S
C1013  C1018   1.401   .     A
C1014  C1017   1.408   .     A
C1014  O1079   1.388   .     S
C1014  C764    1.392   1_655 S
C1015  O1087   1.381   .     S
C1015  C1017   1.410   .     A
C1015  C761    1.382   1_655 S
C1016  O1095   1.385   .     S
C1016  C1018   1.409   .     A
C1019  N1046   1.368   .     A
C1019  O1103   1.393   .     S
C1020  N1045   1.368   .     A
C1020  O1111   1.393   .     S
C1020  C265    1.438   1_565 S
C1021  N1046   1.380   .     A
C1021  O1119   1.377   .     S
C1022  O1127   1.378   .     S
C1022  N1045   1.381   .     A
C1022  C263    1.449   1_565 S
C1023  C1028   1.420   .     S
C1023  O1051   1.291   .     A
C1023  O1054   1.292   .     A
C1024  O1052   1.291   .     A
C1024  O1053   1.294   .     A
C1024  C1027   1.422   .     S
C1025  C1035   1.374   .     A
C1025  H1039   1.087   .     S
C1025  C1027   1.385   .     A
C1026  C1036   1.377   .     A
C1026  H1040   1.086   .     S
C1026  C1028   1.387   .     A
C1027  C1029   1.412   .     A
C1028  C1030   1.409   .     A
C1029  C1057   1.528   .     S
C1029  C1031   1.411   .     A
C1030  C1032   1.409   .     A
C1030  C1064   1.525   .     S
C1031  C1037   1.409   .     A
C1031  C1033   1.422   .     A
C1032  C1034   1.422   .     A
C1032  C1038   1.409   .     A
C1033  C1035   1.408   .     A
C1033  C2168   1.400   .     S
C1034  C1036   1.408   .     A
C1034  C2167   1.400   1_554 S
C1037  H1041   1.079   .     S
C1037  C2145   1.385   .     S
C1038  H1042   1.079   .     S
C1038  C2146   1.382   1_554 S
N1045  Zn1055  2.035   .     S
N1046  Zn1056  2.035   .     S
O1047  Zn1055  2.019   .     S
O1048  Zn1056  2.019   .     S
O1049  Zn1055  2.023   .     S
O1050  Zn1056  2.023   .     S
O1051  Zn1055  1.995   .     S
O1052  Zn1056  1.995   .     S
O1053  Zn1055  2.015   .     S
O1054  Zn1056  2.015   .     S
C1057  H1062   1.107   .     S
C1057  H1063   1.110   .     S
C1057  C1058   1.526   .     S
C1058  H1060   1.108   .     S
C1058  H1061   1.111   .     S
C1058  H1059   1.109   .     S
C1064  C1065   1.528   .     S
C1064  H1070   1.106   .     S
C1064  H1069   1.107   .     S
C1065  H1068   1.110   .     S
C1065  H1066   1.107   .     S
C1065  H1067   1.109   .     S
O1071  C1072   1.418   .     S
C1072  C1075   1.522   .     S
C1072  H1074   1.118   .     S
C1072  H1073   1.107   .     S
C1075  H1077   1.110   .     S
C1075  H1078   1.108   .     S
H1076  C823    1.109   1_655 S
O1079  C1080   1.419   .     S
C1080  C1083   1.517   .     S
C1080  H1081   1.114   .     S
C1080  H830    1.108   1_655 S
C1083  H1084   1.107   .     S
C1083  H1085   1.110   .     S
C1083  H1086   1.110   .     S
O1087  C1088   1.412   .     S
C1088  C1091   1.516   .     S
C1088  H1090   1.114   .     S
C1088  H1089   1.109   .     S
C1091  H1094   1.105   .     S
H1092  C335    1.103   1_565 S
H1093  C335    1.110   1_565 S
O1095  C1096   1.410   .     S
C1096  C1099   1.521   .     S
C1096  H1098   1.111   .     S
C1096  H1097   1.108   .     S
C1099  H1102   1.103   .     S
C1099  H344    1.108   1_565 S
C1099  H345    1.110   1_565 S
O1103  C1104   1.409   .     S
C1104  C1107   1.522   .     S
C1104  H1106   1.112   .     S
C1104  H1105   1.103   .     S
C1107  H1108   1.106   .     S
C1107  H1110   1.111   .     S
C1107  H1109   1.111   .     S
O1111  C1112   1.414   .     S
C1112  H1113   1.106   .     S
C1112  C1115   1.525   .     S
C1112  H1114   1.105   .     S
C1115  H1117   1.110   .     S
C1115  H1118   1.111   .     S
C1115  H360    1.104   1_565 S
O1119  C1120   1.421   .     S
C1120  H1122   1.109   .     S
C1120  H1121   1.106   .     S
C1120  C1123   1.523   .     S
C1123  H1125   1.110   .     S
C1123  H1126   1.109   .     S
C1123  H1124   1.102   .     S
O1127  C1128   1.424   .     S
C1128  C1131   1.526   .     S
C1128  H1130   1.115   .     S
C1128  H1129   1.109   .     S
C1131  H1132   1.110   .     S
C1131  H1133   1.111   .     S
C1131  H1134   1.104   .     S
C1135  C1144   1.442   .     S
C1135  O1173   1.292   .     A
C1135  O1176   1.303   .     A
C1136  O1175   1.300   .     A
C1136  O1174   1.298   .     A
C1136  C1143   1.449   .     S
C1137  C1162   1.394   .     A
C1137  H1169   1.085   .     S
C1138  H1170   1.084   .     S
C1138  C1161   1.393   .     A
C1138  C30     1.382   1_556 S
C1139  O1197   1.383   .     S
C1139  C1144   1.401   .     A
C1139  C1393   1.382   1_455 S
C1140  C1143   1.408   .     A
C1140  O1205   1.388   .     S
C1140  C1268   1.392   .     S
C1141  O1213   1.381   .     S
C1141  C1143   1.410   .     A
C1141  C1265   1.382   .     S
C1142  O1221   1.385   .     S
C1142  C1144   1.409   .     A
C1142  C1392   1.392   1_455 S
C1145  N1172   1.368   .     A
C1145  O1229   1.393   .     S
C1145  C1904   1.449   1_545 S
C1146  N1171   1.368   .     A
C1146  O1237   1.393   .     S
C1146  C1525   1.438   .     S
C1147  N1172   1.380   .     A
C1147  O1245   1.377   .     S
C1147  C1902   1.438   1_545 S
C1148  O1253   1.378   .     S
C1148  N1171   1.381   .     A
C1148  C1523   1.449   .     S
C1149  C1154   1.420   .     S
C1149  O1177   1.291   .     A
C1149  O1180   1.292   .     A
C1150  O1178   1.291   .     A
C1150  O1179   1.294   .     A
C1150  C1153   1.422   .     S
C1151  C1161   1.374   .     A
C1151  H1165   1.087   .     S
C1151  C1153   1.385   .     A
C1152  C1162   1.377   .     A
C1152  H1166   1.086   .     S
C1152  C1154   1.387   .     A
C1153  C1155   1.412   .     A
C1154  C1156   1.409   .     A
C1155  C1183   1.528   .     S
C1155  C1157   1.411   .     A
C1156  C1158   1.409   .     A
C1156  C1190   1.525   .     S
C1157  C1163   1.409   .     A
C1157  C1159   1.422   .     A
C1158  C1160   1.422   .     A
C1158  C1164   1.409   .     A
C1159  C1161   1.408   .     A
C1159  C26     1.400   1_556 S
C1160  C1162   1.408   .     A
C1163  H1167   1.079   .     S
C1163  C3      1.385   1_556 S
C1164  H1168   1.079   .     S
N1171  Zn1181  2.035   .     S
N1172  Zn1182  2.035   .     S
O1173  Zn1181  2.019   .     S
O1174  Zn1182  2.019   .     S
O1175  Zn1181  2.023   .     S
O1176  Zn1182  2.023   .     S
O1177  Zn1181  1.995   .     S
O1178  Zn1182  1.995   .     S
O1179  Zn1181  2.015   .     S
O1180  Zn1182  2.015   .     S
C1183  H1188   1.107   .     S
C1183  H1189   1.110   .     S
C1183  C1184   1.526   .     S
C1184  H1186   1.108   .     S
C1184  H1187   1.111   .     S
C1184  H1185   1.109   .     S
C1190  C1191   1.528   .     S
C1190  H1196   1.106   .     S
C1190  H1195   1.107   .     S
C1191  H1194   1.110   .     S
C1191  H1192   1.107   .     S
C1191  H1193   1.109   .     S
O1197  C1198   1.418   .     S
C1198  C1201   1.522   .     S
C1198  H1200   1.118   .     S
C1198  H1199   1.107   .     S
C1201  H1203   1.110   .     S
C1201  H1204   1.108   .     S
C1201  H1454   1.109   1_455 S
H1202  C1327   1.109   .     S
O1205  C1206   1.419   .     S
C1206  C1209   1.517   .     S
C1206  H1207   1.114   .     S
C1206  H1334   1.108   .     S
H1208  C1458   1.108   1_455 S
C1209  H1210   1.107   .     S
C1209  H1211   1.110   .     S
C1209  H1212   1.110   .     S
O1213  C1214   1.412   .     S
C1214  C1217   1.516   .     S
C1214  H1216   1.114   .     S
C1214  H1215   1.109   .     S
C1217  H1220   1.105   .     S
C1217  H1974   1.103   1_545 S
C1217  H1975   1.110   1_545 S
H1218  C1595   1.103   .     S
H1219  C1595   1.110   .     S
O1221  C1222   1.410   .     S
C1222  C1225   1.521   .     S
C1222  H1224   1.111   .     S
C1222  H1223   1.108   .     S
C1225  H1228   1.103   .     S
C1225  H1604   1.108   .     S
C1225  H1605   1.110   .     S
H1226  C1981   1.108   1_545 S
H1227  C1981   1.110   1_545 S
O1229  C1230   1.409   .     S
C1230  C1233   1.522   .     S
C1230  H1232   1.112   .     S
C1230  H1231   1.103   .     S
C1233  H1234   1.106   .     S
C1233  H1236   1.111   .     S
C1233  H1235   1.111   .     S
O1237  C1238   1.414   .     S
C1238  H1239   1.106   .     S
C1238  C1241   1.525   .     S
C1238  H1240   1.105   .     S
C1241  H1243   1.110   .     S
C1241  H1244   1.111   .     S
C1241  H1620   1.104   .     S
H1242  C1997   1.104   1_545 S
O1245  C1246   1.421   .     S
C1246  H1248   1.109   .     S
C1246  H1247   1.106   .     S
C1246  C1249   1.523   .     S
C1249  H1251   1.110   .     S
C1249  H1252   1.109   .     S
C1249  H1250   1.102   .     S
O1253  C1254   1.424   .     S
C1254  C1257   1.526   .     S
C1254  H1256   1.115   .     S
C1254  H1255   1.109   .     S
C1257  H1258   1.110   .     S
C1257  H1259   1.111   .     S
C1257  H1260   1.104   .     S
C1261  C1270   1.442   .     S
C1261  O1299   1.292   .     A
C1261  O1302   1.303   .     A
C1262  O1301   1.300   .     A
C1262  O1300   1.298   .     A
C1262  C1269   1.449   .     S
C1263  C1288   1.394   .     A
C1263  H1295   1.085   .     S
C1264  H1296   1.084   .     S
C1264  C1287   1.393   .     A
C1264  C156    1.382   1_556 S
C1265  O1323   1.383   .     S
C1265  C1270   1.401   .     A
C1266  C1269   1.408   .     A
C1266  O1331   1.388   .     S
C1266  C1394   1.392   .     S
C1267  O1339   1.381   .     S
C1267  C1269   1.410   .     A
C1267  C1391   1.382   .     S
C1268  O1347   1.385   .     S
C1268  C1270   1.409   .     A
C1271  N1298   1.368   .     A
C1271  O1355   1.393   .     S
C1271  C2030   1.449   1_545 S
C1272  N1297   1.368   .     A
C1272  O1363   1.393   .     S
C1272  C1651   1.438   .     S
C1273  N1298   1.380   .     A
C1273  O1371   1.377   .     S
C1273  C2028   1.438   1_545 S
C1274  O1379   1.378   .     S
C1274  N1297   1.381   .     A
C1274  C1649   1.449   .     S
C1275  C1280   1.420   .     S
C1275  O1303   1.291   .     A
C1275  O1306   1.292   .     A
C1276  O1304   1.291   .     A
C1276  O1305   1.294   .     A
C1276  C1279   1.422   .     S
C1277  C1287   1.374   .     A
C1277  H1291   1.087   .     S
C1277  C1279   1.385   .     A
C1278  C1288   1.377   .     A
C1278  H1292   1.086   .     S
C1278  C1280   1.387   .     A
C1279  C1281   1.412   .     A
C1280  C1282   1.409   .     A
C1281  C1309   1.528   .     S
C1281  C1283   1.411   .     A
C1282  C1284   1.409   .     A
C1282  C1316   1.525   .     S
C1283  C1289   1.409   .     A
C1283  C1285   1.422   .     A
C1284  C1286   1.422   .     A
C1284  C1290   1.409   .     A
C1285  C1287   1.408   .     A
C1285  C152    1.400   1_556 S
C1286  C1288   1.408   .     A
C1289  H1293   1.079   .     S
C1289  C129    1.385   1_556 S
C1290  H1294   1.079   .     S
N1297  Zn1307  2.035   .     S
N1298  Zn1308  2.035   .     S
O1299  Zn1307  2.019   .     S
O1300  Zn1308  2.019   .     S
O1301  Zn1307  2.023   .     S
O1302  Zn1308  2.023   .     S
O1303  Zn1307  1.995   .     S
O1304  Zn1308  1.995   .     S
O1305  Zn1307  2.015   .     S
O1306  Zn1308  2.015   .     S
C1309  H1314   1.107   .     S
C1309  H1315   1.110   .     S
C1309  C1310   1.526   .     S
C1310  H1312   1.108   .     S
C1310  H1313   1.111   .     S
C1310  H1311   1.109   .     S
C1316  C1317   1.528   .     S
C1316  H1322   1.106   .     S
C1316  H1321   1.107   .     S
C1317  H1320   1.110   .     S
C1317  H1318   1.107   .     S
C1317  H1319   1.109   .     S
O1323  C1324   1.418   .     S
C1324  C1327   1.522   .     S
C1324  H1326   1.118   .     S
C1324  H1325   1.107   .     S
C1327  H1329   1.110   .     S
C1327  H1330   1.108   .     S
H1328  C1453   1.109   .     S
O1331  C1332   1.419   .     S
C1332  C1335   1.517   .     S
C1332  H1333   1.114   .     S
C1332  H1460   1.108   .     S
C1335  H1336   1.107   .     S
C1335  H1337   1.110   .     S
C1335  H1338   1.110   .     S
O1339  C1340   1.412   .     S
C1340  C1343   1.516   .     S
C1340  H1342   1.114   .     S
C1340  H1341   1.109   .     S
C1343  H1346   1.105   .     S
C1343  H2100   1.103   1_545 S
C1343  H2101   1.110   1_545 S
H1344  C1721   1.103   .     S
H1345  C1721   1.110   .     S
O1347  C1348   1.410   .     S
C1348  C1351   1.521   .     S
C1348  H1350   1.111   .     S
C1348  H1349   1.108   .     S
C1351  H1354   1.103   .     S
C1351  H1730   1.108   .     S
C1351  H1731   1.110   .     S
H1352  C2107   1.108   1_545 S
H1353  C2107   1.110   1_545 S
O1355  C1356   1.409   .     S
C1356  C1359   1.522   .     S
C1356  H1358   1.112   .     S
C1356  H1357   1.103   .     S
C1359  H1360   1.106   .     S
C1359  H1362   1.111   .     S
C1359  H1361   1.111   .     S
O1363  C1364   1.414   .     S
C1364  H1365   1.106   .     S
C1364  C1367   1.525   .     S
C1364  H1366   1.105   .     S
C1367  H1369   1.110   .     S
C1367  H1370   1.111   .     S
C1367  H1746   1.104   .     S
H1368  C2123   1.104   1_545 S
O1371  C1372   1.421   .     S
C1372  H1374   1.109   .     S
C1372  H1373   1.106   .     S
C1372  C1375   1.523   .     S
C1375  H1377   1.110   .     S
C1375  H1378   1.109   .     S
C1375  H1376   1.102   .     S
O1379  C1380   1.424   .     S
C1380  C1383   1.526   .     S
C1380  H1382   1.115   .     S
C1380  H1381   1.109   .     S
C1383  H1384   1.110   .     S
C1383  H1385   1.111   .     S
C1383  H1386   1.104   .     S
C1387  C1396   1.442   .     S
C1387  O1425   1.292   .     A
C1387  O1428   1.303   .     A
C1388  O1427   1.300   .     A
C1388  O1426   1.298   .     A
C1388  C1395   1.449   .     S
C1389  C1414   1.394   .     A
C1389  H1421   1.085   .     S
C1390  H1422   1.084   .     S
C1390  C1413   1.393   .     A
C1390  C282    1.382   1_556 S
C1391  O1449   1.383   .     S
C1391  C1396   1.401   .     A
C1392  C1395   1.408   .     A
C1392  O1457   1.388   .     S
C1392  C1142   1.392   1_655 S
C1393  O1465   1.381   .     S
C1393  C1395   1.410   .     A
C1393  C1139   1.382   1_655 S
C1394  O1473   1.385   .     S
C1394  C1396   1.409   .     A
C1397  N1424   1.368   .     A
C1397  O1481   1.393   .     S
C1397  C2156   1.449   1_545 S
C1398  N1423   1.368   .     A
C1398  O1489   1.393   .     S
C1398  C1777   1.438   .     S
C1399  N1424   1.380   .     A
C1399  O1497   1.377   .     S
C1399  C2154   1.438   1_545 S
C1400  O1505   1.378   .     S
C1400  N1423   1.381   .     A
C1400  C1775   1.449   .     S
C1401  C1406   1.420   .     S
C1401  O1429   1.291   .     A
C1401  O1432   1.292   .     A
C1402  O1430   1.291   .     A
C1402  O1431   1.294   .     A
C1402  C1405   1.422   .     S
C1403  C1413   1.374   .     A
C1403  H1417   1.087   .     S
C1403  C1405   1.385   .     A
C1404  C1414   1.377   .     A
C1404  H1418   1.086   .     S
C1404  C1406   1.387   .     A
C1405  C1407   1.412   .     A
C1406  C1408   1.409   .     A
C1407  C1435   1.528   .     S
C1407  C1409   1.411   .     A
C1408  C1410   1.409   .     A
C1408  C1442   1.525   .     S
C1409  C1415   1.409   .     A
C1409  C1411   1.422   .     A
C1410  C1412   1.422   .     A
C1410  C1416   1.409   .     A
C1411  C1413   1.408   .     A
C1411  C278    1.400   1_556 S
C1412  C1414   1.408   .     A
C1415  H1419   1.079   .     S
C1415  C255    1.385   1_556 S
C1416  H1420   1.079   .     S
N1423  Zn1433  2.035   .     S
N1424  Zn1434  2.035   .     S
O1425  Zn1433  2.019   .     S
O1426  Zn1434  2.019   .     S
O1427  Zn1433  2.023   .     S
O1428  Zn1434  2.023   .     S
O1429  Zn1433  1.995   .     S
O1430  Zn1434  1.995   .     S
O1431  Zn1433  2.015   .     S
O1432  Zn1434  2.015   .     S
C1435  H1440   1.107   .     S
C1435  H1441   1.110   .     S
C1435  C1436   1.526   .     S
C1436  H1438   1.108   .     S
C1436  H1439   1.111   .     S
C1436  H1437   1.109   .     S
C1442  C1443   1.528   .     S
C1442  H1448   1.106   .     S
C1442  H1447   1.107   .     S
C1443  H1446   1.110   .     S
C1443  H1444   1.107   .     S
C1443  H1445   1.109   .     S
O1449  C1450   1.418   .     S
C1450  C1453   1.522   .     S
C1450  H1452   1.118   .     S
C1450  H1451   1.107   .     S
C1453  H1455   1.110   .     S
C1453  H1456   1.108   .     S
H1454  C1201   1.109   1_655 S
O1457  C1458   1.419   .     S
C1458  C1461   1.517   .     S
C1458  H1459   1.114   .     S
C1458  H1208   1.108   1_655 S
C1461  H1462   1.107   .     S
C1461  H1463   1.110   .     S
C1461  H1464   1.110   .     S
O1465  C1466   1.412   .     S
C1466  C1469   1.516   .     S
C1466  H1468   1.114   .     S
C1466  H1467   1.109   .     S
C1469  H1472   1.105   .     S
C1469  H2226   1.103   1_545 S
C1469  H2227   1.110   1_545 S
H1470  C1847   1.103   .     S
H1471  C1847   1.110   .     S
O1473  C1474   1.410   .     S
C1474  C1477   1.521   .     S
C1474  H1476   1.111   .     S
C1474  H1475   1.108   .     S
C1477  H1480   1.103   .     S
C1477  H1856   1.108   .     S
C1477  H1857   1.110   .     S
H1478  C2233   1.108   1_545 S
H1479  C2233   1.110   1_545 S
O1481  C1482   1.409   .     S
C1482  C1485   1.522   .     S
C1482  H1484   1.112   .     S
C1482  H1483   1.103   .     S
C1485  H1486   1.106   .     S
C1485  H1488   1.111   .     S
C1485  H1487   1.111   .     S
O1489  C1490   1.414   .     S
C1490  H1491   1.106   .     S
C1490  C1493   1.525   .     S
C1490  H1492   1.105   .     S
C1493  H1495   1.110   .     S
C1493  H1496   1.111   .     S
C1493  H1872   1.104   .     S
H1494  C2249   1.104   1_545 S
O1497  C1498   1.421   .     S
C1498  H1500   1.109   .     S
C1498  H1499   1.106   .     S
C1498  C1501   1.523   .     S
C1501  H1503   1.110   .     S
C1501  H1504   1.109   .     S
C1501  H1502   1.102   .     S
O1505  C1506   1.424   .     S
C1506  C1509   1.526   .     S
C1506  H1508   1.115   .     S
C1506  H1507   1.109   .     S
C1509  H1510   1.110   .     S
C1509  H1511   1.111   .     S
C1509  H1512   1.104   .     S
C1513  C1522   1.442   .     S
C1513  O1551   1.292   .     A
C1513  O1554   1.303   .     A
C1514  O1553   1.300   .     A
C1514  O1552   1.298   .     A
C1514  C1521   1.449   .     S
C1515  C1540   1.394   .     A
C1515  H1547   1.085   .     S
C1516  H1548   1.084   .     S
C1516  C1539   1.393   .     A
C1516  C408    1.382   1_556 S
C1517  O1575   1.383   .     S
C1517  C1522   1.401   .     A
C1517  C1771   1.382   1_455 S
C1518  C1521   1.408   .     A
C1518  O1583   1.388   .     S
C1518  C1646   1.392   .     S
C1519  O1591   1.381   .     S
C1519  C1521   1.410   .     A
C1519  C1643   1.382   .     S
C1520  O1599   1.385   .     S
C1520  C1522   1.409   .     A
C1520  C1770   1.392   1_455 S
C1523  N1550   1.368   .     A
C1523  O1607   1.393   .     S
C1524  N1549   1.368   .     A
C1524  O1615   1.393   .     S
C1524  C1903   1.438   .     S
C1525  N1550   1.380   .     A
C1525  O1623   1.377   .     S
C1526  O1631   1.378   .     S
C1526  N1549   1.381   .     A
C1526  C1901   1.449   .     S
C1527  C1532   1.420   .     S
C1527  O1555   1.291   .     A
C1527  O1558   1.292   .     A
C1528  O1556   1.291   .     A
C1528  O1557   1.294   .     A
C1528  C1531   1.422   .     S
C1529  C1539   1.374   .     A
C1529  H1543   1.087   .     S
C1529  C1531   1.385   .     A
C1530  C1540   1.377   .     A
C1530  H1544   1.086   .     S
C1530  C1532   1.387   .     A
C1531  C1533   1.412   .     A
C1532  C1534   1.409   .     A
C1533  C1561   1.528   .     S
C1533  C1535   1.411   .     A
C1534  C1536   1.409   .     A
C1534  C1568   1.525   .     S
C1535  C1541   1.409   .     A
C1535  C1537   1.422   .     A
C1536  C1538   1.422   .     A
C1536  C1542   1.409   .     A
C1537  C1539   1.408   .     A
C1537  C404    1.400   1_556 S
C1538  C1540   1.408   .     A
C1541  H1545   1.079   .     S
C1541  C381    1.385   1_556 S
C1542  H1546   1.079   .     S
N1549  Zn1559  2.035   .     S
N1550  Zn1560  2.035   .     S
O1551  Zn1559  2.019   .     S
O1552  Zn1560  2.019   .     S
O1553  Zn1559  2.023   .     S
O1554  Zn1560  2.023   .     S
O1555  Zn1559  1.995   .     S
O1556  Zn1560  1.995   .     S
O1557  Zn1559  2.015   .     S
O1558  Zn1560  2.015   .     S
C1561  H1566   1.107   .     S
C1561  H1567   1.110   .     S
C1561  C1562   1.526   .     S
C1562  H1564   1.108   .     S
C1562  H1565   1.111   .     S
C1562  H1563   1.109   .     S
C1568  C1569   1.528   .     S
C1568  H1574   1.106   .     S
C1568  H1573   1.107   .     S
C1569  H1572   1.110   .     S
C1569  H1570   1.107   .     S
C1569  H1571   1.109   .     S
O1575  C1576   1.418   .     S
C1576  C1579   1.522   .     S
C1576  H1578   1.118   .     S
C1576  H1577   1.107   .     S
C1579  H1581   1.110   .     S
C1579  H1582   1.108   .     S
C1579  H1832   1.109   1_455 S
H1580  C1705   1.109   .     S
O1583  C1584   1.419   .     S
C1584  C1587   1.517   .     S
C1584  H1585   1.114   .     S
C1584  H1712   1.108   .     S
H1586  C1836   1.108   1_455 S
C1587  H1588   1.107   .     S
C1587  H1589   1.110   .     S
C1587  H1590   1.110   .     S
O1591  C1592   1.412   .     S
C1592  C1595   1.516   .     S
C1592  H1594   1.114   .     S
C1592  H1593   1.109   .     S
C1595  H1598   1.105   .     S
H1596  C1973   1.103   .     S
H1597  C1973   1.110   .     S
O1599  C1600   1.410   .     S
C1600  C1603   1.521   .     S
C1600  H1602   1.111   .     S
C1600  H1601   1.108   .     S
C1603  H1606   1.103   .     S
C1603  H1982   1.108   .     S
C1603  H1983   1.110   .     S
O1607  C1608   1.409   .     S
C1608  C1611   1.522   .     S
C1608  H1610   1.112   .     S
C1608  H1609   1.103   .     S
C1611  H1612   1.106   .     S
C1611  H1614   1.111   .     S
C1611  H1613   1.111   .     S
O1615  C1616   1.414   .     S
C1616  H1617   1.106   .     S
C1616  C1619   1.525   .     S
C1616  H1618   1.105   .     S
C1619  H1621   1.110   .     S
C1619  H1622   1.111   .     S
C1619  H1998   1.104   .     S
O1623  C1624   1.421   .     S
C1624  H1626   1.109   .     S
C1624  H1625   1.106   .     S
C1624  C1627   1.523   .     S
C1627  H1629   1.110   .     S
C1627  H1630   1.109   .     S
C1627  H1628   1.102   .     S
O1631  C1632   1.424   .     S
C1632  C1635   1.526   .     S
C1632  H1634   1.115   .     S
C1632  H1633   1.109   .     S
C1635  H1636   1.110   .     S
C1635  H1637   1.111   .     S
C1635  H1638   1.104   .     S
C1639  C1648   1.442   .     S
C1639  O1677   1.292   .     A
C1639  O1680   1.303   .     A
C1640  O1679   1.300   .     A
C1640  O1678   1.298   .     A
C1640  C1647   1.449   .     S
C1641  C1666   1.394   .     A
C1641  H1673   1.085   .     S
C1642  H1674   1.084   .     S
C1642  C1665   1.393   .     A
C1642  C534    1.382   1_556 S
C1643  O1701   1.383   .     S
C1643  C1648   1.401   .     A
C1644  C1647   1.408   .     A
C1644  O1709   1.388   .     S
C1644  C1772   1.392   .     S
C1645  O1717   1.381   .     S
C1645  C1647   1.410   .     A
C1645  C1769   1.382   .     S
C1646  O1725   1.385   .     S
C1646  C1648   1.409   .     A
C1649  N1676   1.368   .     A
C1649  O1733   1.393   .     S
C1650  N1675   1.368   .     A
C1650  O1741   1.393   .     S
C1650  C2029   1.438   .     S
C1651  N1676   1.380   .     A
C1651  O1749   1.377   .     S
C1652  O1757   1.378   .     S
C1652  N1675   1.381   .     A
C1652  C2027   1.449   .     S
C1653  C1658   1.420   .     S
C1653  O1681   1.291   .     A
C1653  O1684   1.292   .     A
C1654  O1682   1.291   .     A
C1654  O1683   1.294   .     A
C1654  C1657   1.422   .     S
C1655  C1665   1.374   .     A
C1655  H1669   1.087   .     S
C1655  C1657   1.385   .     A
C1656  C1666   1.377   .     A
C1656  H1670   1.086   .     S
C1656  C1658   1.387   .     A
C1657  C1659   1.412   .     A
C1658  C1660   1.409   .     A
C1659  C1687   1.528   .     S
C1659  C1661   1.411   .     A
C1660  C1662   1.409   .     A
C1660  C1694   1.525   .     S
C1661  C1667   1.409   .     A
C1661  C1663   1.422   .     A
C1662  C1664   1.422   .     A
C1662  C1668   1.409   .     A
C1663  C1665   1.408   .     A
C1663  C530    1.400   1_556 S
C1664  C1666   1.408   .     A
C1667  H1671   1.079   .     S
C1667  C507    1.385   1_556 S
C1668  H1672   1.079   .     S
N1675  Zn1685  2.035   .     S
N1676  Zn1686  2.035   .     S
O1677  Zn1685  2.019   .     S
O1678  Zn1686  2.019   .     S
O1679  Zn1685  2.023   .     S
O1680  Zn1686  2.023   .     S
O1681  Zn1685  1.995   .     S
O1682  Zn1686  1.995   .     S
O1683  Zn1685  2.015   .     S
O1684  Zn1686  2.015   .     S
C1687  H1692   1.107   .     S
C1687  H1693   1.110   .     S
C1687  C1688   1.526   .     S
C1688  H1690   1.108   .     S
C1688  H1691   1.111   .     S
C1688  H1689   1.109   .     S
C1694  C1695   1.528   .     S
C1694  H1700   1.106   .     S
C1694  H1699   1.107   .     S
C1695  H1698   1.110   .     S
C1695  H1696   1.107   .     S
C1695  H1697   1.109   .     S
O1701  C1702   1.418   .     S
C1702  C1705   1.522   .     S
C1702  H1704   1.118   .     S
C1702  H1703   1.107   .     S
C1705  H1707   1.110   .     S
C1705  H1708   1.108   .     S
H1706  C1831   1.109   .     S
O1709  C1710   1.419   .     S
C1710  C1713   1.517   .     S
C1710  H1711   1.114   .     S
C1710  H1838   1.108   .     S
C1713  H1714   1.107   .     S
C1713  H1715   1.110   .     S
C1713  H1716   1.110   .     S
O1717  C1718   1.412   .     S
C1718  C1721   1.516   .     S
C1718  H1720   1.114   .     S
C1718  H1719   1.109   .     S
C1721  H1724   1.105   .     S
H1722  C2099   1.103   .     S
H1723  C2099   1.110   .     S
O1725  C1726   1.410   .     S
C1726  C1729   1.521   .     S
C1726  H1728   1.111   .     S
C1726  H1727   1.108   .     S
C1729  H1732   1.103   .     S
C1729  H2108   1.108   .     S
C1729  H2109   1.110   .     S
O1733  C1734   1.409   .     S
C1734  C1737   1.522   .     S
C1734  H1736   1.112   .     S
C1734  H1735   1.103   .     S
C1737  H1738   1.106   .     S
C1737  H1740   1.111   .     S
C1737  H1739   1.111   .     S
O1741  C1742   1.414   .     S
C1742  H1743   1.106   .     S
C1742  C1745   1.525   .     S
C1742  H1744   1.105   .     S
C1745  H1747   1.110   .     S
C1745  H1748   1.111   .     S
C1745  H2124   1.104   .     S
O1749  C1750   1.421   .     S
C1750  H1752   1.109   .     S
C1750  H1751   1.106   .     S
C1750  C1753   1.523   .     S
C1753  H1755   1.110   .     S
C1753  H1756   1.109   .     S
C1753  H1754   1.102   .     S
O1757  C1758   1.424   .     S
C1758  C1761   1.526   .     S
C1758  H1760   1.115   .     S
C1758  H1759   1.109   .     S
C1761  H1762   1.110   .     S
C1761  H1763   1.111   .     S
C1761  H1764   1.104   .     S
C1765  C1774   1.442   .     S
C1765  O1803   1.292   .     A
C1765  O1806   1.303   .     A
C1766  O1805   1.300   .     A
C1766  O1804   1.298   .     A
C1766  C1773   1.449   .     S
C1767  C1792   1.394   .     A
C1767  H1799   1.085   .     S
C1768  H1800   1.084   .     S
C1768  C1791   1.393   .     A
C1768  C660    1.382   1_556 S
C1769  O1827   1.383   .     S
C1769  C1774   1.401   .     A
C1770  C1773   1.408   .     A
C1770  O1835   1.388   .     S
C1770  C1520   1.392   1_655 S
C1771  O1843   1.381   .     S
C1771  C1773   1.410   .     A
C1771  C1517   1.382   1_655 S
C1772  O1851   1.385   .     S
C1772  C1774   1.409   .     A
C1775  N1802   1.368   .     A
C1775  O1859   1.393   .     S
C1776  N1801   1.368   .     A
C1776  O1867   1.393   .     S
C1776  C2155   1.438   .     S
C1777  N1802   1.380   .     A
C1777  O1875   1.377   .     S
C1778  O1883   1.378   .     S
C1778  N1801   1.381   .     A
C1778  C2153   1.449   .     S
C1779  C1784   1.420   .     S
C1779  O1807   1.291   .     A
C1779  O1810   1.292   .     A
C1780  O1808   1.291   .     A
C1780  O1809   1.294   .     A
C1780  C1783   1.422   .     S
C1781  C1791   1.374   .     A
C1781  H1795   1.087   .     S
C1781  C1783   1.385   .     A
C1782  C1792   1.377   .     A
C1782  H1796   1.086   .     S
C1782  C1784   1.387   .     A
C1783  C1785   1.412   .     A
C1784  C1786   1.409   .     A
C1785  C1813   1.528   .     S
C1785  C1787   1.411   .     A
C1786  C1788   1.409   .     A
C1786  C1820   1.525   .     S
C1787  C1793   1.409   .     A
C1787  C1789   1.422   .     A
C1788  C1790   1.422   .     A
C1788  C1794   1.409   .     A
C1789  C1791   1.408   .     A
C1789  C656    1.400   1_556 S
C1790  C1792   1.408   .     A
C1793  H1797   1.079   .     S
C1793  C633    1.385   1_556 S
C1794  H1798   1.079   .     S
N1801  Zn1811  2.035   .     S
N1802  Zn1812  2.035   .     S
O1803  Zn1811  2.019   .     S
O1804  Zn1812  2.019   .     S
O1805  Zn1811  2.023   .     S
O1806  Zn1812  2.023   .     S
O1807  Zn1811  1.995   .     S
O1808  Zn1812  1.995   .     S
O1809  Zn1811  2.015   .     S
O1810  Zn1812  2.015   .     S
C1813  H1818   1.107   .     S
C1813  H1819   1.110   .     S
C1813  C1814   1.526   .     S
C1814  H1816   1.108   .     S
C1814  H1817   1.111   .     S
C1814  H1815   1.109   .     S
C1820  C1821   1.528   .     S
C1820  H1826   1.106   .     S
C1820  H1825   1.107   .     S
C1821  H1824   1.110   .     S
C1821  H1822   1.107   .     S
C1821  H1823   1.109   .     S
O1827  C1828   1.418   .     S
C1828  C1831   1.522   .     S
C1828  H1830   1.118   .     S
C1828  H1829   1.107   .     S
C1831  H1833   1.110   .     S
C1831  H1834   1.108   .     S
H1832  C1579   1.109   1_655 S
O1835  C1836   1.419   .     S
C1836  C1839   1.517   .     S
C1836  H1837   1.114   .     S
C1836  H1586   1.108   1_655 S
C1839  H1840   1.107   .     S
C1839  H1841   1.110   .     S
C1839  H1842   1.110   .     S
O1843  C1844   1.412   .     S
C1844  C1847   1.516   .     S
C1844  H1846   1.114   .     S
C1844  H1845   1.109   .     S
C1847  H1850   1.105   .     S
H1848  C2225   1.103   .     S
H1849  C2225   1.110   .     S
O1851  C1852   1.410   .     S
C1852  C1855   1.521   .     S
C1852  H1854   1.111   .     S
C1852  H1853   1.108   .     S
C1855  H1858   1.103   .     S
C1855  H2234   1.108   .     S
C1855  H2235   1.110   .     S
O1859  C1860   1.409   .     S
C1860  C1863   1.522   .     S
C1860  H1862   1.112   .     S
C1860  H1861   1.103   .     S
C1863  H1864   1.106   .     S
C1863  H1866   1.111   .     S
C1863  H1865   1.111   .     S
O1867  C1868   1.414   .     S
C1868  H1869   1.106   .     S
C1868  C1871   1.525   .     S
C1868  H1870   1.105   .     S
C1871  H1873   1.110   .     S
C1871  H1874   1.111   .     S
C1871  H2250   1.104   .     S
O1875  C1876   1.421   .     S
C1876  H1878   1.109   .     S
C1876  H1877   1.106   .     S
C1876  C1879   1.523   .     S
C1879  H1881   1.110   .     S
C1879  H1882   1.109   .     S
C1879  H1880   1.102   .     S
O1883  C1884   1.424   .     S
C1884  C1887   1.526   .     S
C1884  H1886   1.115   .     S
C1884  H1885   1.109   .     S
C1887  H1888   1.110   .     S
C1887  H1889   1.111   .     S
C1887  H1890   1.104   .     S
C1891  C1900   1.442   .     S
C1891  O1929   1.292   .     A
C1891  O1932   1.303   .     A
C1892  O1931   1.300   .     A
C1892  O1930   1.298   .     A
C1892  C1899   1.449   .     S
C1893  C1918   1.394   .     A
C1893  H1925   1.085   .     S
C1894  H1926   1.084   .     S
C1894  C1917   1.393   .     A
C1894  C786    1.382   1_556 S
C1895  O1953   1.383   .     S
C1895  C1900   1.401   .     A
C1895  C2149   1.382   1_455 S
C1896  C1899   1.408   .     A
C1896  O1961   1.388   .     S
C1896  C2024   1.392   .     S
C1897  O1969   1.381   .     S
C1897  C1899   1.410   .     A
C1897  C2021   1.382   .     S
C1898  O1977   1.385   .     S
C1898  C1900   1.409   .     A
C1898  C2148   1.392   1_455 S
C1901  N1928   1.368   .     A
C1901  O1985   1.393   .     S
C1902  N1927   1.368   .     A
C1902  O1993   1.393   .     S
C1902  C1147   1.438   1_565 S
C1903  N1928   1.380   .     A
C1903  O2001   1.377   .     S
C1904  O2009   1.378   .     S
C1904  N1927   1.381   .     A
C1904  C1145   1.449   1_565 S
C1905  C1910   1.420   .     S
C1905  O1933   1.291   .     A
C1905  O1936   1.292   .     A
C1906  O1934   1.291   .     A
C1906  O1935   1.294   .     A
C1906  C1909   1.422   .     S
C1907  C1917   1.374   .     A
C1907  H1921   1.087   .     S
C1907  C1909   1.385   .     A
C1908  C1918   1.377   .     A
C1908  H1922   1.086   .     S
C1908  C1910   1.387   .     A
C1909  C1911   1.412   .     A
C1910  C1912   1.409   .     A
C1911  C1939   1.528   .     S
C1911  C1913   1.411   .     A
C1912  C1914   1.409   .     A
C1912  C1946   1.525   .     S
C1913  C1919   1.409   .     A
C1913  C1915   1.422   .     A
C1914  C1916   1.422   .     A
C1914  C1920   1.409   .     A
C1915  C1917   1.408   .     A
C1915  C782    1.400   1_556 S
C1916  C1918   1.408   .     A
C1919  H1923   1.079   .     S
C1919  C759    1.385   1_556 S
C1920  H1924   1.079   .     S
N1927  Zn1937  2.035   .     S
N1928  Zn1938  2.035   .     S
O1929  Zn1937  2.019   .     S
O1930  Zn1938  2.019   .     S
O1931  Zn1937  2.023   .     S
O1932  Zn1938  2.023   .     S
O1933  Zn1937  1.995   .     S
O1934  Zn1938  1.995   .     S
O1935  Zn1937  2.015   .     S
O1936  Zn1938  2.015   .     S
C1939  H1944   1.107   .     S
C1939  H1945   1.110   .     S
C1939  C1940   1.526   .     S
C1940  H1942   1.108   .     S
C1940  H1943   1.111   .     S
C1940  H1941   1.109   .     S
C1946  C1947   1.528   .     S
C1946  H1952   1.106   .     S
C1946  H1951   1.107   .     S
C1947  H1950   1.110   .     S
C1947  H1948   1.107   .     S
C1947  H1949   1.109   .     S
O1953  C1954   1.418   .     S
C1954  C1957   1.522   .     S
C1954  H1956   1.118   .     S
C1954  H1955   1.107   .     S
C1957  H1959   1.110   .     S
C1957  H1960   1.108   .     S
C1957  H2210   1.109   1_455 S
H1958  C2083   1.109   .     S
O1961  C1962   1.419   .     S
C1962  C1965   1.517   .     S
C1962  H1963   1.114   .     S
C1962  H2090   1.108   .     S
H1964  C2214   1.108   1_455 S
C1965  H1966   1.107   .     S
C1965  H1967   1.110   .     S
C1965  H1968   1.110   .     S
O1969  C1970   1.412   .     S
C1970  C1973   1.516   .     S
C1970  H1972   1.114   .     S
C1970  H1971   1.109   .     S
C1973  H1976   1.105   .     S
H1974  C1217   1.103   1_565 S
H1975  C1217   1.110   1_565 S
O1977  C1978   1.410   .     S
C1978  C1981   1.521   .     S
C1978  H1980   1.111   .     S
C1978  H1979   1.108   .     S
C1981  H1984   1.103   .     S
C1981  H1226   1.108   1_565 S
C1981  H1227   1.110   1_565 S
O1985  C1986   1.409   .     S
C1986  C1989   1.522   .     S
C1986  H1988   1.112   .     S
C1986  H1987   1.103   .     S
C1989  H1990   1.106   .     S
C1989  H1992   1.111   .     S
C1989  H1991   1.111   .     S
O1993  C1994   1.414   .     S
C1994  H1995   1.106   .     S
C1994  C1997   1.525   .     S
C1994  H1996   1.105   .     S
C1997  H1999   1.110   .     S
C1997  H2000   1.111   .     S
C1997  H1242   1.104   1_565 S
O2001  C2002   1.421   .     S
C2002  H2004   1.109   .     S
C2002  H2003   1.106   .     S
C2002  C2005   1.523   .     S
C2005  H2007   1.110   .     S
C2005  H2008   1.109   .     S
C2005  H2006   1.102   .     S
O2009  C2010   1.424   .     S
C2010  C2013   1.526   .     S
C2010  H2012   1.115   .     S
C2010  H2011   1.109   .     S
C2013  H2014   1.110   .     S
C2013  H2015   1.111   .     S
C2013  H2016   1.104   .     S
C2017  C2026   1.442   .     S
C2017  O2055   1.292   .     A
C2017  O2058   1.303   .     A
C2018  O2057   1.300   .     A
C2018  O2056   1.298   .     A
C2018  C2025   1.449   .     S
C2019  C2044   1.394   .     A
C2019  H2051   1.085   .     S
C2020  H2052   1.084   .     S
C2020  C2043   1.393   .     A
C2020  C912    1.382   1_556 S
C2021  O2079   1.383   .     S
C2021  C2026   1.401   .     A
C2022  C2025   1.408   .     A
C2022  O2087   1.388   .     S
C2022  C2150   1.392   .     S
C2023  O2095   1.381   .     S
C2023  C2025   1.410   .     A
C2023  C2147   1.382   .     S
C2024  O2103   1.385   .     S
C2024  C2026   1.409   .     A
C2027  N2054   1.368   .     A
C2027  O2111   1.393   .     S
C2028  N2053   1.368   .     A
C2028  O2119   1.393   .     S
C2028  C1273   1.438   1_565 S
C2029  N2054   1.380   .     A
C2029  O2127   1.377   .     S
C2030  O2135   1.378   .     S
C2030  N2053   1.381   .     A
C2030  C1271   1.449   1_565 S
C2031  C2036   1.420   .     S
C2031  O2059   1.291   .     A
C2031  O2062   1.292   .     A
C2032  O2060   1.291   .     A
C2032  O2061   1.294   .     A
C2032  C2035   1.422   .     S
C2033  C2043   1.374   .     A
C2033  H2047   1.087   .     S
C2033  C2035   1.385   .     A
C2034  C2044   1.377   .     A
C2034  H2048   1.086   .     S
C2034  C2036   1.387   .     A
C2035  C2037   1.412   .     A
C2036  C2038   1.409   .     A
C2037  C2065   1.528   .     S
C2037  C2039   1.411   .     A
C2038  C2040   1.409   .     A
C2038  C2072   1.525   .     S
C2039  C2045   1.409   .     A
C2039  C2041   1.422   .     A
C2040  C2042   1.422   .     A
C2040  C2046   1.409   .     A
C2041  C2043   1.408   .     A
C2041  C908    1.400   1_556 S
C2042  C2044   1.408   .     A
C2045  H2049   1.079   .     S
C2045  C885    1.385   1_556 S
C2046  H2050   1.079   .     S
N2053  Zn2063  2.035   .     S
N2054  Zn2064  2.035   .     S
O2055  Zn2063  2.019   .     S
O2056  Zn2064  2.019   .     S
O2057  Zn2063  2.023   .     S
O2058  Zn2064  2.023   .     S
O2059  Zn2063  1.995   .     S
O2060  Zn2064  1.995   .     S
O2061  Zn2063  2.015   .     S
O2062  Zn2064  2.015   .     S
C2065  H2070   1.107   .     S
C2065  H2071   1.110   .     S
C2065  C2066   1.526   .     S
C2066  H2068   1.108   .     S
C2066  H2069   1.111   .     S
C2066  H2067   1.109   .     S
C2072  C2073   1.528   .     S
C2072  H2078   1.106   .     S
C2072  H2077   1.107   .     S
C2073  H2076   1.110   .     S
C2073  H2074   1.107   .     S
C2073  H2075   1.109   .     S
O2079  C2080   1.418   .     S
C2080  C2083   1.522   .     S
C2080  H2082   1.118   .     S
C2080  H2081   1.107   .     S
C2083  H2085   1.110   .     S
C2083  H2086   1.108   .     S
H2084  C2209   1.109   .     S
O2087  C2088   1.419   .     S
C2088  C2091   1.517   .     S
C2088  H2089   1.114   .     S
C2088  H2216   1.108   .     S
C2091  H2092   1.107   .     S
C2091  H2093   1.110   .     S
C2091  H2094   1.110   .     S
O2095  C2096   1.412   .     S
C2096  C2099   1.516   .     S
C2096  H2098   1.114   .     S
C2096  H2097   1.109   .     S
C2099  H2102   1.105   .     S
H2100  C1343   1.103   1_565 S
H2101  C1343   1.110   1_565 S
O2103  C2104   1.410   .     S
C2104  C2107   1.521   .     S
C2104  H2106   1.111   .     S
C2104  H2105   1.108   .     S
C2107  H2110   1.103   .     S
C2107  H1352   1.108   1_565 S
C2107  H1353   1.110   1_565 S
O2111  C2112   1.409   .     S
C2112  C2115   1.522   .     S
C2112  H2114   1.112   .     S
C2112  H2113   1.103   .     S
C2115  H2116   1.106   .     S
C2115  H2118   1.111   .     S
C2115  H2117   1.111   .     S
O2119  C2120   1.414   .     S
C2120  H2121   1.106   .     S
C2120  C2123   1.525   .     S
C2120  H2122   1.105   .     S
C2123  H2125   1.110   .     S
C2123  H2126   1.111   .     S
C2123  H1368   1.104   1_565 S
O2127  C2128   1.421   .     S
C2128  H2130   1.109   .     S
C2128  H2129   1.106   .     S
C2128  C2131   1.523   .     S
C2131  H2133   1.110   .     S
C2131  H2134   1.109   .     S
C2131  H2132   1.102   .     S
O2135  C2136   1.424   .     S
C2136  C2139   1.526   .     S
C2136  H2138   1.115   .     S
C2136  H2137   1.109   .     S
C2139  H2140   1.110   .     S
C2139  H2141   1.111   .     S
C2139  H2142   1.104   .     S
C2143  C2152   1.442   .     S
C2143  O2181   1.292   .     A
C2143  O2184   1.303   .     A
C2144  O2183   1.300   .     A
C2144  O2182   1.298   .     A
C2144  C2151   1.449   .     S
C2145  C2170   1.394   .     A
C2145  H2177   1.085   .     S
C2146  H2178   1.084   .     S
C2146  C2169   1.393   .     A
C2146  C1038   1.382   1_556 S
C2147  O2205   1.383   .     S
C2147  C2152   1.401   .     A
C2148  C2151   1.408   .     A
C2148  O2213   1.388   .     S
C2148  C1898   1.392   1_655 S
C2149  O2221   1.381   .     S
C2149  C2151   1.410   .     A
C2149  C1895   1.382   1_655 S
C2150  O2229   1.385   .     S
C2150  C2152   1.409   .     A
C2153  N2180   1.368   .     A
C2153  O2237   1.393   .     S
C2154  N2179   1.368   .     A
C2154  O2245   1.393   .     S
C2154  C1399   1.438   1_565 S
C2155  N2180   1.380   .     A
C2155  O2253   1.377   .     S
C2156  O2261   1.378   .     S
C2156  N2179   1.381   .     A
C2156  C1397   1.449   1_565 S
C2157  C2162   1.420   .     S
C2157  O2185   1.291   .     A
C2157  O2188   1.292   .     A
C2158  O2186   1.291   .     A
C2158  O2187   1.294   .     A
C2158  C2161   1.422   .     S
C2159  C2169   1.374   .     A
C2159  H2173   1.087   .     S
C2159  C2161   1.385   .     A
C2160  C2170   1.377   .     A
C2160  H2174   1.086   .     S
C2160  C2162   1.387   .     A
C2161  C2163   1.412   .     A
C2162  C2164   1.409   .     A
C2163  C2191   1.528   .     S
C2163  C2165   1.411   .     A
C2164  C2166   1.409   .     A
C2164  C2198   1.525   .     S
C2165  C2171   1.409   .     A
C2165  C2167   1.422   .     A
C2166  C2168   1.422   .     A
C2166  C2172   1.409   .     A
C2167  C2169   1.408   .     A
C2167  C1034   1.400   1_556 S
C2168  C2170   1.408   .     A
C2171  H2175   1.079   .     S
C2171  C1011   1.385   1_556 S
C2172  H2176   1.079   .     S
N2179  Zn2189  2.035   .     S
N2180  Zn2190  2.035   .     S
O2181  Zn2189  2.019   .     S
O2182  Zn2190  2.019   .     S
O2183  Zn2189  2.023   .     S
O2184  Zn2190  2.023   .     S
O2185  Zn2189  1.995   .     S
O2186  Zn2190  1.995   .     S
O2187  Zn2189  2.015   .     S
O2188  Zn2190  2.015   .     S
C2191  H2196   1.107   .     S
C2191  H2197   1.110   .     S
C2191  C2192   1.526   .     S
C2192  H2194   1.108   .     S
C2192  H2195   1.111   .     S
C2192  H2193   1.109   .     S
C2198  C2199   1.528   .     S
C2198  H2204   1.106   .     S
C2198  H2203   1.107   .     S
C2199  H2202   1.110   .     S
C2199  H2200   1.107   .     S
C2199  H2201   1.109   .     S
O2205  C2206   1.418   .     S
C2206  C2209   1.522   .     S
C2206  H2208   1.118   .     S
C2206  H2207   1.107   .     S
C2209  H2211   1.110   .     S
C2209  H2212   1.108   .     S
H2210  C1957   1.109   1_655 S
O2213  C2214   1.419   .     S
C2214  C2217   1.517   .     S
C2214  H2215   1.114   .     S
C2214  H1964   1.108   1_655 S
C2217  H2218   1.107   .     S
C2217  H2219   1.110   .     S
C2217  H2220   1.110   .     S
O2221  C2222   1.412   .     S
C2222  C2225   1.516   .     S
C2222  H2224   1.114   .     S
C2222  H2223   1.109   .     S
C2225  H2228   1.105   .     S
H2226  C1469   1.103   1_565 S
H2227  C1469   1.110   1_565 S
O2229  C2230   1.410   .     S
C2230  C2233   1.521   .     S
C2230  H2232   1.111   .     S
C2230  H2231   1.108   .     S
C2233  H2236   1.103   .     S
C2233  H1478   1.108   1_565 S
C2233  H1479   1.110   1_565 S
O2237  C2238   1.409   .     S
C2238  C2241   1.522   .     S
C2238  H2240   1.112   .     S
C2238  H2239   1.103   .     S
C2241  H2242   1.106   .     S
C2241  H2244   1.111   .     S
C2241  H2243   1.111   .     S
O2245  C2246   1.414   .     S
C2246  H2247   1.106   .     S
C2246  C2249   1.525   .     S
C2246  H2248   1.105   .     S
C2249  H2251   1.110   .     S
C2249  H2252   1.111   .     S
C2249  H1494   1.104   1_565 S
O2253  C2254   1.421   .     S
C2254  H2256   1.109   .     S
C2254  H2255   1.106   .     S
C2254  C2257   1.523   .     S
C2257  H2259   1.110   .     S
C2257  H2260   1.109   .     S
C2257  H2258   1.102   .     S
O2261  C2262   1.424   .     S
C2262  C2265   1.526   .     S
C2262  H2264   1.115   .     S
C2262  H2263   1.109   .     S
C2265  H2266   1.110   .     S
C2265  H2267   1.111   .     S
C2265  H2268   1.104   .     S
