data_str_m3_o10_o17_pcu_sym.133
_audit_creation_date              2020-01-03
_audit_creation_method            'Materials Studio'
_symmetry_space_group_name_H-M    'P1'
_symmetry_Int_Tables_number       1
_symmetry_cell_setting            triclinic
loop_
_symmetry_equiv_pos_as_xyz
  x,y,z
_cell_length_a                    23.2181
_cell_length_b                    25.8814
_cell_length_c                    29.9466
_cell_angle_alpha                 91.3150
_cell_angle_beta                  85.4790
_cell_angle_gamma                 93.6549
loop_
_atom_site_label
_atom_site_type_symbol
_atom_site_fract_x
_atom_site_fract_y
_atom_site_fract_z
_atom_site_U_iso_or_equiv
_atom_site_adp_type
_atom_site_occupancy
C1     C     0.18195   0.26473   0.24933   0.00000  Uiso   1.00
C2     C     0.12241   0.18957   0.41029   0.00000  Uiso   1.00
C3     C     0.16532   0.16531   0.11552   0.00000  Uiso   1.00
C4     C     0.16824   0.16868   0.38442   0.00000  Uiso   1.00
C5     C     0.11959   0.18575   0.09589   0.00000  Uiso   1.00
C6     C     0.21408   0.14846   0.40405   0.00000  Uiso   1.00
C7     C     0.12013   0.18694   0.04974   0.00000  Uiso   1.00
C8     C     0.21381   0.14774   0.45018   0.00000  Uiso   1.00
C9     C     0.16680   0.16676   0.02319   0.00000  Uiso   1.00
C10    C     0.16723   0.16807   0.47672   0.00000  Uiso   1.00
C11    C     0.21293   0.14527   0.04317   0.00000  Uiso   1.00
C12    C     0.15172   0.06846   0.25170   0.00000  Uiso   1.00
C13    C     0.12109   0.18954   0.45673   0.00000  Uiso   1.00
C14    C     0.07483   0.20840   0.03001   0.00000  Uiso   1.00
C15    C     0.25923   0.12649   0.46990   0.00000  Uiso   1.00
C16    C     0.02716   0.23279   0.46483   0.00000  Uiso   1.00
C17    C     0.30712   0.10239   0.03503   0.00000  Uiso   1.00
C18    C     0.29276   0.01036   0.23537   0.00000  Uiso   1.00
C19    C     0.11418   0.32482   0.33661   0.00000  Uiso   1.00
C20    C     0.07491   0.20997   0.48364   0.00000  Uiso   1.00
C21    C     0.25923   0.12503   0.01625   0.00000  Uiso   1.00
C22    C     0.18990   0.31860   0.24435   0.00000  Uiso   1.00
C23    C     0.14622   0.01490   0.26039   0.00000  Uiso   1.00
C24    C     0.16729   0.16730   0.33662   0.00000  Uiso   1.00
C25    C     0.16607   0.16617   0.16337   0.00000  Uiso   1.00
C26    C     0.21141   0.14489   0.08960   0.00000  Uiso   1.00
H27    H     0.24602   0.12869   0.10589   0.00000  Uiso   1.00
H28    H     0.32552   0.03075   0.21193   0.00000  Uiso   1.00
H29    H     0.30865   0.30544   0.24259   0.00000  Uiso   1.00
H30    H     0.28834   0.03360   0.26698   0.00000  Uiso   1.00
H31    H     0.06155   0.01461   0.28917   0.00000  Uiso   1.00
H32    H     0.07627   0.30760   0.35729   0.00000  Uiso   1.00
H33    H     0.12657   0.03032   0.35079   0.00000  Uiso   1.00
H34    H     0.15053   0.29918   0.33819   0.00000  Uiso   1.00
H35    H     0.08781   0.20574   0.39396   0.00000  Uiso   1.00
H36    H     0.08419   0.20164   0.11652   0.00000  Uiso   1.00
H37    H     0.24933   0.13231   0.38345   0.00000  Uiso   1.00
H38    H     0.03928   0.22386   0.05080   0.00000  Uiso   1.00
H39    H     0.29478   0.11102   0.44910   0.00000  Uiso   1.00
H40    H     0.00498   0.12809   0.21579   0.00000  Uiso   1.00
H41    H     0.32843   0.20550   0.28404   0.00000  Uiso   1.00
H42    H     0.24174   0.31764   0.18483   0.00000  Uiso   1.00
N43    N     0.31678   0.15265   0.23783   0.00000  Uiso   1.00
N44    N     0.01656   0.18068   0.26217   0.00000  Uiso   1.00
N45    N     0.32229   0.25107   0.44980   0.00000  Uiso   1.00
N46    N     0.01211   0.08425   0.05001   0.00000  Uiso   1.00
N47    N     0.23804   0.00426   0.21505   0.00000  Uiso   1.00
N48    N     0.09927   0.32936   0.29088   0.00000  Uiso   1.00
O49    O     0.12975   0.24619   0.25298   0.00000  Uiso   1.00
O50    O     0.20358   0.08714   0.24701   0.00000  Uiso   1.00
O51    O     0.22613   0.23721   0.24518   0.00000  Uiso   1.00
O52    O     0.10720   0.09613   0.25481   0.00000  Uiso   1.00
O53    O     0.11847   0.17117   0.31997   0.00000  Uiso   1.00
O54    O     0.21486   0.16216   0.18002   0.00000  Uiso   1.00
O55    O     0.21485   0.16219   0.31217   0.00000  Uiso   1.00
O56    O     0.11848   0.17115   0.18782   0.00000  Uiso   1.00
Zn57   Zn    0.10231   0.17266   0.25521   0.00000  Uiso   1.00
Zn58   Zn    0.23102   0.16067   0.24479   0.00000  Uiso   1.00
C59    C     0.51529   0.26473   0.24933   0.00000  Uiso   1.00
C60    C     0.45574   0.18957   0.41029   0.00000  Uiso   1.00
C61    C     0.49865   0.16531   0.11552   0.00000  Uiso   1.00
C62    C     0.50157   0.16868   0.38442   0.00000  Uiso   1.00
C63    C     0.45292   0.18575   0.09589   0.00000  Uiso   1.00
C64    C     0.54741   0.14846   0.40405   0.00000  Uiso   1.00
C65    C     0.45346   0.18694   0.04974   0.00000  Uiso   1.00
C66    C     0.54714   0.14774   0.45018   0.00000  Uiso   1.00
C67    C     0.50013   0.16676   0.02319   0.00000  Uiso   1.00
C68    C     0.50056   0.16807   0.47672   0.00000  Uiso   1.00
C69    C     0.54626   0.14527   0.04317   0.00000  Uiso   1.00
C70    C     0.48505   0.06846   0.25170   0.00000  Uiso   1.00
C71    C     0.45442   0.18954   0.45673   0.00000  Uiso   1.00
C72    C     0.40817   0.20840   0.03001   0.00000  Uiso   1.00
C73    C     0.59257   0.12649   0.46990   0.00000  Uiso   1.00
C74    C     0.36050   0.23279   0.46483   0.00000  Uiso   1.00
C75    C     0.64045   0.10239   0.03503   0.00000  Uiso   1.00
C76    C     0.62609   0.01036   0.23537   0.00000  Uiso   1.00
C77    C     0.44751   0.32482   0.33661   0.00000  Uiso   1.00
C78    C     0.40825   0.20997   0.48364   0.00000  Uiso   1.00
C79    C     0.59256   0.12503   0.01625   0.00000  Uiso   1.00
C80    C     0.52323   0.31860   0.24435   0.00000  Uiso   1.00
C81    C     0.47955   0.01490   0.26039   0.00000  Uiso   1.00
C82    C     0.50063   0.16730   0.33662   0.00000  Uiso   1.00
C83    C     0.49941   0.16617   0.16337   0.00000  Uiso   1.00
C84    C     0.54475   0.14489   0.08960   0.00000  Uiso   1.00
H85    H     0.57935   0.12869   0.10589   0.00000  Uiso   1.00
H86    H     0.65886   0.03075   0.21193   0.00000  Uiso   1.00
H87    H     0.64199   0.30544   0.24259   0.00000  Uiso   1.00
H88    H     0.62167   0.03360   0.26698   0.00000  Uiso   1.00
H89    H     0.39489   0.01461   0.28917   0.00000  Uiso   1.00
H90    H     0.40961   0.30760   0.35729   0.00000  Uiso   1.00
H91    H     0.45990   0.03032   0.35079   0.00000  Uiso   1.00
H92    H     0.48386   0.29918   0.33819   0.00000  Uiso   1.00
H93    H     0.42115   0.20574   0.39396   0.00000  Uiso   1.00
H94    H     0.41753   0.20164   0.11652   0.00000  Uiso   1.00
H95    H     0.58266   0.13231   0.38345   0.00000  Uiso   1.00
H96    H     0.37261   0.22386   0.05080   0.00000  Uiso   1.00
H97    H     0.62811   0.11102   0.44910   0.00000  Uiso   1.00
H98    H     0.33831   0.12809   0.21579   0.00000  Uiso   1.00
H99    H     0.66176   0.20550   0.28404   0.00000  Uiso   1.00
H100   H     0.57508   0.31764   0.18483   0.00000  Uiso   1.00
N101   N     0.65011   0.15265   0.23783   0.00000  Uiso   1.00
N102   N     0.34989   0.18068   0.26217   0.00000  Uiso   1.00
N103   N     0.65562   0.25107   0.44980   0.00000  Uiso   1.00
N104   N     0.34544   0.08425   0.05001   0.00000  Uiso   1.00
N105   N     0.57137   0.00426   0.21505   0.00000  Uiso   1.00
N106   N     0.43261   0.32936   0.29088   0.00000  Uiso   1.00
O107   O     0.46308   0.24619   0.25298   0.00000  Uiso   1.00
O108   O     0.53692   0.08714   0.24701   0.00000  Uiso   1.00
O109   O     0.55946   0.23721   0.24518   0.00000  Uiso   1.00
O110   O     0.44054   0.09613   0.25481   0.00000  Uiso   1.00
O111   O     0.45181   0.17117   0.31997   0.00000  Uiso   1.00
O112   O     0.54819   0.16216   0.18002   0.00000  Uiso   1.00
O113   O     0.54819   0.16219   0.31217   0.00000  Uiso   1.00
O114   O     0.45181   0.17115   0.18782   0.00000  Uiso   1.00
Zn115  Zn    0.43565   0.17266   0.25521   0.00000  Uiso   1.00
Zn116  Zn    0.56435   0.16067   0.24479   0.00000  Uiso   1.00
C117   C     0.84862   0.26473   0.24933   0.00000  Uiso   1.00
C118   C     0.78908   0.18957   0.41029   0.00000  Uiso   1.00
C119   C     0.83199   0.16531   0.11552   0.00000  Uiso   1.00
C120   C     0.83491   0.16868   0.38442   0.00000  Uiso   1.00
C121   C     0.78626   0.18575   0.09589   0.00000  Uiso   1.00
C122   C     0.88074   0.14846   0.40405   0.00000  Uiso   1.00
C123   C     0.78680   0.18694   0.04974   0.00000  Uiso   1.00
C124   C     0.88047   0.14774   0.45018   0.00000  Uiso   1.00
C125   C     0.83346   0.16676   0.02319   0.00000  Uiso   1.00
C126   C     0.83389   0.16807   0.47672   0.00000  Uiso   1.00
C127   C     0.87960   0.14527   0.04317   0.00000  Uiso   1.00
C128   C     0.81838   0.06846   0.25170   0.00000  Uiso   1.00
C129   C     0.78776   0.18954   0.45673   0.00000  Uiso   1.00
C130   C     0.74150   0.20840   0.03001   0.00000  Uiso   1.00
C131   C     0.92590   0.12649   0.46990   0.00000  Uiso   1.00
C132   C     0.69383   0.23279   0.46483   0.00000  Uiso   1.00
C133   C     0.97378   0.10239   0.03503   0.00000  Uiso   1.00
C134   C     0.95942   0.01036   0.23537   0.00000  Uiso   1.00
C135   C     0.78084   0.32482   0.33661   0.00000  Uiso   1.00
C136   C     0.74158   0.20997   0.48364   0.00000  Uiso   1.00
C137   C     0.92590   0.12503   0.01625   0.00000  Uiso   1.00
C138   C     0.85657   0.31860   0.24435   0.00000  Uiso   1.00
C139   C     0.81288   0.01490   0.26039   0.00000  Uiso   1.00
C140   C     0.83396   0.16730   0.33662   0.00000  Uiso   1.00
C141   C     0.83274   0.16617   0.16337   0.00000  Uiso   1.00
C142   C     0.87808   0.14489   0.08960   0.00000  Uiso   1.00
H143   H     0.91269   0.12869   0.10589   0.00000  Uiso   1.00
H144   H     0.99219   0.03075   0.21193   0.00000  Uiso   1.00
H145   H     0.97532   0.30544   0.24259   0.00000  Uiso   1.00
H146   H     0.95501   0.03360   0.26698   0.00000  Uiso   1.00
H147   H     0.72822   0.01461   0.28917   0.00000  Uiso   1.00
H148   H     0.74294   0.30760   0.35729   0.00000  Uiso   1.00
H149   H     0.79323   0.03032   0.35079   0.00000  Uiso   1.00
H150   H     0.81720   0.29918   0.33819   0.00000  Uiso   1.00
H151   H     0.75448   0.20574   0.39396   0.00000  Uiso   1.00
H152   H     0.75086   0.20164   0.11652   0.00000  Uiso   1.00
H153   H     0.91600   0.13231   0.38345   0.00000  Uiso   1.00
H154   H     0.70595   0.22386   0.05080   0.00000  Uiso   1.00
H155   H     0.96144   0.11102   0.44910   0.00000  Uiso   1.00
H156   H     0.67164   0.12809   0.21579   0.00000  Uiso   1.00
H157   H     0.99510   0.20550   0.28404   0.00000  Uiso   1.00
H158   H     0.90841   0.31764   0.18483   0.00000  Uiso   1.00
N159   N     0.98344   0.15265   0.23783   0.00000  Uiso   1.00
N160   N     0.68322   0.18068   0.26217   0.00000  Uiso   1.00
N161   N     0.98896   0.25107   0.44980   0.00000  Uiso   1.00
N162   N     0.67878   0.08425   0.05001   0.00000  Uiso   1.00
N163   N     0.90471   0.00426   0.21505   0.00000  Uiso   1.00
N164   N     0.76594   0.32936   0.29088   0.00000  Uiso   1.00
O165   O     0.79642   0.24619   0.25298   0.00000  Uiso   1.00
O166   O     0.87025   0.08714   0.24701   0.00000  Uiso   1.00
O167   O     0.89280   0.23721   0.24518   0.00000  Uiso   1.00
O168   O     0.77387   0.09613   0.25481   0.00000  Uiso   1.00
O169   O     0.78514   0.17117   0.31997   0.00000  Uiso   1.00
O170   O     0.88153   0.16216   0.18002   0.00000  Uiso   1.00
O171   O     0.88152   0.16219   0.31217   0.00000  Uiso   1.00
O172   O     0.78515   0.17115   0.18782   0.00000  Uiso   1.00
Zn173  Zn    0.76898   0.17266   0.25521   0.00000  Uiso   1.00
Zn174  Zn    0.89769   0.16067   0.24479   0.00000  Uiso   1.00
C175   C     0.18195   0.59807   0.24933   0.00000  Uiso   1.00
C176   C     0.12241   0.52290   0.41029   0.00000  Uiso   1.00
C177   C     0.16532   0.49864   0.11552   0.00000  Uiso   1.00
C178   C     0.16824   0.50202   0.38442   0.00000  Uiso   1.00
C179   C     0.11959   0.51908   0.09589   0.00000  Uiso   1.00
C180   C     0.21408   0.48179   0.40405   0.00000  Uiso   1.00
C181   C     0.12013   0.52027   0.04974   0.00000  Uiso   1.00
C182   C     0.21381   0.48108   0.45018   0.00000  Uiso   1.00
C183   C     0.16680   0.50009   0.02319   0.00000  Uiso   1.00
C184   C     0.16723   0.50140   0.47672   0.00000  Uiso   1.00
C185   C     0.21293   0.47861   0.04317   0.00000  Uiso   1.00
C186   C     0.15172   0.40179   0.25170   0.00000  Uiso   1.00
C187   C     0.12109   0.52287   0.45673   0.00000  Uiso   1.00
C188   C     0.07483   0.54174   0.03001   0.00000  Uiso   1.00
C189   C     0.25923   0.45982   0.46990   0.00000  Uiso   1.00
C190   C     0.02716   0.56613   0.46483   0.00000  Uiso   1.00
C191   C     0.30712   0.43572   0.03503   0.00000  Uiso   1.00
C192   C     0.29276   0.34370   0.23537   0.00000  Uiso   1.00
C193   C     0.11418   0.65815   0.33661   0.00000  Uiso   1.00
C194   C     0.07491   0.54331   0.48364   0.00000  Uiso   1.00
C195   C     0.25923   0.45837   0.01625   0.00000  Uiso   1.00
C196   C     0.18990   0.65193   0.24435   0.00000  Uiso   1.00
C197   C     0.14622   0.34823   0.26039   0.00000  Uiso   1.00
C198   C     0.16729   0.50063   0.33662   0.00000  Uiso   1.00
C199   C     0.16607   0.49950   0.16337   0.00000  Uiso   1.00
C200   C     0.21141   0.47823   0.08960   0.00000  Uiso   1.00
H201   H     0.24602   0.46202   0.10589   0.00000  Uiso   1.00
H202   H     0.32552   0.36408   0.21193   0.00000  Uiso   1.00
H203   H     0.30865   0.63878   0.24259   0.00000  Uiso   1.00
H204   H     0.28834   0.36693   0.26698   0.00000  Uiso   1.00
H205   H     0.06155   0.34794   0.28917   0.00000  Uiso   1.00
H206   H     0.07627   0.64093   0.35729   0.00000  Uiso   1.00
H207   H     0.12657   0.36365   0.35079   0.00000  Uiso   1.00
H208   H     0.15053   0.63251   0.33819   0.00000  Uiso   1.00
H209   H     0.08781   0.53907   0.39396   0.00000  Uiso   1.00
H210   H     0.08419   0.53497   0.11652   0.00000  Uiso   1.00
H211   H     0.24933   0.46564   0.38345   0.00000  Uiso   1.00
H212   H     0.03928   0.55720   0.05080   0.00000  Uiso   1.00
H213   H     0.29478   0.44436   0.44910   0.00000  Uiso   1.00
H214   H     0.00498   0.46142   0.21579   0.00000  Uiso   1.00
H215   H     0.32843   0.53883   0.28404   0.00000  Uiso   1.00
H216   H     0.24174   0.65098   0.18483   0.00000  Uiso   1.00
N217   N     0.31678   0.48598   0.23783   0.00000  Uiso   1.00
N218   N     0.01656   0.51402   0.26217   0.00000  Uiso   1.00
N219   N     0.32229   0.58441   0.44980   0.00000  Uiso   1.00
N220   N     0.01211   0.41758   0.05001   0.00000  Uiso   1.00
N221   N     0.23804   0.33759   0.21505   0.00000  Uiso   1.00
N222   N     0.09927   0.66270   0.29088   0.00000  Uiso   1.00
O223   O     0.12975   0.57952   0.25298   0.00000  Uiso   1.00
O224   O     0.20358   0.42048   0.24701   0.00000  Uiso   1.00
O225   O     0.22613   0.57054   0.24518   0.00000  Uiso   1.00
O226   O     0.10720   0.42946   0.25481   0.00000  Uiso   1.00
O227   O     0.11847   0.50450   0.31997   0.00000  Uiso   1.00
O228   O     0.21486   0.49550   0.18002   0.00000  Uiso   1.00
O229   O     0.21485   0.49552   0.31217   0.00000  Uiso   1.00
O230   O     0.11848   0.50448   0.18782   0.00000  Uiso   1.00
Zn231  Zn    0.10231   0.50600   0.25521   0.00000  Uiso   1.00
Zn232  Zn    0.23102   0.49400   0.24479   0.00000  Uiso   1.00
C233   C     0.51529   0.59807   0.24933   0.00000  Uiso   1.00
C234   C     0.45574   0.52290   0.41029   0.00000  Uiso   1.00
C235   C     0.49865   0.49864   0.11552   0.00000  Uiso   1.00
C236   C     0.50157   0.50202   0.38442   0.00000  Uiso   1.00
C237   C     0.45292   0.51908   0.09589   0.00000  Uiso   1.00
C238   C     0.54741   0.48179   0.40405   0.00000  Uiso   1.00
C239   C     0.45346   0.52027   0.04974   0.00000  Uiso   1.00
C240   C     0.54714   0.48108   0.45018   0.00000  Uiso   1.00
C241   C     0.50013   0.50009   0.02319   0.00000  Uiso   1.00
C242   C     0.50056   0.50140   0.47672   0.00000  Uiso   1.00
C243   C     0.54626   0.47861   0.04317   0.00000  Uiso   1.00
C244   C     0.48505   0.40179   0.25170   0.00000  Uiso   1.00
C245   C     0.45442   0.52287   0.45673   0.00000  Uiso   1.00
C246   C     0.40817   0.54174   0.03001   0.00000  Uiso   1.00
C247   C     0.59257   0.45982   0.46990   0.00000  Uiso   1.00
C248   C     0.36050   0.56613   0.46483   0.00000  Uiso   1.00
C249   C     0.64045   0.43572   0.03503   0.00000  Uiso   1.00
C250   C     0.62609   0.34370   0.23537   0.00000  Uiso   1.00
C251   C     0.44751   0.65815   0.33661   0.00000  Uiso   1.00
C252   C     0.40825   0.54331   0.48364   0.00000  Uiso   1.00
C253   C     0.59256   0.45837   0.01625   0.00000  Uiso   1.00
C254   C     0.52323   0.65193   0.24435   0.00000  Uiso   1.00
C255   C     0.47955   0.34823   0.26039   0.00000  Uiso   1.00
C256   C     0.50063   0.50063   0.33662   0.00000  Uiso   1.00
C257   C     0.49941   0.49950   0.16337   0.00000  Uiso   1.00
C258   C     0.54475   0.47823   0.08960   0.00000  Uiso   1.00
H259   H     0.57935   0.46202   0.10589   0.00000  Uiso   1.00
H260   H     0.65886   0.36408   0.21193   0.00000  Uiso   1.00
H261   H     0.64199   0.63878   0.24259   0.00000  Uiso   1.00
H262   H     0.62167   0.36693   0.26698   0.00000  Uiso   1.00
H263   H     0.39489   0.34794   0.28917   0.00000  Uiso   1.00
H264   H     0.40961   0.64093   0.35729   0.00000  Uiso   1.00
H265   H     0.45990   0.36365   0.35079   0.00000  Uiso   1.00
H266   H     0.48386   0.63251   0.33819   0.00000  Uiso   1.00
H267   H     0.42115   0.53907   0.39396   0.00000  Uiso   1.00
H268   H     0.41753   0.53497   0.11652   0.00000  Uiso   1.00
H269   H     0.58266   0.46564   0.38345   0.00000  Uiso   1.00
H270   H     0.37261   0.55720   0.05080   0.00000  Uiso   1.00
H271   H     0.62811   0.44436   0.44910   0.00000  Uiso   1.00
H272   H     0.33831   0.46142   0.21579   0.00000  Uiso   1.00
H273   H     0.66176   0.53883   0.28404   0.00000  Uiso   1.00
H274   H     0.57508   0.65098   0.18483   0.00000  Uiso   1.00
N275   N     0.65011   0.48598   0.23783   0.00000  Uiso   1.00
N276   N     0.34989   0.51402   0.26217   0.00000  Uiso   1.00
N277   N     0.65562   0.58441   0.44980   0.00000  Uiso   1.00
N278   N     0.34544   0.41758   0.05001   0.00000  Uiso   1.00
N279   N     0.57137   0.33759   0.21505   0.00000  Uiso   1.00
N280   N     0.43261   0.66270   0.29088   0.00000  Uiso   1.00
O281   O     0.46308   0.57952   0.25298   0.00000  Uiso   1.00
O282   O     0.53692   0.42048   0.24701   0.00000  Uiso   1.00
O283   O     0.55946   0.57054   0.24518   0.00000  Uiso   1.00
O284   O     0.44054   0.42946   0.25481   0.00000  Uiso   1.00
O285   O     0.45181   0.50450   0.31997   0.00000  Uiso   1.00
O286   O     0.54819   0.49550   0.18002   0.00000  Uiso   1.00
O287   O     0.54819   0.49552   0.31217   0.00000  Uiso   1.00
O288   O     0.45181   0.50448   0.18782   0.00000  Uiso   1.00
Zn289  Zn    0.43565   0.50600   0.25521   0.00000  Uiso   1.00
Zn290  Zn    0.56435   0.49400   0.24479   0.00000  Uiso   1.00
C291   C     0.84862   0.59807   0.24933   0.00000  Uiso   1.00
C292   C     0.78908   0.52290   0.41029   0.00000  Uiso   1.00
C293   C     0.83199   0.49864   0.11552   0.00000  Uiso   1.00
C294   C     0.83491   0.50202   0.38442   0.00000  Uiso   1.00
C295   C     0.78626   0.51908   0.09589   0.00000  Uiso   1.00
C296   C     0.88074   0.48179   0.40405   0.00000  Uiso   1.00
C297   C     0.78680   0.52027   0.04974   0.00000  Uiso   1.00
C298   C     0.88047   0.48108   0.45018   0.00000  Uiso   1.00
C299   C     0.83346   0.50009   0.02319   0.00000  Uiso   1.00
C300   C     0.83389   0.50140   0.47672   0.00000  Uiso   1.00
C301   C     0.87960   0.47861   0.04317   0.00000  Uiso   1.00
C302   C     0.81838   0.40179   0.25170   0.00000  Uiso   1.00
C303   C     0.78776   0.52287   0.45673   0.00000  Uiso   1.00
C304   C     0.74150   0.54174   0.03001   0.00000  Uiso   1.00
C305   C     0.92590   0.45982   0.46990   0.00000  Uiso   1.00
C306   C     0.69383   0.56613   0.46483   0.00000  Uiso   1.00
C307   C     0.97378   0.43572   0.03503   0.00000  Uiso   1.00
C308   C     0.95942   0.34370   0.23537   0.00000  Uiso   1.00
C309   C     0.78084   0.65815   0.33661   0.00000  Uiso   1.00
C310   C     0.74158   0.54331   0.48364   0.00000  Uiso   1.00
C311   C     0.92590   0.45837   0.01625   0.00000  Uiso   1.00
C312   C     0.85657   0.65193   0.24435   0.00000  Uiso   1.00
C313   C     0.81288   0.34823   0.26039   0.00000  Uiso   1.00
C314   C     0.83396   0.50063   0.33662   0.00000  Uiso   1.00
C315   C     0.83274   0.49950   0.16337   0.00000  Uiso   1.00
C316   C     0.87808   0.47823   0.08960   0.00000  Uiso   1.00
H317   H     0.91269   0.46202   0.10589   0.00000  Uiso   1.00
H318   H     0.99219   0.36408   0.21193   0.00000  Uiso   1.00
H319   H     0.97532   0.63878   0.24259   0.00000  Uiso   1.00
H320   H     0.95501   0.36693   0.26698   0.00000  Uiso   1.00
H321   H     0.72822   0.34794   0.28917   0.00000  Uiso   1.00
H322   H     0.74294   0.64093   0.35729   0.00000  Uiso   1.00
H323   H     0.79323   0.36365   0.35079   0.00000  Uiso   1.00
H324   H     0.81720   0.63251   0.33819   0.00000  Uiso   1.00
H325   H     0.75448   0.53907   0.39396   0.00000  Uiso   1.00
H326   H     0.75086   0.53497   0.11652   0.00000  Uiso   1.00
H327   H     0.91600   0.46564   0.38345   0.00000  Uiso   1.00
H328   H     0.70595   0.55720   0.05080   0.00000  Uiso   1.00
H329   H     0.96144   0.44436   0.44910   0.00000  Uiso   1.00
H330   H     0.67164   0.46142   0.21579   0.00000  Uiso   1.00
H331   H     0.99510   0.53883   0.28404   0.00000  Uiso   1.00
H332   H     0.90841   0.65098   0.18483   0.00000  Uiso   1.00
N333   N     0.98344   0.48598   0.23783   0.00000  Uiso   1.00
N334   N     0.68322   0.51402   0.26217   0.00000  Uiso   1.00
N335   N     0.98896   0.58441   0.44980   0.00000  Uiso   1.00
N336   N     0.67878   0.41758   0.05001   0.00000  Uiso   1.00
N337   N     0.90471   0.33759   0.21505   0.00000  Uiso   1.00
N338   N     0.76594   0.66270   0.29088   0.00000  Uiso   1.00
O339   O     0.79642   0.57952   0.25298   0.00000  Uiso   1.00
O340   O     0.87025   0.42048   0.24701   0.00000  Uiso   1.00
O341   O     0.89280   0.57054   0.24518   0.00000  Uiso   1.00
O342   O     0.77387   0.42946   0.25481   0.00000  Uiso   1.00
O343   O     0.78514   0.50450   0.31997   0.00000  Uiso   1.00
O344   O     0.88153   0.49550   0.18002   0.00000  Uiso   1.00
O345   O     0.88152   0.49552   0.31217   0.00000  Uiso   1.00
O346   O     0.78515   0.50448   0.18782   0.00000  Uiso   1.00
Zn347  Zn    0.76898   0.50600   0.25521   0.00000  Uiso   1.00
Zn348  Zn    0.89769   0.49400   0.24479   0.00000  Uiso   1.00
C349   C     0.18195   0.93140   0.24933   0.00000  Uiso   1.00
C350   C     0.12241   0.85623   0.41029   0.00000  Uiso   1.00
C351   C     0.16532   0.83197   0.11552   0.00000  Uiso   1.00
C352   C     0.16824   0.83535   0.38442   0.00000  Uiso   1.00
C353   C     0.11959   0.85241   0.09589   0.00000  Uiso   1.00
C354   C     0.21408   0.81512   0.40405   0.00000  Uiso   1.00
C355   C     0.12013   0.85361   0.04974   0.00000  Uiso   1.00
C356   C     0.21381   0.81441   0.45018   0.00000  Uiso   1.00
C357   C     0.16680   0.83343   0.02319   0.00000  Uiso   1.00
C358   C     0.16723   0.83474   0.47672   0.00000  Uiso   1.00
C359   C     0.21293   0.81194   0.04317   0.00000  Uiso   1.00
C360   C     0.15172   0.73512   0.25170   0.00000  Uiso   1.00
C361   C     0.12109   0.85620   0.45673   0.00000  Uiso   1.00
C362   C     0.07483   0.87507   0.03001   0.00000  Uiso   1.00
C363   C     0.25923   0.79316   0.46990   0.00000  Uiso   1.00
C364   C     0.02716   0.89946   0.46483   0.00000  Uiso   1.00
C365   C     0.30712   0.76906   0.03503   0.00000  Uiso   1.00
C366   C     0.29276   0.67703   0.23537   0.00000  Uiso   1.00
C367   C     0.11418   0.99148   0.33661   0.00000  Uiso   1.00
C368   C     0.07491   0.87664   0.48364   0.00000  Uiso   1.00
C369   C     0.25923   0.79170   0.01625   0.00000  Uiso   1.00
C370   C     0.18990   0.98526   0.24435   0.00000  Uiso   1.00
C371   C     0.14622   0.68157   0.26039   0.00000  Uiso   1.00
C372   C     0.16729   0.83397   0.33662   0.00000  Uiso   1.00
C373   C     0.16607   0.83284   0.16337   0.00000  Uiso   1.00
C374   C     0.21141   0.81156   0.08960   0.00000  Uiso   1.00
H375   H     0.24602   0.79535   0.10589   0.00000  Uiso   1.00
H376   H     0.32552   0.69742   0.21193   0.00000  Uiso   1.00
H377   H     0.30865   0.97211   0.24259   0.00000  Uiso   1.00
H378   H     0.28834   0.70027   0.26698   0.00000  Uiso   1.00
H379   H     0.06155   0.68128   0.28917   0.00000  Uiso   1.00
H380   H     0.07627   0.97427   0.35729   0.00000  Uiso   1.00
H381   H     0.12657   0.69699   0.35079   0.00000  Uiso   1.00
H382   H     0.15053   0.96585   0.33819   0.00000  Uiso   1.00
H383   H     0.08781   0.87240   0.39396   0.00000  Uiso   1.00
H384   H     0.08419   0.86831   0.11652   0.00000  Uiso   1.00
H385   H     0.24933   0.79897   0.38345   0.00000  Uiso   1.00
H386   H     0.03928   0.89053   0.05080   0.00000  Uiso   1.00
H387   H     0.29478   0.77769   0.44910   0.00000  Uiso   1.00
H388   H     0.00498   0.79476   0.21579   0.00000  Uiso   1.00
H389   H     0.32843   0.87216   0.28404   0.00000  Uiso   1.00
H390   H     0.24174   0.98431   0.18483   0.00000  Uiso   1.00
N391   N     0.31678   0.81932   0.23783   0.00000  Uiso   1.00
N392   N     0.01656   0.84735   0.26217   0.00000  Uiso   1.00
N393   N     0.32229   0.91774   0.44980   0.00000  Uiso   1.00
N394   N     0.01211   0.75091   0.05001   0.00000  Uiso   1.00
N395   N     0.23804   0.67093   0.21505   0.00000  Uiso   1.00
N396   N     0.09927   0.99603   0.29088   0.00000  Uiso   1.00
O397   O     0.12975   0.91286   0.25298   0.00000  Uiso   1.00
O398   O     0.20358   0.75381   0.24701   0.00000  Uiso   1.00
O399   O     0.22613   0.90387   0.24518   0.00000  Uiso   1.00
O400   O     0.10720   0.76279   0.25481   0.00000  Uiso   1.00
O401   O     0.11847   0.83784   0.31997   0.00000  Uiso   1.00
O402   O     0.21486   0.82883   0.18002   0.00000  Uiso   1.00
O403   O     0.21485   0.82885   0.31217   0.00000  Uiso   1.00
O404   O     0.11848   0.83781   0.18782   0.00000  Uiso   1.00
Zn405  Zn    0.10231   0.83933   0.25521   0.00000  Uiso   1.00
Zn406  Zn    0.23102   0.82734   0.24479   0.00000  Uiso   1.00
C407   C     0.51529   0.93140   0.24933   0.00000  Uiso   1.00
C408   C     0.45574   0.85623   0.41029   0.00000  Uiso   1.00
C409   C     0.49865   0.83197   0.11552   0.00000  Uiso   1.00
C410   C     0.50157   0.83535   0.38442   0.00000  Uiso   1.00
C411   C     0.45292   0.85241   0.09589   0.00000  Uiso   1.00
C412   C     0.54741   0.81512   0.40405   0.00000  Uiso   1.00
C413   C     0.45346   0.85361   0.04974   0.00000  Uiso   1.00
C414   C     0.54714   0.81441   0.45018   0.00000  Uiso   1.00
C415   C     0.50013   0.83343   0.02319   0.00000  Uiso   1.00
C416   C     0.50056   0.83474   0.47672   0.00000  Uiso   1.00
C417   C     0.54626   0.81194   0.04317   0.00000  Uiso   1.00
C418   C     0.48505   0.73512   0.25170   0.00000  Uiso   1.00
C419   C     0.45442   0.85620   0.45673   0.00000  Uiso   1.00
C420   C     0.40817   0.87507   0.03001   0.00000  Uiso   1.00
C421   C     0.59257   0.79316   0.46990   0.00000  Uiso   1.00
C422   C     0.36050   0.89946   0.46483   0.00000  Uiso   1.00
C423   C     0.64045   0.76906   0.03503   0.00000  Uiso   1.00
C424   C     0.62609   0.67703   0.23537   0.00000  Uiso   1.00
C425   C     0.44751   0.99148   0.33661   0.00000  Uiso   1.00
C426   C     0.40825   0.87664   0.48364   0.00000  Uiso   1.00
C427   C     0.59256   0.79170   0.01625   0.00000  Uiso   1.00
C428   C     0.52323   0.98526   0.24435   0.00000  Uiso   1.00
C429   C     0.47955   0.68157   0.26039   0.00000  Uiso   1.00
C430   C     0.50063   0.83397   0.33662   0.00000  Uiso   1.00
C431   C     0.49941   0.83284   0.16337   0.00000  Uiso   1.00
C432   C     0.54475   0.81156   0.08960   0.00000  Uiso   1.00
H433   H     0.57935   0.79535   0.10589   0.00000  Uiso   1.00
H434   H     0.65886   0.69742   0.21193   0.00000  Uiso   1.00
H435   H     0.64199   0.97211   0.24259   0.00000  Uiso   1.00
H436   H     0.62167   0.70027   0.26698   0.00000  Uiso   1.00
H437   H     0.39489   0.68128   0.28917   0.00000  Uiso   1.00
H438   H     0.40961   0.97427   0.35729   0.00000  Uiso   1.00
H439   H     0.45990   0.69699   0.35079   0.00000  Uiso   1.00
H440   H     0.48386   0.96585   0.33819   0.00000  Uiso   1.00
H441   H     0.42115   0.87240   0.39396   0.00000  Uiso   1.00
H442   H     0.41753   0.86831   0.11652   0.00000  Uiso   1.00
H443   H     0.58266   0.79897   0.38345   0.00000  Uiso   1.00
H444   H     0.37261   0.89053   0.05080   0.00000  Uiso   1.00
H445   H     0.62811   0.77769   0.44910   0.00000  Uiso   1.00
H446   H     0.33831   0.79476   0.21579   0.00000  Uiso   1.00
H447   H     0.66176   0.87216   0.28404   0.00000  Uiso   1.00
H448   H     0.57508   0.98431   0.18483   0.00000  Uiso   1.00
N449   N     0.65011   0.81932   0.23783   0.00000  Uiso   1.00
N450   N     0.34989   0.84735   0.26217   0.00000  Uiso   1.00
N451   N     0.65562   0.91774   0.44980   0.00000  Uiso   1.00
N452   N     0.34544   0.75091   0.05001   0.00000  Uiso   1.00
N453   N     0.57137   0.67093   0.21505   0.00000  Uiso   1.00
N454   N     0.43261   0.99603   0.29088   0.00000  Uiso   1.00
O455   O     0.46308   0.91286   0.25298   0.00000  Uiso   1.00
O456   O     0.53692   0.75381   0.24701   0.00000  Uiso   1.00
O457   O     0.55946   0.90387   0.24518   0.00000  Uiso   1.00
O458   O     0.44054   0.76279   0.25481   0.00000  Uiso   1.00
O459   O     0.45181   0.83784   0.31997   0.00000  Uiso   1.00
O460   O     0.54819   0.82883   0.18002   0.00000  Uiso   1.00
O461   O     0.54819   0.82885   0.31217   0.00000  Uiso   1.00
O462   O     0.45181   0.83781   0.18782   0.00000  Uiso   1.00
Zn463  Zn    0.43565   0.83933   0.25521   0.00000  Uiso   1.00
Zn464  Zn    0.56435   0.82734   0.24479   0.00000  Uiso   1.00
C465   C     0.84862   0.93140   0.24933   0.00000  Uiso   1.00
C466   C     0.78908   0.85623   0.41029   0.00000  Uiso   1.00
C467   C     0.83199   0.83197   0.11552   0.00000  Uiso   1.00
C468   C     0.83491   0.83535   0.38442   0.00000  Uiso   1.00
C469   C     0.78626   0.85241   0.09589   0.00000  Uiso   1.00
C470   C     0.88074   0.81512   0.40405   0.00000  Uiso   1.00
C471   C     0.78680   0.85361   0.04974   0.00000  Uiso   1.00
C472   C     0.88047   0.81441   0.45018   0.00000  Uiso   1.00
C473   C     0.83346   0.83343   0.02319   0.00000  Uiso   1.00
C474   C     0.83389   0.83474   0.47672   0.00000  Uiso   1.00
C475   C     0.87960   0.81194   0.04317   0.00000  Uiso   1.00
C476   C     0.81838   0.73512   0.25170   0.00000  Uiso   1.00
C477   C     0.78776   0.85620   0.45673   0.00000  Uiso   1.00
C478   C     0.74150   0.87507   0.03001   0.00000  Uiso   1.00
C479   C     0.92590   0.79316   0.46990   0.00000  Uiso   1.00
C480   C     0.69383   0.89946   0.46483   0.00000  Uiso   1.00
C481   C     0.97378   0.76906   0.03503   0.00000  Uiso   1.00
C482   C     0.95942   0.67703   0.23537   0.00000  Uiso   1.00
C483   C     0.78084   0.99148   0.33661   0.00000  Uiso   1.00
C484   C     0.74158   0.87664   0.48364   0.00000  Uiso   1.00
C485   C     0.92590   0.79170   0.01625   0.00000  Uiso   1.00
C486   C     0.85657   0.98526   0.24435   0.00000  Uiso   1.00
C487   C     0.81288   0.68157   0.26039   0.00000  Uiso   1.00
C488   C     0.83396   0.83397   0.33662   0.00000  Uiso   1.00
C489   C     0.83274   0.83284   0.16337   0.00000  Uiso   1.00
C490   C     0.87808   0.81156   0.08960   0.00000  Uiso   1.00
H491   H     0.91269   0.79535   0.10589   0.00000  Uiso   1.00
H492   H     0.99219   0.69742   0.21193   0.00000  Uiso   1.00
H493   H     0.97532   0.97211   0.24259   0.00000  Uiso   1.00
H494   H     0.95501   0.70027   0.26698   0.00000  Uiso   1.00
H495   H     0.72822   0.68128   0.28917   0.00000  Uiso   1.00
H496   H     0.74294   0.97427   0.35729   0.00000  Uiso   1.00
H497   H     0.79323   0.69699   0.35079   0.00000  Uiso   1.00
H498   H     0.81720   0.96585   0.33819   0.00000  Uiso   1.00
H499   H     0.75448   0.87240   0.39396   0.00000  Uiso   1.00
H500   H     0.75086   0.86831   0.11652   0.00000  Uiso   1.00
H501   H     0.91600   0.79897   0.38345   0.00000  Uiso   1.00
H502   H     0.70595   0.89053   0.05080   0.00000  Uiso   1.00
H503   H     0.96144   0.77769   0.44910   0.00000  Uiso   1.00
H504   H     0.67164   0.79476   0.21579   0.00000  Uiso   1.00
H505   H     0.99510   0.87216   0.28404   0.00000  Uiso   1.00
H506   H     0.90841   0.98431   0.18483   0.00000  Uiso   1.00
N507   N     0.98344   0.81932   0.23783   0.00000  Uiso   1.00
N508   N     0.68322   0.84735   0.26217   0.00000  Uiso   1.00
N509   N     0.98896   0.91774   0.44980   0.00000  Uiso   1.00
N510   N     0.67878   0.75091   0.05001   0.00000  Uiso   1.00
N511   N     0.90471   0.67093   0.21505   0.00000  Uiso   1.00
N512   N     0.76594   0.99603   0.29088   0.00000  Uiso   1.00
O513   O     0.79642   0.91286   0.25298   0.00000  Uiso   1.00
O514   O     0.87025   0.75381   0.24701   0.00000  Uiso   1.00
O515   O     0.89280   0.90387   0.24518   0.00000  Uiso   1.00
O516   O     0.77387   0.76279   0.25481   0.00000  Uiso   1.00
O517   O     0.78514   0.83784   0.31997   0.00000  Uiso   1.00
O518   O     0.88153   0.82883   0.18002   0.00000  Uiso   1.00
O519   O     0.88152   0.82885   0.31217   0.00000  Uiso   1.00
O520   O     0.78515   0.83781   0.18782   0.00000  Uiso   1.00
Zn521  Zn    0.76898   0.83933   0.25521   0.00000  Uiso   1.00
Zn522  Zn    0.89769   0.82734   0.24479   0.00000  Uiso   1.00
C523   C     0.18195   0.26473   0.74933   0.00000  Uiso   1.00
C524   C     0.12241   0.18957   0.91029   0.00000  Uiso   1.00
C525   C     0.16532   0.16531   0.61552   0.00000  Uiso   1.00
C526   C     0.16824   0.16868   0.88442   0.00000  Uiso   1.00
C527   C     0.11959   0.18575   0.59589   0.00000  Uiso   1.00
C528   C     0.21408   0.14846   0.90405   0.00000  Uiso   1.00
C529   C     0.12013   0.18694   0.54974   0.00000  Uiso   1.00
C530   C     0.21381   0.14774   0.95018   0.00000  Uiso   1.00
C531   C     0.16680   0.16676   0.52319   0.00000  Uiso   1.00
C532   C     0.16723   0.16807   0.97672   0.00000  Uiso   1.00
C533   C     0.21293   0.14527   0.54317   0.00000  Uiso   1.00
C534   C     0.15172   0.06846   0.75170   0.00000  Uiso   1.00
C535   C     0.12109   0.18954   0.95673   0.00000  Uiso   1.00
C536   C     0.07483   0.20840   0.53001   0.00000  Uiso   1.00
C537   C     0.25923   0.12649   0.96990   0.00000  Uiso   1.00
C538   C     0.02716   0.23279   0.96483   0.00000  Uiso   1.00
C539   C     0.30712   0.10239   0.53503   0.00000  Uiso   1.00
C540   C     0.29276   0.01036   0.73537   0.00000  Uiso   1.00
C541   C     0.11418   0.32482   0.83661   0.00000  Uiso   1.00
C542   C     0.07491   0.20997   0.98364   0.00000  Uiso   1.00
C543   C     0.25923   0.12503   0.51625   0.00000  Uiso   1.00
C544   C     0.18990   0.31860   0.74435   0.00000  Uiso   1.00
C545   C     0.14622   0.01490   0.76039   0.00000  Uiso   1.00
C546   C     0.16729   0.16730   0.83662   0.00000  Uiso   1.00
C547   C     0.16607   0.16617   0.66337   0.00000  Uiso   1.00
C548   C     0.21141   0.14489   0.58960   0.00000  Uiso   1.00
H549   H     0.24602   0.12869   0.60589   0.00000  Uiso   1.00
H550   H     0.32552   0.03075   0.71193   0.00000  Uiso   1.00
H551   H     0.30865   0.30544   0.74259   0.00000  Uiso   1.00
H552   H     0.28834   0.03360   0.76698   0.00000  Uiso   1.00
H553   H     0.06155   0.01461   0.78917   0.00000  Uiso   1.00
H554   H     0.07627   0.30760   0.85729   0.00000  Uiso   1.00
H555   H     0.12657   0.03032   0.85079   0.00000  Uiso   1.00
H556   H     0.15053   0.29918   0.83819   0.00000  Uiso   1.00
H557   H     0.08781   0.20574   0.89396   0.00000  Uiso   1.00
H558   H     0.08419   0.20164   0.61652   0.00000  Uiso   1.00
H559   H     0.24933   0.13231   0.88345   0.00000  Uiso   1.00
H560   H     0.03928   0.22386   0.55080   0.00000  Uiso   1.00
H561   H     0.29478   0.11102   0.94910   0.00000  Uiso   1.00
H562   H     0.00498   0.12809   0.71579   0.00000  Uiso   1.00
H563   H     0.32843   0.20550   0.78404   0.00000  Uiso   1.00
H564   H     0.24174   0.31764   0.68483   0.00000  Uiso   1.00
N565   N     0.31678   0.15265   0.73783   0.00000  Uiso   1.00
N566   N     0.01656   0.18068   0.76217   0.00000  Uiso   1.00
N567   N     0.32229   0.25107   0.94980   0.00000  Uiso   1.00
N568   N     0.01211   0.08425   0.55001   0.00000  Uiso   1.00
N569   N     0.23804   0.00426   0.71505   0.00000  Uiso   1.00
N570   N     0.09927   0.32936   0.79088   0.00000  Uiso   1.00
O571   O     0.12975   0.24619   0.75298   0.00000  Uiso   1.00
O572   O     0.20358   0.08714   0.74701   0.00000  Uiso   1.00
O573   O     0.22613   0.23721   0.74518   0.00000  Uiso   1.00
O574   O     0.10720   0.09613   0.75481   0.00000  Uiso   1.00
O575   O     0.11847   0.17117   0.81997   0.00000  Uiso   1.00
O576   O     0.21486   0.16216   0.68002   0.00000  Uiso   1.00
O577   O     0.21485   0.16219   0.81217   0.00000  Uiso   1.00
O578   O     0.11848   0.17115   0.68782   0.00000  Uiso   1.00
Zn579  Zn    0.10231   0.17266   0.75521   0.00000  Uiso   1.00
Zn580  Zn    0.23102   0.16067   0.74479   0.00000  Uiso   1.00
C581   C     0.51529   0.26473   0.74933   0.00000  Uiso   1.00
C582   C     0.45574   0.18957   0.91029   0.00000  Uiso   1.00
C583   C     0.49865   0.16531   0.61552   0.00000  Uiso   1.00
C584   C     0.50157   0.16868   0.88442   0.00000  Uiso   1.00
C585   C     0.45292   0.18575   0.59589   0.00000  Uiso   1.00
C586   C     0.54741   0.14846   0.90405   0.00000  Uiso   1.00
C587   C     0.45346   0.18694   0.54974   0.00000  Uiso   1.00
C588   C     0.54714   0.14774   0.95018   0.00000  Uiso   1.00
C589   C     0.50013   0.16676   0.52319   0.00000  Uiso   1.00
C590   C     0.50056   0.16807   0.97672   0.00000  Uiso   1.00
C591   C     0.54626   0.14527   0.54317   0.00000  Uiso   1.00
C592   C     0.48505   0.06846   0.75170   0.00000  Uiso   1.00
C593   C     0.45442   0.18954   0.95673   0.00000  Uiso   1.00
C594   C     0.40817   0.20840   0.53001   0.00000  Uiso   1.00
C595   C     0.59257   0.12649   0.96990   0.00000  Uiso   1.00
C596   C     0.36050   0.23279   0.96483   0.00000  Uiso   1.00
C597   C     0.64045   0.10239   0.53503   0.00000  Uiso   1.00
C598   C     0.62609   0.01036   0.73537   0.00000  Uiso   1.00
C599   C     0.44751   0.32482   0.83661   0.00000  Uiso   1.00
C600   C     0.40825   0.20997   0.98364   0.00000  Uiso   1.00
C601   C     0.59256   0.12503   0.51625   0.00000  Uiso   1.00
C602   C     0.52323   0.31860   0.74435   0.00000  Uiso   1.00
C603   C     0.47955   0.01490   0.76039   0.00000  Uiso   1.00
C604   C     0.50063   0.16730   0.83662   0.00000  Uiso   1.00
C605   C     0.49941   0.16617   0.66337   0.00000  Uiso   1.00
C606   C     0.54475   0.14489   0.58960   0.00000  Uiso   1.00
H607   H     0.57935   0.12869   0.60589   0.00000  Uiso   1.00
H608   H     0.65886   0.03075   0.71193   0.00000  Uiso   1.00
H609   H     0.64199   0.30544   0.74259   0.00000  Uiso   1.00
H610   H     0.62167   0.03360   0.76698   0.00000  Uiso   1.00
H611   H     0.39489   0.01461   0.78917   0.00000  Uiso   1.00
H612   H     0.40961   0.30760   0.85729   0.00000  Uiso   1.00
H613   H     0.45990   0.03032   0.85079   0.00000  Uiso   1.00
H614   H     0.48386   0.29918   0.83819   0.00000  Uiso   1.00
H615   H     0.42115   0.20574   0.89396   0.00000  Uiso   1.00
H616   H     0.41753   0.20164   0.61652   0.00000  Uiso   1.00
H617   H     0.58266   0.13231   0.88345   0.00000  Uiso   1.00
H618   H     0.37261   0.22386   0.55080   0.00000  Uiso   1.00
H619   H     0.62811   0.11102   0.94910   0.00000  Uiso   1.00
H620   H     0.33831   0.12809   0.71579   0.00000  Uiso   1.00
H621   H     0.66176   0.20550   0.78404   0.00000  Uiso   1.00
H622   H     0.57508   0.31764   0.68483   0.00000  Uiso   1.00
N623   N     0.65011   0.15265   0.73783   0.00000  Uiso   1.00
N624   N     0.34989   0.18068   0.76217   0.00000  Uiso   1.00
N625   N     0.65562   0.25107   0.94980   0.00000  Uiso   1.00
N626   N     0.34544   0.08425   0.55001   0.00000  Uiso   1.00
N627   N     0.57137   0.00426   0.71505   0.00000  Uiso   1.00
N628   N     0.43261   0.32936   0.79088   0.00000  Uiso   1.00
O629   O     0.46308   0.24619   0.75298   0.00000  Uiso   1.00
O630   O     0.53692   0.08714   0.74701   0.00000  Uiso   1.00
O631   O     0.55946   0.23721   0.74518   0.00000  Uiso   1.00
O632   O     0.44054   0.09613   0.75481   0.00000  Uiso   1.00
O633   O     0.45181   0.17117   0.81997   0.00000  Uiso   1.00
O634   O     0.54819   0.16216   0.68002   0.00000  Uiso   1.00
O635   O     0.54819   0.16219   0.81217   0.00000  Uiso   1.00
O636   O     0.45181   0.17115   0.68782   0.00000  Uiso   1.00
Zn637  Zn    0.43565   0.17266   0.75521   0.00000  Uiso   1.00
Zn638  Zn    0.56435   0.16067   0.74479   0.00000  Uiso   1.00
C639   C     0.84862   0.26473   0.74933   0.00000  Uiso   1.00
C640   C     0.78908   0.18957   0.91029   0.00000  Uiso   1.00
C641   C     0.83199   0.16531   0.61552   0.00000  Uiso   1.00
C642   C     0.83491   0.16868   0.88442   0.00000  Uiso   1.00
C643   C     0.78626   0.18575   0.59589   0.00000  Uiso   1.00
C644   C     0.88074   0.14846   0.90405   0.00000  Uiso   1.00
C645   C     0.78680   0.18694   0.54974   0.00000  Uiso   1.00
C646   C     0.88047   0.14774   0.95018   0.00000  Uiso   1.00
C647   C     0.83346   0.16676   0.52319   0.00000  Uiso   1.00
C648   C     0.83389   0.16807   0.97672   0.00000  Uiso   1.00
C649   C     0.87960   0.14527   0.54317   0.00000  Uiso   1.00
C650   C     0.81838   0.06846   0.75170   0.00000  Uiso   1.00
C651   C     0.78776   0.18954   0.95673   0.00000  Uiso   1.00
C652   C     0.74150   0.20840   0.53001   0.00000  Uiso   1.00
C653   C     0.92590   0.12649   0.96990   0.00000  Uiso   1.00
C654   C     0.69383   0.23279   0.96483   0.00000  Uiso   1.00
C655   C     0.97378   0.10239   0.53503   0.00000  Uiso   1.00
C656   C     0.95942   0.01036   0.73537   0.00000  Uiso   1.00
C657   C     0.78084   0.32482   0.83661   0.00000  Uiso   1.00
C658   C     0.74158   0.20997   0.98364   0.00000  Uiso   1.00
C659   C     0.92590   0.12503   0.51625   0.00000  Uiso   1.00
C660   C     0.85657   0.31860   0.74435   0.00000  Uiso   1.00
C661   C     0.81288   0.01490   0.76039   0.00000  Uiso   1.00
C662   C     0.83396   0.16730   0.83662   0.00000  Uiso   1.00
C663   C     0.83274   0.16617   0.66337   0.00000  Uiso   1.00
C664   C     0.87808   0.14489   0.58960   0.00000  Uiso   1.00
H665   H     0.91269   0.12869   0.60589   0.00000  Uiso   1.00
H666   H     0.99219   0.03075   0.71193   0.00000  Uiso   1.00
H667   H     0.97532   0.30544   0.74259   0.00000  Uiso   1.00
H668   H     0.95501   0.03360   0.76698   0.00000  Uiso   1.00
H669   H     0.72822   0.01461   0.78917   0.00000  Uiso   1.00
H670   H     0.74294   0.30760   0.85729   0.00000  Uiso   1.00
H671   H     0.79323   0.03032   0.85079   0.00000  Uiso   1.00
H672   H     0.81720   0.29918   0.83819   0.00000  Uiso   1.00
H673   H     0.75448   0.20574   0.89396   0.00000  Uiso   1.00
H674   H     0.75086   0.20164   0.61652   0.00000  Uiso   1.00
H675   H     0.91600   0.13231   0.88345   0.00000  Uiso   1.00
H676   H     0.70595   0.22386   0.55080   0.00000  Uiso   1.00
H677   H     0.96144   0.11102   0.94910   0.00000  Uiso   1.00
H678   H     0.67164   0.12809   0.71579   0.00000  Uiso   1.00
H679   H     0.99510   0.20550   0.78404   0.00000  Uiso   1.00
H680   H     0.90841   0.31764   0.68483   0.00000  Uiso   1.00
N681   N     0.98344   0.15265   0.73783   0.00000  Uiso   1.00
N682   N     0.68322   0.18068   0.76217   0.00000  Uiso   1.00
N683   N     0.98896   0.25107   0.94980   0.00000  Uiso   1.00
N684   N     0.67878   0.08425   0.55001   0.00000  Uiso   1.00
N685   N     0.90471   0.00426   0.71505   0.00000  Uiso   1.00
N686   N     0.76594   0.32936   0.79088   0.00000  Uiso   1.00
O687   O     0.79642   0.24619   0.75298   0.00000  Uiso   1.00
O688   O     0.87025   0.08714   0.74701   0.00000  Uiso   1.00
O689   O     0.89280   0.23721   0.74518   0.00000  Uiso   1.00
O690   O     0.77387   0.09613   0.75481   0.00000  Uiso   1.00
O691   O     0.78514   0.17117   0.81997   0.00000  Uiso   1.00
O692   O     0.88153   0.16216   0.68002   0.00000  Uiso   1.00
O693   O     0.88152   0.16219   0.81217   0.00000  Uiso   1.00
O694   O     0.78515   0.17115   0.68782   0.00000  Uiso   1.00
Zn695  Zn    0.76898   0.17266   0.75521   0.00000  Uiso   1.00
Zn696  Zn    0.89769   0.16067   0.74479   0.00000  Uiso   1.00
C697   C     0.18195   0.59807   0.74933   0.00000  Uiso   1.00
C698   C     0.12241   0.52290   0.91029   0.00000  Uiso   1.00
C699   C     0.16532   0.49864   0.61552   0.00000  Uiso   1.00
C700   C     0.16824   0.50202   0.88442   0.00000  Uiso   1.00
C701   C     0.11959   0.51908   0.59589   0.00000  Uiso   1.00
C702   C     0.21408   0.48179   0.90405   0.00000  Uiso   1.00
C703   C     0.12013   0.52027   0.54974   0.00000  Uiso   1.00
C704   C     0.21381   0.48108   0.95018   0.00000  Uiso   1.00
C705   C     0.16680   0.50009   0.52319   0.00000  Uiso   1.00
C706   C     0.16723   0.50140   0.97672   0.00000  Uiso   1.00
C707   C     0.21293   0.47861   0.54317   0.00000  Uiso   1.00
C708   C     0.15172   0.40179   0.75170   0.00000  Uiso   1.00
C709   C     0.12109   0.52287   0.95673   0.00000  Uiso   1.00
C710   C     0.07483   0.54174   0.53001   0.00000  Uiso   1.00
C711   C     0.25923   0.45982   0.96990   0.00000  Uiso   1.00
C712   C     0.02716   0.56613   0.96483   0.00000  Uiso   1.00
C713   C     0.30712   0.43572   0.53503   0.00000  Uiso   1.00
C714   C     0.29276   0.34370   0.73537   0.00000  Uiso   1.00
C715   C     0.11418   0.65815   0.83661   0.00000  Uiso   1.00
C716   C     0.07491   0.54331   0.98364   0.00000  Uiso   1.00
C717   C     0.25923   0.45837   0.51625   0.00000  Uiso   1.00
C718   C     0.18990   0.65193   0.74435   0.00000  Uiso   1.00
C719   C     0.14622   0.34823   0.76039   0.00000  Uiso   1.00
C720   C     0.16729   0.50063   0.83662   0.00000  Uiso   1.00
C721   C     0.16607   0.49950   0.66337   0.00000  Uiso   1.00
C722   C     0.21141   0.47823   0.58960   0.00000  Uiso   1.00
H723   H     0.24602   0.46202   0.60589   0.00000  Uiso   1.00
H724   H     0.32552   0.36408   0.71193   0.00000  Uiso   1.00
H725   H     0.30865   0.63878   0.74259   0.00000  Uiso   1.00
H726   H     0.28834   0.36693   0.76698   0.00000  Uiso   1.00
H727   H     0.06155   0.34794   0.78917   0.00000  Uiso   1.00
H728   H     0.07627   0.64093   0.85729   0.00000  Uiso   1.00
H729   H     0.12657   0.36365   0.85079   0.00000  Uiso   1.00
H730   H     0.15053   0.63251   0.83819   0.00000  Uiso   1.00
H731   H     0.08781   0.53907   0.89396   0.00000  Uiso   1.00
H732   H     0.08419   0.53497   0.61652   0.00000  Uiso   1.00
H733   H     0.24933   0.46564   0.88345   0.00000  Uiso   1.00
H734   H     0.03928   0.55720   0.55080   0.00000  Uiso   1.00
H735   H     0.29478   0.44436   0.94910   0.00000  Uiso   1.00
H736   H     0.00498   0.46142   0.71579   0.00000  Uiso   1.00
H737   H     0.32843   0.53883   0.78404   0.00000  Uiso   1.00
H738   H     0.24174   0.65098   0.68483   0.00000  Uiso   1.00
N739   N     0.31678   0.48598   0.73783   0.00000  Uiso   1.00
N740   N     0.01656   0.51402   0.76217   0.00000  Uiso   1.00
N741   N     0.32229   0.58441   0.94980   0.00000  Uiso   1.00
N742   N     0.01211   0.41758   0.55001   0.00000  Uiso   1.00
N743   N     0.23804   0.33759   0.71505   0.00000  Uiso   1.00
N744   N     0.09927   0.66270   0.79088   0.00000  Uiso   1.00
O745   O     0.12975   0.57952   0.75298   0.00000  Uiso   1.00
O746   O     0.20358   0.42048   0.74701   0.00000  Uiso   1.00
O747   O     0.22613   0.57054   0.74518   0.00000  Uiso   1.00
O748   O     0.10720   0.42946   0.75481   0.00000  Uiso   1.00
O749   O     0.11847   0.50450   0.81997   0.00000  Uiso   1.00
O750   O     0.21486   0.49550   0.68002   0.00000  Uiso   1.00
O751   O     0.21485   0.49552   0.81217   0.00000  Uiso   1.00
O752   O     0.11848   0.50448   0.68782   0.00000  Uiso   1.00
Zn753  Zn    0.10231   0.50600   0.75521   0.00000  Uiso   1.00
Zn754  Zn    0.23102   0.49400   0.74479   0.00000  Uiso   1.00
C755   C     0.51529   0.59807   0.74933   0.00000  Uiso   1.00
C756   C     0.45574   0.52290   0.91029   0.00000  Uiso   1.00
C757   C     0.49865   0.49864   0.61552   0.00000  Uiso   1.00
C758   C     0.50157   0.50202   0.88442   0.00000  Uiso   1.00
C759   C     0.45292   0.51908   0.59589   0.00000  Uiso   1.00
C760   C     0.54741   0.48179   0.90405   0.00000  Uiso   1.00
C761   C     0.45346   0.52027   0.54974   0.00000  Uiso   1.00
C762   C     0.54714   0.48108   0.95018   0.00000  Uiso   1.00
C763   C     0.50013   0.50009   0.52319   0.00000  Uiso   1.00
C764   C     0.50056   0.50140   0.97672   0.00000  Uiso   1.00
C765   C     0.54626   0.47861   0.54317   0.00000  Uiso   1.00
C766   C     0.48505   0.40179   0.75170   0.00000  Uiso   1.00
C767   C     0.45442   0.52287   0.95673   0.00000  Uiso   1.00
C768   C     0.40817   0.54174   0.53001   0.00000  Uiso   1.00
C769   C     0.59257   0.45982   0.96990   0.00000  Uiso   1.00
C770   C     0.36050   0.56613   0.96483   0.00000  Uiso   1.00
C771   C     0.64045   0.43572   0.53503   0.00000  Uiso   1.00
C772   C     0.62609   0.34370   0.73537   0.00000  Uiso   1.00
C773   C     0.44751   0.65815   0.83661   0.00000  Uiso   1.00
C774   C     0.40825   0.54331   0.98364   0.00000  Uiso   1.00
C775   C     0.59256   0.45837   0.51625   0.00000  Uiso   1.00
C776   C     0.52323   0.65193   0.74435   0.00000  Uiso   1.00
C777   C     0.47955   0.34823   0.76039   0.00000  Uiso   1.00
C778   C     0.50063   0.50063   0.83662   0.00000  Uiso   1.00
C779   C     0.49941   0.49950   0.66337   0.00000  Uiso   1.00
C780   C     0.54475   0.47823   0.58960   0.00000  Uiso   1.00
H781   H     0.57935   0.46202   0.60589   0.00000  Uiso   1.00
H782   H     0.65886   0.36408   0.71193   0.00000  Uiso   1.00
H783   H     0.64199   0.63878   0.74259   0.00000  Uiso   1.00
H784   H     0.62167   0.36693   0.76698   0.00000  Uiso   1.00
H785   H     0.39489   0.34794   0.78917   0.00000  Uiso   1.00
H786   H     0.40961   0.64093   0.85729   0.00000  Uiso   1.00
H787   H     0.45990   0.36365   0.85079   0.00000  Uiso   1.00
H788   H     0.48386   0.63251   0.83819   0.00000  Uiso   1.00
H789   H     0.42115   0.53907   0.89396   0.00000  Uiso   1.00
H790   H     0.41753   0.53497   0.61652   0.00000  Uiso   1.00
H791   H     0.58266   0.46564   0.88345   0.00000  Uiso   1.00
H792   H     0.37261   0.55720   0.55080   0.00000  Uiso   1.00
H793   H     0.62811   0.44436   0.94910   0.00000  Uiso   1.00
H794   H     0.33831   0.46142   0.71579   0.00000  Uiso   1.00
H795   H     0.66176   0.53883   0.78404   0.00000  Uiso   1.00
H796   H     0.57508   0.65098   0.68483   0.00000  Uiso   1.00
N797   N     0.65011   0.48598   0.73783   0.00000  Uiso   1.00
N798   N     0.34989   0.51402   0.76217   0.00000  Uiso   1.00
N799   N     0.65562   0.58441   0.94980   0.00000  Uiso   1.00
N800   N     0.34544   0.41758   0.55001   0.00000  Uiso   1.00
N801   N     0.57137   0.33759   0.71505   0.00000  Uiso   1.00
N802   N     0.43261   0.66270   0.79088   0.00000  Uiso   1.00
O803   O     0.46308   0.57952   0.75298   0.00000  Uiso   1.00
O804   O     0.53692   0.42048   0.74701   0.00000  Uiso   1.00
O805   O     0.55946   0.57054   0.74518   0.00000  Uiso   1.00
O806   O     0.44054   0.42946   0.75481   0.00000  Uiso   1.00
O807   O     0.45181   0.50450   0.81997   0.00000  Uiso   1.00
O808   O     0.54819   0.49550   0.68002   0.00000  Uiso   1.00
O809   O     0.54819   0.49552   0.81217   0.00000  Uiso   1.00
O810   O     0.45181   0.50448   0.68782   0.00000  Uiso   1.00
Zn811  Zn    0.43565   0.50600   0.75521   0.00000  Uiso   1.00
Zn812  Zn    0.56435   0.49400   0.74479   0.00000  Uiso   1.00
C813   C     0.84862   0.59807   0.74933   0.00000  Uiso   1.00
C814   C     0.78908   0.52290   0.91029   0.00000  Uiso   1.00
C815   C     0.83199   0.49864   0.61552   0.00000  Uiso   1.00
C816   C     0.83491   0.50202   0.88442   0.00000  Uiso   1.00
C817   C     0.78626   0.51908   0.59589   0.00000  Uiso   1.00
C818   C     0.88074   0.48179   0.90405   0.00000  Uiso   1.00
C819   C     0.78680   0.52027   0.54974   0.00000  Uiso   1.00
C820   C     0.88047   0.48108   0.95018   0.00000  Uiso   1.00
C821   C     0.83346   0.50009   0.52319   0.00000  Uiso   1.00
C822   C     0.83389   0.50140   0.97672   0.00000  Uiso   1.00
C823   C     0.87960   0.47861   0.54317   0.00000  Uiso   1.00
C824   C     0.81838   0.40179   0.75170   0.00000  Uiso   1.00
C825   C     0.78776   0.52287   0.95673   0.00000  Uiso   1.00
C826   C     0.74150   0.54174   0.53001   0.00000  Uiso   1.00
C827   C     0.92590   0.45982   0.96990   0.00000  Uiso   1.00
C828   C     0.69383   0.56613   0.96483   0.00000  Uiso   1.00
C829   C     0.97378   0.43572   0.53503   0.00000  Uiso   1.00
C830   C     0.95942   0.34370   0.73537   0.00000  Uiso   1.00
C831   C     0.78084   0.65815   0.83661   0.00000  Uiso   1.00
C832   C     0.74158   0.54331   0.98364   0.00000  Uiso   1.00
C833   C     0.92590   0.45837   0.51625   0.00000  Uiso   1.00
C834   C     0.85657   0.65193   0.74435   0.00000  Uiso   1.00
C835   C     0.81288   0.34823   0.76039   0.00000  Uiso   1.00
C836   C     0.83396   0.50063   0.83662   0.00000  Uiso   1.00
C837   C     0.83274   0.49950   0.66337   0.00000  Uiso   1.00
C838   C     0.87808   0.47823   0.58960   0.00000  Uiso   1.00
H839   H     0.91269   0.46202   0.60589   0.00000  Uiso   1.00
H840   H     0.99219   0.36408   0.71193   0.00000  Uiso   1.00
H841   H     0.97532   0.63878   0.74259   0.00000  Uiso   1.00
H842   H     0.95501   0.36693   0.76698   0.00000  Uiso   1.00
H843   H     0.72822   0.34794   0.78917   0.00000  Uiso   1.00
H844   H     0.74294   0.64093   0.85729   0.00000  Uiso   1.00
H845   H     0.79323   0.36365   0.85079   0.00000  Uiso   1.00
H846   H     0.81720   0.63251   0.83819   0.00000  Uiso   1.00
H847   H     0.75448   0.53907   0.89396   0.00000  Uiso   1.00
H848   H     0.75086   0.53497   0.61652   0.00000  Uiso   1.00
H849   H     0.91600   0.46564   0.88345   0.00000  Uiso   1.00
H850   H     0.70595   0.55720   0.55080   0.00000  Uiso   1.00
H851   H     0.96144   0.44436   0.94910   0.00000  Uiso   1.00
H852   H     0.67164   0.46142   0.71579   0.00000  Uiso   1.00
H853   H     0.99510   0.53883   0.78404   0.00000  Uiso   1.00
H854   H     0.90841   0.65098   0.68483   0.00000  Uiso   1.00
N855   N     0.98344   0.48598   0.73783   0.00000  Uiso   1.00
N856   N     0.68322   0.51402   0.76217   0.00000  Uiso   1.00
N857   N     0.98896   0.58441   0.94980   0.00000  Uiso   1.00
N858   N     0.67878   0.41758   0.55001   0.00000  Uiso   1.00
N859   N     0.90471   0.33759   0.71505   0.00000  Uiso   1.00
N860   N     0.76594   0.66270   0.79088   0.00000  Uiso   1.00
O861   O     0.79642   0.57952   0.75298   0.00000  Uiso   1.00
O862   O     0.87025   0.42048   0.74701   0.00000  Uiso   1.00
O863   O     0.89280   0.57054   0.74518   0.00000  Uiso   1.00
O864   O     0.77387   0.42946   0.75481   0.00000  Uiso   1.00
O865   O     0.78514   0.50450   0.81997   0.00000  Uiso   1.00
O866   O     0.88153   0.49550   0.68002   0.00000  Uiso   1.00
O867   O     0.88152   0.49552   0.81217   0.00000  Uiso   1.00
O868   O     0.78515   0.50448   0.68782   0.00000  Uiso   1.00
Zn869  Zn    0.76898   0.50600   0.75521   0.00000  Uiso   1.00
Zn870  Zn    0.89769   0.49400   0.74479   0.00000  Uiso   1.00
C871   C     0.18195   0.93140   0.74933   0.00000  Uiso   1.00
C872   C     0.12241   0.85623   0.91029   0.00000  Uiso   1.00
C873   C     0.16532   0.83197   0.61552   0.00000  Uiso   1.00
C874   C     0.16824   0.83535   0.88442   0.00000  Uiso   1.00
C875   C     0.11959   0.85241   0.59589   0.00000  Uiso   1.00
C876   C     0.21408   0.81512   0.90405   0.00000  Uiso   1.00
C877   C     0.12013   0.85361   0.54974   0.00000  Uiso   1.00
C878   C     0.21381   0.81441   0.95018   0.00000  Uiso   1.00
C879   C     0.16680   0.83343   0.52319   0.00000  Uiso   1.00
C880   C     0.16723   0.83474   0.97672   0.00000  Uiso   1.00
C881   C     0.21293   0.81194   0.54317   0.00000  Uiso   1.00
C882   C     0.15172   0.73512   0.75170   0.00000  Uiso   1.00
C883   C     0.12109   0.85620   0.95673   0.00000  Uiso   1.00
C884   C     0.07483   0.87507   0.53001   0.00000  Uiso   1.00
C885   C     0.25923   0.79316   0.96990   0.00000  Uiso   1.00
C886   C     0.02716   0.89946   0.96483   0.00000  Uiso   1.00
C887   C     0.30712   0.76906   0.53503   0.00000  Uiso   1.00
C888   C     0.29276   0.67703   0.73537   0.00000  Uiso   1.00
C889   C     0.11418   0.99148   0.83661   0.00000  Uiso   1.00
C890   C     0.07491   0.87664   0.98364   0.00000  Uiso   1.00
C891   C     0.25923   0.79170   0.51625   0.00000  Uiso   1.00
C892   C     0.18990   0.98526   0.74435   0.00000  Uiso   1.00
C893   C     0.14622   0.68157   0.76039   0.00000  Uiso   1.00
C894   C     0.16729   0.83397   0.83662   0.00000  Uiso   1.00
C895   C     0.16607   0.83284   0.66337   0.00000  Uiso   1.00
C896   C     0.21141   0.81156   0.58960   0.00000  Uiso   1.00
H897   H     0.24602   0.79535   0.60589   0.00000  Uiso   1.00
H898   H     0.32552   0.69742   0.71193   0.00000  Uiso   1.00
H899   H     0.30865   0.97211   0.74259   0.00000  Uiso   1.00
H900   H     0.28834   0.70027   0.76698   0.00000  Uiso   1.00
H901   H     0.06155   0.68128   0.78917   0.00000  Uiso   1.00
H902   H     0.07627   0.97427   0.85729   0.00000  Uiso   1.00
H903   H     0.12657   0.69699   0.85079   0.00000  Uiso   1.00
H904   H     0.15053   0.96585   0.83819   0.00000  Uiso   1.00
H905   H     0.08781   0.87240   0.89396   0.00000  Uiso   1.00
H906   H     0.08419   0.86831   0.61652   0.00000  Uiso   1.00
H907   H     0.24933   0.79897   0.88345   0.00000  Uiso   1.00
H908   H     0.03928   0.89053   0.55080   0.00000  Uiso   1.00
H909   H     0.29478   0.77769   0.94910   0.00000  Uiso   1.00
H910   H     0.00498   0.79476   0.71579   0.00000  Uiso   1.00
H911   H     0.32843   0.87216   0.78404   0.00000  Uiso   1.00
H912   H     0.24174   0.98431   0.68483   0.00000  Uiso   1.00
N913   N     0.31678   0.81932   0.73783   0.00000  Uiso   1.00
N914   N     0.01656   0.84735   0.76217   0.00000  Uiso   1.00
N915   N     0.32229   0.91774   0.94980   0.00000  Uiso   1.00
N916   N     0.01211   0.75091   0.55001   0.00000  Uiso   1.00
N917   N     0.23804   0.67093   0.71505   0.00000  Uiso   1.00
N918   N     0.09927   0.99603   0.79088   0.00000  Uiso   1.00
O919   O     0.12975   0.91286   0.75298   0.00000  Uiso   1.00
O920   O     0.20358   0.75381   0.74701   0.00000  Uiso   1.00
O921   O     0.22613   0.90387   0.74518   0.00000  Uiso   1.00
O922   O     0.10720   0.76279   0.75481   0.00000  Uiso   1.00
O923   O     0.11847   0.83784   0.81997   0.00000  Uiso   1.00
O924   O     0.21486   0.82883   0.68002   0.00000  Uiso   1.00
O925   O     0.21485   0.82885   0.81217   0.00000  Uiso   1.00
O926   O     0.11848   0.83781   0.68782   0.00000  Uiso   1.00
Zn927  Zn    0.10231   0.83933   0.75521   0.00000  Uiso   1.00
Zn928  Zn    0.23102   0.82734   0.74479   0.00000  Uiso   1.00
C929   C     0.51529   0.93140   0.74933   0.00000  Uiso   1.00
C930   C     0.45574   0.85623   0.91029   0.00000  Uiso   1.00
C931   C     0.49865   0.83197   0.61552   0.00000  Uiso   1.00
C932   C     0.50157   0.83535   0.88442   0.00000  Uiso   1.00
C933   C     0.45292   0.85241   0.59589   0.00000  Uiso   1.00
C934   C     0.54741   0.81512   0.90405   0.00000  Uiso   1.00
C935   C     0.45346   0.85361   0.54974   0.00000  Uiso   1.00
C936   C     0.54714   0.81441   0.95018   0.00000  Uiso   1.00
C937   C     0.50013   0.83343   0.52319   0.00000  Uiso   1.00
C938   C     0.50056   0.83474   0.97672   0.00000  Uiso   1.00
C939   C     0.54626   0.81194   0.54317   0.00000  Uiso   1.00
C940   C     0.48505   0.73512   0.75170   0.00000  Uiso   1.00
C941   C     0.45442   0.85620   0.95673   0.00000  Uiso   1.00
C942   C     0.40817   0.87507   0.53001   0.00000  Uiso   1.00
C943   C     0.59257   0.79316   0.96990   0.00000  Uiso   1.00
C944   C     0.36050   0.89946   0.96483   0.00000  Uiso   1.00
C945   C     0.64045   0.76906   0.53503   0.00000  Uiso   1.00
C946   C     0.62609   0.67703   0.73537   0.00000  Uiso   1.00
C947   C     0.44751   0.99148   0.83661   0.00000  Uiso   1.00
C948   C     0.40825   0.87664   0.98364   0.00000  Uiso   1.00
C949   C     0.59256   0.79170   0.51625   0.00000  Uiso   1.00
C950   C     0.52323   0.98526   0.74435   0.00000  Uiso   1.00
C951   C     0.47955   0.68157   0.76039   0.00000  Uiso   1.00
C952   C     0.50063   0.83397   0.83662   0.00000  Uiso   1.00
C953   C     0.49941   0.83284   0.66337   0.00000  Uiso   1.00
C954   C     0.54475   0.81156   0.58960   0.00000  Uiso   1.00
H955   H     0.57935   0.79535   0.60589   0.00000  Uiso   1.00
H956   H     0.65886   0.69742   0.71193   0.00000  Uiso   1.00
H957   H     0.64199   0.97211   0.74259   0.00000  Uiso   1.00
H958   H     0.62167   0.70027   0.76698   0.00000  Uiso   1.00
H959   H     0.39489   0.68128   0.78917   0.00000  Uiso   1.00
H960   H     0.40961   0.97427   0.85729   0.00000  Uiso   1.00
H961   H     0.45990   0.69699   0.85079   0.00000  Uiso   1.00
H962   H     0.48386   0.96585   0.83819   0.00000  Uiso   1.00
H963   H     0.42115   0.87240   0.89396   0.00000  Uiso   1.00
H964   H     0.41753   0.86831   0.61652   0.00000  Uiso   1.00
H965   H     0.58266   0.79897   0.88345   0.00000  Uiso   1.00
H966   H     0.37261   0.89053   0.55080   0.00000  Uiso   1.00
H967   H     0.62811   0.77769   0.94910   0.00000  Uiso   1.00
H968   H     0.33831   0.79476   0.71579   0.00000  Uiso   1.00
H969   H     0.66176   0.87216   0.78404   0.00000  Uiso   1.00
H970   H     0.57508   0.98431   0.68483   0.00000  Uiso   1.00
N971   N     0.65011   0.81932   0.73783   0.00000  Uiso   1.00
N972   N     0.34989   0.84735   0.76217   0.00000  Uiso   1.00
N973   N     0.65562   0.91774   0.94980   0.00000  Uiso   1.00
N974   N     0.34544   0.75091   0.55001   0.00000  Uiso   1.00
N975   N     0.57137   0.67093   0.71505   0.00000  Uiso   1.00
N976   N     0.43261   0.99603   0.79088   0.00000  Uiso   1.00
O977   O     0.46308   0.91286   0.75298   0.00000  Uiso   1.00
O978   O     0.53692   0.75381   0.74701   0.00000  Uiso   1.00
O979   O     0.55946   0.90387   0.74518   0.00000  Uiso   1.00
O980   O     0.44054   0.76279   0.75481   0.00000  Uiso   1.00
O981   O     0.45181   0.83784   0.81997   0.00000  Uiso   1.00
O982   O     0.54819   0.82883   0.68002   0.00000  Uiso   1.00
O983   O     0.54819   0.82885   0.81217   0.00000  Uiso   1.00
O984   O     0.45181   0.83781   0.68782   0.00000  Uiso   1.00
Zn985  Zn    0.43565   0.83933   0.75521   0.00000  Uiso   1.00
Zn986  Zn    0.56435   0.82734   0.74479   0.00000  Uiso   1.00
C987   C     0.84862   0.93140   0.74933   0.00000  Uiso   1.00
C988   C     0.78908   0.85623   0.91029   0.00000  Uiso   1.00
C989   C     0.83199   0.83197   0.61552   0.00000  Uiso   1.00
C990   C     0.83491   0.83535   0.88442   0.00000  Uiso   1.00
C991   C     0.78626   0.85241   0.59589   0.00000  Uiso   1.00
C992   C     0.88074   0.81512   0.90405   0.00000  Uiso   1.00
C993   C     0.78680   0.85361   0.54974   0.00000  Uiso   1.00
C994   C     0.88047   0.81441   0.95018   0.00000  Uiso   1.00
C995   C     0.83346   0.83343   0.52319   0.00000  Uiso   1.00
C996   C     0.83389   0.83474   0.97672   0.00000  Uiso   1.00
C997   C     0.87960   0.81194   0.54317   0.00000  Uiso   1.00
C998   C     0.81838   0.73512   0.75170   0.00000  Uiso   1.00
C999   C     0.78776   0.85620   0.95673   0.00000  Uiso   1.00
C1000  C     0.74150   0.87507   0.53001   0.00000  Uiso   1.00
C1001  C     0.92590   0.79316   0.96990   0.00000  Uiso   1.00
C1002  C     0.69383   0.89946   0.96483   0.00000  Uiso   1.00
C1003  C     0.97378   0.76906   0.53503   0.00000  Uiso   1.00
C1004  C     0.95942   0.67703   0.73537   0.00000  Uiso   1.00
C1005  C     0.78084   0.99148   0.83661   0.00000  Uiso   1.00
C1006  C     0.74158   0.87664   0.98364   0.00000  Uiso   1.00
C1007  C     0.92590   0.79170   0.51625   0.00000  Uiso   1.00
C1008  C     0.85657   0.98526   0.74435   0.00000  Uiso   1.00
C1009  C     0.81288   0.68157   0.76039   0.00000  Uiso   1.00
C1010  C     0.83396   0.83397   0.83662   0.00000  Uiso   1.00
C1011  C     0.83274   0.83284   0.66337   0.00000  Uiso   1.00
C1012  C     0.87808   0.81156   0.58960   0.00000  Uiso   1.00
H1013  H     0.91269   0.79535   0.60589   0.00000  Uiso   1.00
H1014  H     0.99219   0.69742   0.71193   0.00000  Uiso   1.00
H1015  H     0.97532   0.97211   0.74259   0.00000  Uiso   1.00
H1016  H     0.95501   0.70027   0.76698   0.00000  Uiso   1.00
H1017  H     0.72822   0.68128   0.78917   0.00000  Uiso   1.00
H1018  H     0.74294   0.97427   0.85729   0.00000  Uiso   1.00
H1019  H     0.79323   0.69699   0.85079   0.00000  Uiso   1.00
H1020  H     0.81720   0.96585   0.83819   0.00000  Uiso   1.00
H1021  H     0.75448   0.87240   0.89396   0.00000  Uiso   1.00
H1022  H     0.75086   0.86831   0.61652   0.00000  Uiso   1.00
H1023  H     0.91600   0.79897   0.88345   0.00000  Uiso   1.00
H1024  H     0.70595   0.89053   0.55080   0.00000  Uiso   1.00
H1025  H     0.96144   0.77769   0.94910   0.00000  Uiso   1.00
H1026  H     0.67164   0.79476   0.71579   0.00000  Uiso   1.00
H1027  H     0.99510   0.87216   0.78404   0.00000  Uiso   1.00
H1028  H     0.90841   0.98431   0.68483   0.00000  Uiso   1.00
N1029  N     0.98344   0.81932   0.73783   0.00000  Uiso   1.00
N1030  N     0.68322   0.84735   0.76217   0.00000  Uiso   1.00
N1031  N     0.98896   0.91774   0.94980   0.00000  Uiso   1.00
N1032  N     0.67878   0.75091   0.55001   0.00000  Uiso   1.00
N1033  N     0.90471   0.67093   0.71505   0.00000  Uiso   1.00
N1034  N     0.76594   0.99603   0.79088   0.00000  Uiso   1.00
O1035  O     0.79642   0.91286   0.75298   0.00000  Uiso   1.00
O1036  O     0.87025   0.75381   0.74701   0.00000  Uiso   1.00
O1037  O     0.89280   0.90387   0.74518   0.00000  Uiso   1.00
O1038  O     0.77387   0.76279   0.75481   0.00000  Uiso   1.00
O1039  O     0.78514   0.83784   0.81997   0.00000  Uiso   1.00
O1040  O     0.88153   0.82883   0.68002   0.00000  Uiso   1.00
O1041  O     0.88152   0.82885   0.81217   0.00000  Uiso   1.00
O1042  O     0.78515   0.83781   0.68782   0.00000  Uiso   1.00
Zn1043 Zn    0.76898   0.83933   0.75521   0.00000  Uiso   1.00
Zn1044 Zn    0.89769   0.82734   0.74479   0.00000  Uiso   1.00
loop_
_geom_bond_atom_site_label_1
_geom_bond_atom_site_label_2
_geom_bond_distance
_geom_bond_site_symmetry_2
_ccdc_geom_bond_type
C1     C22     1.404   .     S
C1     O51     1.282   .     A
C1     O49     1.272   .     A
C2     H35     1.083   .     S
C2     C4      1.396   .     A
C2     C13     1.389   .     A
C3     C26     1.396   .     A
C3     C25     1.434   .     S
C3     C5      1.392   .     A
C4     C6      1.391   .     A
C4     C24     1.433   .     S
C5     C7      1.382   .     A
C5     H36     1.085   .     S
C6     H37     1.085   .     S
C6     C8      1.382   .     A
C7     C14     1.397   .     A
C7     C9      1.413   .     A
C8     C15     1.397   .     A
C8     C10     1.413   .     A
C9     C11     1.417   .     A
C9     C532    1.392   1_554 S
C10    C13     1.417   .     A
C10    C531    1.392   .     S
C11    C26     1.388   .     A
C11    C21     1.413   .     A
C12    O50     1.267   .     A
C12    C23     1.412   .     S
C12    O52     1.291   .     A
C13    C20     1.413   .     A
C14    H38     1.086   .     S
C14    C542    1.390   1_554 S
C15    H39     1.086   .     S
C15    C543    1.390   .     S
C16    C20     1.447   .     S
C16    N161    1.157   1_455 S
C17    C21     1.447   .     S
C17    N104    1.157   .     S
C18    H30     1.111   .     S
C18    N47     1.450   .     S
C18    H28     1.110   .     S
C18    H377    1.110   1_545 S
C19    H32     1.111   .     S
C19    N48     1.448   .     S
C19    H34     1.111   .     S
C19    H207    1.112   .     S
C20    C536    1.390   .     S
C21    C537    1.390   1_554 S
C22    C197    1.361   .     S
C22    N221    1.434   .     S
C23    C370    1.361   1_545 S
C23    N396    1.434   1_545 S
C24    O55     1.288   .     A
C24    O53     1.284   .     A
C25    O56     1.289   .     A
C25    O54     1.284   .     A
C26    H27     1.083   .     S
H29    C192    1.110   .     S
H31    N396    1.031   1_545 S
H33    C367    1.112   1_545 S
H40    N159    1.029   1_455 S
H41    N102    1.029   .     S
H42    N221    1.032   .     S
N43    Zn58    2.009   .     S
N43    H98     1.029   .     S
N43    N102    1.281   .     S
N44    Zn57    2.009   .     S
N44    N159    1.281   1_455 S
N44    H157    1.029   1_455 S
N45    C74     1.157   .     S
N46    C133    1.157   1_455 S
N47    C370    1.434   1_545 S
N47    H390    1.032   1_545 S
N48    H205    1.031   .     S
N48    C197    1.434   .     S
O49    Zn57    1.969   .     S
O50    Zn58    1.969   .     S
O51    Zn58    1.991   .     S
O52    Zn57    1.991   .     S
O53    Zn57    2.006   .     S
O54    Zn58    2.006   .     S
O55    Zn58    2.023   .     S
O56    Zn57    2.023   .     S
C59    C80     1.404   .     S
C59    O109    1.282   .     A
C59    O107    1.272   .     A
C60    H93     1.083   .     S
C60    C62     1.396   .     A
C60    C71     1.389   .     A
C61    C84     1.396   .     A
C61    C83     1.434   .     S
C61    C63     1.392   .     A
C62    C64     1.391   .     A
C62    C82     1.433   .     S
C63    C65     1.382   .     A
C63    H94     1.085   .     S
C64    H95     1.085   .     S
C64    C66     1.382   .     A
C65    C72     1.397   .     A
C65    C67     1.413   .     A
C66    C73     1.397   .     A
C66    C68     1.413   .     A
C67    C69     1.417   .     A
C67    C590    1.392   1_554 S
C68    C71     1.417   .     A
C68    C589    1.392   .     S
C69    C84     1.388   .     A
C69    C79     1.413   .     A
C70    O108    1.267   .     A
C70    C81     1.412   .     S
C70    O110    1.291   .     A
C71    C78     1.413   .     A
C72    H96     1.086   .     S
C72    C600    1.390   1_554 S
C73    H97     1.086   .     S
C73    C601    1.390   .     S
C74    C78     1.447   .     S
C75    C79     1.447   .     S
C75    N162    1.157   .     S
C76    H88     1.111   .     S
C76    N105    1.450   .     S
C76    H86     1.110   .     S
C76    H435    1.110   1_545 S
C77    H90     1.111   .     S
C77    N106    1.448   .     S
C77    H92     1.111   .     S
C77    H265    1.112   .     S
C78    C594    1.390   .     S
C79    C595    1.390   1_554 S
C80    C255    1.361   .     S
C80    N279    1.434   .     S
C81    C428    1.361   1_545 S
C81    N454    1.434   1_545 S
C82    O113    1.288   .     A
C82    O111    1.284   .     A
C83    O114    1.289   .     A
C83    O112    1.284   .     A
C84    H85     1.083   .     S
H87    C250    1.110   .     S
H89    N454    1.031   1_545 S
H91    C425    1.112   1_545 S
H99    N160    1.029   .     S
H100   N279    1.032   .     S
N101   Zn116   2.009   .     S
N101   H156    1.029   .     S
N101   N160    1.281   .     S
N102   Zn115   2.009   .     S
N103   C132    1.157   .     S
N105   C428    1.434   1_545 S
N105   H448    1.032   1_545 S
N106   H263    1.031   .     S
N106   C255    1.434   .     S
O107   Zn115   1.969   .     S
O108   Zn116   1.969   .     S
O109   Zn116   1.991   .     S
O110   Zn115   1.991   .     S
O111   Zn115   2.006   .     S
O112   Zn116   2.006   .     S
O113   Zn116   2.023   .     S
O114   Zn115   2.023   .     S
C117   C138    1.404   .     S
C117   O167    1.282   .     A
C117   O165    1.272   .     A
C118   H151    1.083   .     S
C118   C120    1.396   .     A
C118   C129    1.389   .     A
C119   C142    1.396   .     A
C119   C141    1.434   .     S
C119   C121    1.392   .     A
C120   C122    1.391   .     A
C120   C140    1.433   .     S
C121   C123    1.382   .     A
C121   H152    1.085   .     S
C122   H153    1.085   .     S
C122   C124    1.382   .     A
C123   C130    1.397   .     A
C123   C125    1.413   .     A
C124   C131    1.397   .     A
C124   C126    1.413   .     A
C125   C127    1.417   .     A
C125   C648    1.392   1_554 S
C126   C129    1.417   .     A
C126   C647    1.392   .     S
C127   C142    1.388   .     A
C127   C137    1.413   .     A
C128   O166    1.267   .     A
C128   C139    1.412   .     S
C128   O168    1.291   .     A
C129   C136    1.413   .     A
C130   H154    1.086   .     S
C130   C658    1.390   1_554 S
C131   H155    1.086   .     S
C131   C659    1.390   .     S
C132   C136    1.447   .     S
C133   C137    1.447   .     S
C133   N46     1.157   1_655 S
C134   H146    1.111   .     S
C134   N163    1.450   .     S
C134   H144    1.110   .     S
C134   H493    1.110   1_545 S
C135   H148    1.111   .     S
C135   N164    1.448   .     S
C135   H150    1.111   .     S
C135   H323    1.112   .     S
C136   C652    1.390   .     S
C137   C653    1.390   1_554 S
C138   C313    1.361   .     S
C138   N337    1.434   .     S
C139   C486    1.361   1_545 S
C139   N512    1.434   1_545 S
C140   O171    1.288   .     A
C140   O169    1.284   .     A
C141   O172    1.289   .     A
C141   O170    1.284   .     A
C142   H143    1.083   .     S
H145   C308    1.110   .     S
H147   N512    1.031   1_545 S
H149   C483    1.112   1_545 S
H157   N44     1.029   1_655 S
H158   N337    1.032   .     S
N159   Zn174   2.009   .     S
N159   H40     1.029   1_655 S
N159   N44     1.281   1_655 S
N160   Zn173   2.009   .     S
N161   C16     1.157   1_655 S
N163   C486    1.434   1_545 S
N163   H506    1.032   1_545 S
N164   H321    1.031   .     S
N164   C313    1.434   .     S
O165   Zn173   1.969   .     S
O166   Zn174   1.969   .     S
O167   Zn174   1.991   .     S
O168   Zn173   1.991   .     S
O169   Zn173   2.006   .     S
O170   Zn174   2.006   .     S
O171   Zn174   2.023   .     S
O172   Zn173   2.023   .     S
C175   C196    1.404   .     S
C175   O225    1.282   .     A
C175   O223    1.272   .     A
C176   H209    1.083   .     S
C176   C178    1.396   .     A
C176   C187    1.389   .     A
C177   C200    1.396   .     A
C177   C199    1.434   .     S
C177   C179    1.392   .     A
C178   C180    1.391   .     A
C178   C198    1.433   .     S
C179   C181    1.382   .     A
C179   H210    1.085   .     S
C180   H211    1.085   .     S
C180   C182    1.382   .     A
C181   C188    1.397   .     A
C181   C183    1.413   .     A
C182   C189    1.397   .     A
C182   C184    1.413   .     A
C183   C185    1.417   .     A
C183   C706    1.392   1_554 S
C184   C187    1.417   .     A
C184   C705    1.392   .     S
C185   C200    1.388   .     A
C185   C195    1.413   .     A
C186   O224    1.267   .     A
C186   C197    1.412   .     S
C186   O226    1.291   .     A
C187   C194    1.413   .     A
C188   H212    1.086   .     S
C188   C716    1.390   1_554 S
C189   H213    1.086   .     S
C189   C717    1.390   .     S
C190   C194    1.447   .     S
C190   N335    1.157   1_455 S
C191   C195    1.447   .     S
C191   N278    1.157   .     S
C192   H204    1.111   .     S
C192   N221    1.450   .     S
C192   H202    1.110   .     S
C193   H206    1.111   .     S
C193   N222    1.448   .     S
C193   H208    1.111   .     S
C193   H381    1.112   .     S
C194   C710    1.390   .     S
C195   C711    1.390   1_554 S
C196   C371    1.361   .     S
C196   N395    1.434   .     S
C198   O229    1.288   .     A
C198   O227    1.284   .     A
C199   O230    1.289   .     A
C199   O228    1.284   .     A
C200   H201    1.083   .     S
H203   C366    1.110   .     S
H214   N333    1.029   1_455 S
H215   N276    1.029   .     S
H216   N395    1.032   .     S
N217   Zn232   2.009   .     S
N217   H272    1.029   .     S
N217   N276    1.281   .     S
N218   Zn231   2.009   .     S
N218   N333    1.281   1_455 S
N218   H331    1.029   1_455 S
N219   C248    1.157   .     S
N220   C307    1.157   1_455 S
N222   H379    1.031   .     S
N222   C371    1.434   .     S
O223   Zn231   1.969   .     S
O224   Zn232   1.969   .     S
O225   Zn232   1.991   .     S
O226   Zn231   1.991   .     S
O227   Zn231   2.006   .     S
O228   Zn232   2.006   .     S
O229   Zn232   2.023   .     S
O230   Zn231   2.023   .     S
C233   C254    1.404   .     S
C233   O283    1.282   .     A
C233   O281    1.272   .     A
C234   H267    1.083   .     S
C234   C236    1.396   .     A
C234   C245    1.389   .     A
C235   C258    1.396   .     A
C235   C257    1.434   .     S
C235   C237    1.392   .     A
C236   C238    1.391   .     A
C236   C256    1.433   .     S
C237   C239    1.382   .     A
C237   H268    1.085   .     S
C238   H269    1.085   .     S
C238   C240    1.382   .     A
C239   C246    1.397   .     A
C239   C241    1.413   .     A
C240   C247    1.397   .     A
C240   C242    1.413   .     A
C241   C243    1.417   .     A
C241   C764    1.392   1_554 S
C242   C245    1.417   .     A
C242   C763    1.392   .     S
C243   C258    1.388   .     A
C243   C253    1.413   .     A
C244   O282    1.267   .     A
C244   C255    1.412   .     S
C244   O284    1.291   .     A
C245   C252    1.413   .     A
C246   H270    1.086   .     S
C246   C774    1.390   1_554 S
C247   H271    1.086   .     S
C247   C775    1.390   .     S
C248   C252    1.447   .     S
C249   C253    1.447   .     S
C249   N336    1.157   .     S
C250   H262    1.111   .     S
C250   N279    1.450   .     S
C250   H260    1.110   .     S
C251   H264    1.111   .     S
C251   N280    1.448   .     S
C251   H266    1.111   .     S
C251   H439    1.112   .     S
C252   C768    1.390   .     S
C253   C769    1.390   1_554 S
C254   C429    1.361   .     S
C254   N453    1.434   .     S
C256   O287    1.288   .     A
C256   O285    1.284   .     A
C257   O288    1.289   .     A
C257   O286    1.284   .     A
C258   H259    1.083   .     S
H261   C424    1.110   .     S
H273   N334    1.029   .     S
H274   N453    1.032   .     S
N275   Zn290   2.009   .     S
N275   H330    1.029   .     S
N275   N334    1.281   .     S
N276   Zn289   2.009   .     S
N277   C306    1.157   .     S
N280   H437    1.031   .     S
N280   C429    1.434   .     S
O281   Zn289   1.969   .     S
O282   Zn290   1.969   .     S
O283   Zn290   1.991   .     S
O284   Zn289   1.991   .     S
O285   Zn289   2.006   .     S
O286   Zn290   2.006   .     S
O287   Zn290   2.023   .     S
O288   Zn289   2.023   .     S
C291   C312    1.404   .     S
C291   O341    1.282   .     A
C291   O339    1.272   .     A
C292   H325    1.083   .     S
C292   C294    1.396   .     A
C292   C303    1.389   .     A
C293   C316    1.396   .     A
C293   C315    1.434   .     S
C293   C295    1.392   .     A
C294   C296    1.391   .     A
C294   C314    1.433   .     S
C295   C297    1.382   .     A
C295   H326    1.085   .     S
C296   H327    1.085   .     S
C296   C298    1.382   .     A
C297   C304    1.397   .     A
C297   C299    1.413   .     A
C298   C305    1.397   .     A
C298   C300    1.413   .     A
C299   C301    1.417   .     A
C299   C822    1.392   1_554 S
C300   C303    1.417   .     A
C300   C821    1.392   .     S
C301   C316    1.388   .     A
C301   C311    1.413   .     A
C302   O340    1.267   .     A
C302   C313    1.412   .     S
C302   O342    1.291   .     A
C303   C310    1.413   .     A
C304   H328    1.086   .     S
C304   C832    1.390   1_554 S
C305   H329    1.086   .     S
C305   C833    1.390   .     S
C306   C310    1.447   .     S
C307   C311    1.447   .     S
C307   N220    1.157   1_655 S
C308   H320    1.111   .     S
C308   N337    1.450   .     S
C308   H318    1.110   .     S
C309   H322    1.111   .     S
C309   N338    1.448   .     S
C309   H324    1.111   .     S
C309   H497    1.112   .     S
C310   C826    1.390   .     S
C311   C827    1.390   1_554 S
C312   C487    1.361   .     S
C312   N511    1.434   .     S
C314   O345    1.288   .     A
C314   O343    1.284   .     A
C315   O346    1.289   .     A
C315   O344    1.284   .     A
C316   H317    1.083   .     S
H319   C482    1.110   .     S
H331   N218    1.029   1_655 S
H332   N511    1.032   .     S
N333   Zn348   2.009   .     S
N333   H214    1.029   1_655 S
N333   N218    1.281   1_655 S
N334   Zn347   2.009   .     S
N335   C190    1.157   1_655 S
N338   H495    1.031   .     S
N338   C487    1.434   .     S
O339   Zn347   1.969   .     S
O340   Zn348   1.969   .     S
O341   Zn348   1.991   .     S
O342   Zn347   1.991   .     S
O343   Zn347   2.006   .     S
O344   Zn348   2.006   .     S
O345   Zn348   2.023   .     S
O346   Zn347   2.023   .     S
C349   C370    1.404   .     S
C349   O399    1.282   .     A
C349   O397    1.272   .     A
C350   H383    1.083   .     S
C350   C352    1.396   .     A
C350   C361    1.389   .     A
C351   C374    1.396   .     A
C351   C373    1.434   .     S
C351   C353    1.392   .     A
C352   C354    1.391   .     A
C352   C372    1.433   .     S
C353   C355    1.382   .     A
C353   H384    1.085   .     S
C354   H385    1.085   .     S
C354   C356    1.382   .     A
C355   C362    1.397   .     A
C355   C357    1.413   .     A
C356   C363    1.397   .     A
C356   C358    1.413   .     A
C357   C359    1.417   .     A
C357   C880    1.392   1_554 S
C358   C361    1.417   .     A
C358   C879    1.392   .     S
C359   C374    1.388   .     A
C359   C369    1.413   .     A
C360   O398    1.267   .     A
C360   C371    1.412   .     S
C360   O400    1.291   .     A
C361   C368    1.413   .     A
C362   H386    1.086   .     S
C362   C890    1.390   1_554 S
C363   H387    1.086   .     S
C363   C891    1.390   .     S
C364   C368    1.447   .     S
C364   N509    1.157   1_455 S
C365   C369    1.447   .     S
C365   N452    1.157   .     S
C366   H378    1.111   .     S
C366   N395    1.450   .     S
C366   H376    1.110   .     S
C367   H380    1.111   .     S
C367   N396    1.448   .     S
C367   H382    1.111   .     S
C367   H33     1.112   1_565 S
C368   C884    1.390   .     S
C369   C885    1.390   1_554 S
C370   C23     1.361   1_565 S
C370   N47     1.434   1_565 S
C372   O403    1.288   .     A
C372   O401    1.284   .     A
C373   O404    1.289   .     A
C373   O402    1.284   .     A
C374   H375    1.083   .     S
H377   C18     1.110   1_565 S
H388   N507    1.029   1_455 S
H389   N450    1.029   .     S
H390   N47     1.032   1_565 S
N391   Zn406   2.009   .     S
N391   H446    1.029   .     S
N391   N450    1.281   .     S
N392   Zn405   2.009   .     S
N392   N507    1.281   1_455 S
N392   H505    1.029   1_455 S
N393   C422    1.157   .     S
N394   C481    1.157   1_455 S
N396   H31     1.031   1_565 S
N396   C23     1.434   1_565 S
O397   Zn405   1.969   .     S
O398   Zn406   1.969   .     S
O399   Zn406   1.991   .     S
O400   Zn405   1.991   .     S
O401   Zn405   2.006   .     S
O402   Zn406   2.006   .     S
O403   Zn406   2.023   .     S
O404   Zn405   2.023   .     S
C407   C428    1.404   .     S
C407   O457    1.282   .     A
C407   O455    1.272   .     A
C408   H441    1.083   .     S
C408   C410    1.396   .     A
C408   C419    1.389   .     A
C409   C432    1.396   .     A
C409   C431    1.434   .     S
C409   C411    1.392   .     A
C410   C412    1.391   .     A
C410   C430    1.433   .     S
C411   C413    1.382   .     A
C411   H442    1.085   .     S
C412   H443    1.085   .     S
C412   C414    1.382   .     A
C413   C420    1.397   .     A
C413   C415    1.413   .     A
C414   C421    1.397   .     A
C414   C416    1.413   .     A
C415   C417    1.417   .     A
C415   C938    1.392   1_554 S
C416   C419    1.417   .     A
C416   C937    1.392   .     S
C417   C432    1.388   .     A
C417   C427    1.413   .     A
C418   O456    1.267   .     A
C418   C429    1.412   .     S
C418   O458    1.291   .     A
C419   C426    1.413   .     A
C420   H444    1.086   .     S
C420   C948    1.390   1_554 S
C421   H445    1.086   .     S
C421   C949    1.390   .     S
C422   C426    1.447   .     S
C423   C427    1.447   .     S
C423   N510    1.157   .     S
C424   H436    1.111   .     S
C424   N453    1.450   .     S
C424   H434    1.110   .     S
C425   H438    1.111   .     S
C425   N454    1.448   .     S
C425   H440    1.111   .     S
C425   H91     1.112   1_565 S
C426   C942    1.390   .     S
C427   C943    1.390   1_554 S
C428   C81     1.361   1_565 S
C428   N105    1.434   1_565 S
C430   O461    1.288   .     A
C430   O459    1.284   .     A
C431   O462    1.289   .     A
C431   O460    1.284   .     A
C432   H433    1.083   .     S
H435   C76     1.110   1_565 S
H447   N508    1.029   .     S
H448   N105    1.032   1_565 S
N449   Zn464   2.009   .     S
N449   H504    1.029   .     S
N449   N508    1.281   .     S
N450   Zn463   2.009   .     S
N451   C480    1.157   .     S
N454   H89     1.031   1_565 S
N454   C81     1.434   1_565 S
O455   Zn463   1.969   .     S
O456   Zn464   1.969   .     S
O457   Zn464   1.991   .     S
O458   Zn463   1.991   .     S
O459   Zn463   2.006   .     S
O460   Zn464   2.006   .     S
O461   Zn464   2.023   .     S
O462   Zn463   2.023   .     S
C465   C486    1.404   .     S
C465   O515    1.282   .     A
C465   O513    1.272   .     A
C466   H499    1.083   .     S
C466   C468    1.396   .     A
C466   C477    1.389   .     A
C467   C490    1.396   .     A
C467   C489    1.434   .     S
C467   C469    1.392   .     A
C468   C470    1.391   .     A
C468   C488    1.433   .     S
C469   C471    1.382   .     A
C469   H500    1.085   .     S
C470   H501    1.085   .     S
C470   C472    1.382   .     A
C471   C478    1.397   .     A
C471   C473    1.413   .     A
C472   C479    1.397   .     A
C472   C474    1.413   .     A
C473   C475    1.417   .     A
C473   C996    1.392   1_554 S
C474   C477    1.417   .     A
C474   C995    1.392   .     S
C475   C490    1.388   .     A
C475   C485    1.413   .     A
C476   O514    1.267   .     A
C476   C487    1.412   .     S
C476   O516    1.291   .     A
C477   C484    1.413   .     A
C478   H502    1.086   .     S
C478   C1006   1.390   1_554 S
C479   H503    1.086   .     S
C479   C1007   1.390   .     S
C480   C484    1.447   .     S
C481   C485    1.447   .     S
C481   N394    1.157   1_655 S
C482   H494    1.111   .     S
C482   N511    1.450   .     S
C482   H492    1.110   .     S
C483   H496    1.111   .     S
C483   N512    1.448   .     S
C483   H498    1.111   .     S
C483   H149    1.112   1_565 S
C484   C1000   1.390   .     S
C485   C1001   1.390   1_554 S
C486   C139    1.361   1_565 S
C486   N163    1.434   1_565 S
C488   O519    1.288   .     A
C488   O517    1.284   .     A
C489   O520    1.289   .     A
C489   O518    1.284   .     A
C490   H491    1.083   .     S
H493   C134    1.110   1_565 S
H505   N392    1.029   1_655 S
H506   N163    1.032   1_565 S
N507   Zn522   2.009   .     S
N507   H388    1.029   1_655 S
N507   N392    1.281   1_655 S
N508   Zn521   2.009   .     S
N509   C364    1.157   1_655 S
N512   H147    1.031   1_565 S
N512   C139    1.434   1_565 S
O513   Zn521   1.969   .     S
O514   Zn522   1.969   .     S
O515   Zn522   1.991   .     S
O516   Zn521   1.991   .     S
O517   Zn521   2.006   .     S
O518   Zn522   2.006   .     S
O519   Zn522   2.023   .     S
O520   Zn521   2.023   .     S
C523   C544    1.404   .     S
C523   O573    1.282   .     A
C523   O571    1.272   .     A
C524   H557    1.083   .     S
C524   C526    1.396   .     A
C524   C535    1.389   .     A
C525   C548    1.396   .     A
C525   C547    1.434   .     S
C525   C527    1.392   .     A
C526   C528    1.391   .     A
C526   C546    1.433   .     S
C527   C529    1.382   .     A
C527   H558    1.085   .     S
C528   H559    1.085   .     S
C528   C530    1.382   .     A
C529   C536    1.397   .     A
C529   C531    1.413   .     A
C530   C537    1.397   .     A
C530   C532    1.413   .     A
C531   C533    1.417   .     A
C532   C535    1.417   .     A
C532   C9      1.392   1_556 S
C533   C548    1.388   .     A
C533   C543    1.413   .     A
C534   O572    1.267   .     A
C534   C545    1.412   .     S
C534   O574    1.291   .     A
C535   C542    1.413   .     A
C536   H560    1.086   .     S
C537   H561    1.086   .     S
C537   C21     1.390   1_556 S
C538   C542    1.447   .     S
C538   N683    1.157   1_455 S
C539   C543    1.447   .     S
C539   N626    1.157   .     S
C540   H552    1.111   .     S
C540   N569    1.450   .     S
C540   H550    1.110   .     S
C540   H899    1.110   1_545 S
C541   H554    1.111   .     S
C541   N570    1.448   .     S
C541   H556    1.111   .     S
C541   H729    1.112   .     S
C542   C14     1.390   1_556 S
C544   C719    1.361   .     S
C544   N743    1.434   .     S
C545   C892    1.361   1_545 S
C545   N918    1.434   1_545 S
C546   O577    1.288   .     A
C546   O575    1.284   .     A
C547   O578    1.289   .     A
C547   O576    1.284   .     A
C548   H549    1.083   .     S
H551   C714    1.110   .     S
H553   N918    1.031   1_545 S
H555   C889    1.112   1_545 S
H562   N681    1.029   1_455 S
H563   N624    1.029   .     S
H564   N743    1.032   .     S
N565   Zn580   2.009   .     S
N565   H620    1.029   .     S
N565   N624    1.281   .     S
N566   Zn579   2.009   .     S
N566   N681    1.281   1_455 S
N566   H679    1.029   1_455 S
N567   C596    1.157   .     S
N568   C655    1.157   1_455 S
N569   C892    1.434   1_545 S
N569   H912    1.032   1_545 S
N570   H727    1.031   .     S
N570   C719    1.434   .     S
O571   Zn579   1.969   .     S
O572   Zn580   1.969   .     S
O573   Zn580   1.991   .     S
O574   Zn579   1.991   .     S
O575   Zn579   2.006   .     S
O576   Zn580   2.006   .     S
O577   Zn580   2.023   .     S
O578   Zn579   2.023   .     S
C581   C602    1.404   .     S
C581   O631    1.282   .     A
C581   O629    1.272   .     A
C582   H615    1.083   .     S
C582   C584    1.396   .     A
C582   C593    1.389   .     A
C583   C606    1.396   .     A
C583   C605    1.434   .     S
C583   C585    1.392   .     A
C584   C586    1.391   .     A
C584   C604    1.433   .     S
C585   C587    1.382   .     A
C585   H616    1.085   .     S
C586   H617    1.085   .     S
C586   C588    1.382   .     A
C587   C594    1.397   .     A
C587   C589    1.413   .     A
C588   C595    1.397   .     A
C588   C590    1.413   .     A
C589   C591    1.417   .     A
C590   C593    1.417   .     A
C590   C67     1.392   1_556 S
C591   C606    1.388   .     A
C591   C601    1.413   .     A
C592   O630    1.267   .     A
C592   C603    1.412   .     S
C592   O632    1.291   .     A
C593   C600    1.413   .     A
C594   H618    1.086   .     S
C595   H619    1.086   .     S
C595   C79     1.390   1_556 S
C596   C600    1.447   .     S
C597   C601    1.447   .     S
C597   N684    1.157   .     S
C598   H610    1.111   .     S
C598   N627    1.450   .     S
C598   H608    1.110   .     S
C598   H957    1.110   1_545 S
C599   H612    1.111   .     S
C599   N628    1.448   .     S
C599   H614    1.111   .     S
C599   H787    1.112   .     S
C600   C72     1.390   1_556 S
C602   C777    1.361   .     S
C602   N801    1.434   .     S
C603   C950    1.361   1_545 S
C603   N976    1.434   1_545 S
C604   O635    1.288   .     A
C604   O633    1.284   .     A
C605   O636    1.289   .     A
C605   O634    1.284   .     A
C606   H607    1.083   .     S
H609   C772    1.110   .     S
H611   N976    1.031   1_545 S
H613   C947    1.112   1_545 S
H621   N682    1.029   .     S
H622   N801    1.032   .     S
N623   Zn638   2.009   .     S
N623   H678    1.029   .     S
N623   N682    1.281   .     S
N624   Zn637   2.009   .     S
N625   C654    1.157   .     S
N627   C950    1.434   1_545 S
N627   H970    1.032   1_545 S
N628   H785    1.031   .     S
N628   C777    1.434   .     S
O629   Zn637   1.969   .     S
O630   Zn638   1.969   .     S
O631   Zn638   1.991   .     S
O632   Zn637   1.991   .     S
O633   Zn637   2.006   .     S
O634   Zn638   2.006   .     S
O635   Zn638   2.023   .     S
O636   Zn637   2.023   .     S
C639   C660    1.404   .     S
C639   O689    1.282   .     A
C639   O687    1.272   .     A
C640   H673    1.083   .     S
C640   C642    1.396   .     A
C640   C651    1.389   .     A
C641   C664    1.396   .     A
C641   C663    1.434   .     S
C641   C643    1.392   .     A
C642   C644    1.391   .     A
C642   C662    1.433   .     S
C643   C645    1.382   .     A
C643   H674    1.085   .     S
C644   H675    1.085   .     S
C644   C646    1.382   .     A
C645   C652    1.397   .     A
C645   C647    1.413   .     A
C646   C653    1.397   .     A
C646   C648    1.413   .     A
C647   C649    1.417   .     A
C648   C651    1.417   .     A
C648   C125    1.392   1_556 S
C649   C664    1.388   .     A
C649   C659    1.413   .     A
C650   O688    1.267   .     A
C650   C661    1.412   .     S
C650   O690    1.291   .     A
C651   C658    1.413   .     A
C652   H676    1.086   .     S
C653   H677    1.086   .     S
C653   C137    1.390   1_556 S
C654   C658    1.447   .     S
C655   C659    1.447   .     S
C655   N568    1.157   1_655 S
C656   H668    1.111   .     S
C656   N685    1.450   .     S
C656   H666    1.110   .     S
C656   H1015   1.110   1_545 S
C657   H670    1.111   .     S
C657   N686    1.448   .     S
C657   H672    1.111   .     S
C657   H845    1.112   .     S
C658   C130    1.390   1_556 S
C660   C835    1.361   .     S
C660   N859    1.434   .     S
C661   C1008   1.361   1_545 S
C661   N1034   1.434   1_545 S
C662   O693    1.288   .     A
C662   O691    1.284   .     A
C663   O694    1.289   .     A
C663   O692    1.284   .     A
C664   H665    1.083   .     S
H667   C830    1.110   .     S
H669   N1034   1.031   1_545 S
H671   C1005   1.112   1_545 S
H679   N566    1.029   1_655 S
H680   N859    1.032   .     S
N681   Zn696   2.009   .     S
N681   H562    1.029   1_655 S
N681   N566    1.281   1_655 S
N682   Zn695   2.009   .     S
N683   C538    1.157   1_655 S
N685   C1008   1.434   1_545 S
N685   H1028   1.032   1_545 S
N686   H843    1.031   .     S
N686   C835    1.434   .     S
O687   Zn695   1.969   .     S
O688   Zn696   1.969   .     S
O689   Zn696   1.991   .     S
O690   Zn695   1.991   .     S
O691   Zn695   2.006   .     S
O692   Zn696   2.006   .     S
O693   Zn696   2.023   .     S
O694   Zn695   2.023   .     S
C697   C718    1.404   .     S
C697   O747    1.282   .     A
C697   O745    1.272   .     A
C698   H731    1.083   .     S
C698   C700    1.396   .     A
C698   C709    1.389   .     A
C699   C722    1.396   .     A
C699   C721    1.434   .     S
C699   C701    1.392   .     A
C700   C702    1.391   .     A
C700   C720    1.433   .     S
C701   C703    1.382   .     A
C701   H732    1.085   .     S
C702   H733    1.085   .     S
C702   C704    1.382   .     A
C703   C710    1.397   .     A
C703   C705    1.413   .     A
C704   C711    1.397   .     A
C704   C706    1.413   .     A
C705   C707    1.417   .     A
C706   C709    1.417   .     A
C706   C183    1.392   1_556 S
C707   C722    1.388   .     A
C707   C717    1.413   .     A
C708   O746    1.267   .     A
C708   C719    1.412   .     S
C708   O748    1.291   .     A
C709   C716    1.413   .     A
C710   H734    1.086   .     S
C711   H735    1.086   .     S
C711   C195    1.390   1_556 S
C712   C716    1.447   .     S
C712   N857    1.157   1_455 S
C713   C717    1.447   .     S
C713   N800    1.157   .     S
C714   H726    1.111   .     S
C714   N743    1.450   .     S
C714   H724    1.110   .     S
C715   H728    1.111   .     S
C715   N744    1.448   .     S
C715   H730    1.111   .     S
C715   H903    1.112   .     S
C716   C188    1.390   1_556 S
C718   C893    1.361   .     S
C718   N917    1.434   .     S
C720   O751    1.288   .     A
C720   O749    1.284   .     A
C721   O752    1.289   .     A
C721   O750    1.284   .     A
C722   H723    1.083   .     S
H725   C888    1.110   .     S
H736   N855    1.029   1_455 S
H737   N798    1.029   .     S
H738   N917    1.032   .     S
N739   Zn754   2.009   .     S
N739   H794    1.029   .     S
N739   N798    1.281   .     S
N740   Zn753   2.009   .     S
N740   N855    1.281   1_455 S
N740   H853    1.029   1_455 S
N741   C770    1.157   .     S
N742   C829    1.157   1_455 S
N744   H901    1.031   .     S
N744   C893    1.434   .     S
O745   Zn753   1.969   .     S
O746   Zn754   1.969   .     S
O747   Zn754   1.991   .     S
O748   Zn753   1.991   .     S
O749   Zn753   2.006   .     S
O750   Zn754   2.006   .     S
O751   Zn754   2.023   .     S
O752   Zn753   2.023   .     S
C755   C776    1.404   .     S
C755   O805    1.282   .     A
C755   O803    1.272   .     A
C756   H789    1.083   .     S
C756   C758    1.396   .     A
C756   C767    1.389   .     A
C757   C780    1.396   .     A
C757   C779    1.434   .     S
C757   C759    1.392   .     A
C758   C760    1.391   .     A
C758   C778    1.433   .     S
C759   C761    1.382   .     A
C759   H790    1.085   .     S
C760   H791    1.085   .     S
C760   C762    1.382   .     A
C761   C768    1.397   .     A
C761   C763    1.413   .     A
C762   C769    1.397   .     A
C762   C764    1.413   .     A
C763   C765    1.417   .     A
C764   C767    1.417   .     A
C764   C241    1.392   1_556 S
C765   C780    1.388   .     A
C765   C775    1.413   .     A
C766   O804    1.267   .     A
C766   C777    1.412   .     S
C766   O806    1.291   .     A
C767   C774    1.413   .     A
C768   H792    1.086   .     S
C769   H793    1.086   .     S
C769   C253    1.390   1_556 S
C770   C774    1.447   .     S
C771   C775    1.447   .     S
C771   N858    1.157   .     S
C772   H784    1.111   .     S
C772   N801    1.450   .     S
C772   H782    1.110   .     S
C773   H786    1.111   .     S
C773   N802    1.448   .     S
C773   H788    1.111   .     S
C773   H961    1.112   .     S
C774   C246    1.390   1_556 S
C776   C951    1.361   .     S
C776   N975    1.434   .     S
C778   O809    1.288   .     A
C778   O807    1.284   .     A
C779   O810    1.289   .     A
C779   O808    1.284   .     A
C780   H781    1.083   .     S
H783   C946    1.110   .     S
H795   N856    1.029   .     S
H796   N975    1.032   .     S
N797   Zn812   2.009   .     S
N797   H852    1.029   .     S
N797   N856    1.281   .     S
N798   Zn811   2.009   .     S
N799   C828    1.157   .     S
N802   H959    1.031   .     S
N802   C951    1.434   .     S
O803   Zn811   1.969   .     S
O804   Zn812   1.969   .     S
O805   Zn812   1.991   .     S
O806   Zn811   1.991   .     S
O807   Zn811   2.006   .     S
O808   Zn812   2.006   .     S
O809   Zn812   2.023   .     S
O810   Zn811   2.023   .     S
C813   C834    1.404   .     S
C813   O863    1.282   .     A
C813   O861    1.272   .     A
C814   H847    1.083   .     S
C814   C816    1.396   .     A
C814   C825    1.389   .     A
C815   C838    1.396   .     A
C815   C837    1.434   .     S
C815   C817    1.392   .     A
C816   C818    1.391   .     A
C816   C836    1.433   .     S
C817   C819    1.382   .     A
C817   H848    1.085   .     S
C818   H849    1.085   .     S
C818   C820    1.382   .     A
C819   C826    1.397   .     A
C819   C821    1.413   .     A
C820   C827    1.397   .     A
C820   C822    1.413   .     A
C821   C823    1.417   .     A
C822   C825    1.417   .     A
C822   C299    1.392   1_556 S
C823   C838    1.388   .     A
C823   C833    1.413   .     A
C824   O862    1.267   .     A
C824   C835    1.412   .     S
C824   O864    1.291   .     A
C825   C832    1.413   .     A
C826   H850    1.086   .     S
C827   H851    1.086   .     S
C827   C311    1.390   1_556 S
C828   C832    1.447   .     S
C829   C833    1.447   .     S
C829   N742    1.157   1_655 S
C830   H842    1.111   .     S
C830   N859    1.450   .     S
C830   H840    1.110   .     S
C831   H844    1.111   .     S
C831   N860    1.448   .     S
C831   H846    1.111   .     S
C831   H1019   1.112   .     S
C832   C304    1.390   1_556 S
C834   C1009   1.361   .     S
C834   N1033   1.434   .     S
C836   O867    1.288   .     A
C836   O865    1.284   .     A
C837   O868    1.289   .     A
C837   O866    1.284   .     A
C838   H839    1.083   .     S
H841   C1004   1.110   .     S
H853   N740    1.029   1_655 S
H854   N1033   1.032   .     S
N855   Zn870   2.009   .     S
N855   H736    1.029   1_655 S
N855   N740    1.281   1_655 S
N856   Zn869   2.009   .     S
N857   C712    1.157   1_655 S
N860   H1017   1.031   .     S
N860   C1009   1.434   .     S
O861   Zn869   1.969   .     S
O862   Zn870   1.969   .     S
O863   Zn870   1.991   .     S
O864   Zn869   1.991   .     S
O865   Zn869   2.006   .     S
O866   Zn870   2.006   .     S
O867   Zn870   2.023   .     S
O868   Zn869   2.023   .     S
C871   C892    1.404   .     S
C871   O921    1.282   .     A
C871   O919    1.272   .     A
C872   H905    1.083   .     S
C872   C874    1.396   .     A
C872   C883    1.389   .     A
C873   C896    1.396   .     A
C873   C895    1.434   .     S
C873   C875    1.392   .     A
C874   C876    1.391   .     A
C874   C894    1.433   .     S
C875   C877    1.382   .     A
C875   H906    1.085   .     S
C876   H907    1.085   .     S
C876   C878    1.382   .     A
C877   C884    1.397   .     A
C877   C879    1.413   .     A
C878   C885    1.397   .     A
C878   C880    1.413   .     A
C879   C881    1.417   .     A
C880   C883    1.417   .     A
C880   C357    1.392   1_556 S
C881   C896    1.388   .     A
C881   C891    1.413   .     A
C882   O920    1.267   .     A
C882   C893    1.412   .     S
C882   O922    1.291   .     A
C883   C890    1.413   .     A
C884   H908    1.086   .     S
C885   H909    1.086   .     S
C885   C369    1.390   1_556 S
C886   C890    1.447   .     S
C886   N1031   1.157   1_455 S
C887   C891    1.447   .     S
C887   N974    1.157   .     S
C888   H900    1.111   .     S
C888   N917    1.450   .     S
C888   H898    1.110   .     S
C889   H902    1.111   .     S
C889   N918    1.448   .     S
C889   H904    1.111   .     S
C889   H555    1.112   1_565 S
C890   C362    1.390   1_556 S
C892   C545    1.361   1_565 S
C892   N569    1.434   1_565 S
C894   O925    1.288   .     A
C894   O923    1.284   .     A
C895   O926    1.289   .     A
C895   O924    1.284   .     A
C896   H897    1.083   .     S
H899   C540    1.110   1_565 S
H910   N1029   1.029   1_455 S
H911   N972    1.029   .     S
H912   N569    1.032   1_565 S
N913   Zn928   2.009   .     S
N913   H968    1.029   .     S
N913   N972    1.281   .     S
N914   Zn927   2.009   .     S
N914   N1029   1.281   1_455 S
N914   H1027   1.029   1_455 S
N915   C944    1.157   .     S
N916   C1003   1.157   1_455 S
N918   H553    1.031   1_565 S
N918   C545    1.434   1_565 S
O919   Zn927   1.969   .     S
O920   Zn928   1.969   .     S
O921   Zn928   1.991   .     S
O922   Zn927   1.991   .     S
O923   Zn927   2.006   .     S
O924   Zn928   2.006   .     S
O925   Zn928   2.023   .     S
O926   Zn927   2.023   .     S
C929   C950    1.404   .     S
C929   O979    1.282   .     A
C929   O977    1.272   .     A
C930   H963    1.083   .     S
C930   C932    1.396   .     A
C930   C941    1.389   .     A
C931   C954    1.396   .     A
C931   C953    1.434   .     S
C931   C933    1.392   .     A
C932   C934    1.391   .     A
C932   C952    1.433   .     S
C933   C935    1.382   .     A
C933   H964    1.085   .     S
C934   H965    1.085   .     S
C934   C936    1.382   .     A
C935   C942    1.397   .     A
C935   C937    1.413   .     A
C936   C943    1.397   .     A
C936   C938    1.413   .     A
C937   C939    1.417   .     A
C938   C941    1.417   .     A
C938   C415    1.392   1_556 S
C939   C954    1.388   .     A
C939   C949    1.413   .     A
C940   O978    1.267   .     A
C940   C951    1.412   .     S
C940   O980    1.291   .     A
C941   C948    1.413   .     A
C942   H966    1.086   .     S
C943   H967    1.086   .     S
C943   C427    1.390   1_556 S
C944   C948    1.447   .     S
C945   C949    1.447   .     S
C945   N1032   1.157   .     S
C946   H958    1.111   .     S
C946   N975    1.450   .     S
C946   H956    1.110   .     S
C947   H960    1.111   .     S
C947   N976    1.448   .     S
C947   H962    1.111   .     S
C947   H613    1.112   1_565 S
C948   C420    1.390   1_556 S
C950   C603    1.361   1_565 S
C950   N627    1.434   1_565 S
C952   O983    1.288   .     A
C952   O981    1.284   .     A
C953   O984    1.289   .     A
C953   O982    1.284   .     A
C954   H955    1.083   .     S
H957   C598    1.110   1_565 S
H969   N1030   1.029   .     S
H970   N627    1.032   1_565 S
N971   Zn986   2.009   .     S
N971   H1026   1.029   .     S
N971   N1030   1.281   .     S
N972   Zn985   2.009   .     S
N973   C1002   1.157   .     S
N976   H611    1.031   1_565 S
N976   C603    1.434   1_565 S
O977   Zn985   1.969   .     S
O978   Zn986   1.969   .     S
O979   Zn986   1.991   .     S
O980   Zn985   1.991   .     S
O981   Zn985   2.006   .     S
O982   Zn986   2.006   .     S
O983   Zn986   2.023   .     S
O984   Zn985   2.023   .     S
C987   C1008   1.404   .     S
C987   O1037   1.282   .     A
C987   O1035   1.272   .     A
C988   H1021   1.083   .     S
C988   C990    1.396   .     A
C988   C999    1.389   .     A
C989   C1012   1.396   .     A
C989   C1011   1.434   .     S
C989   C991    1.392   .     A
C990   C992    1.391   .     A
C990   C1010   1.433   .     S
C991   C993    1.382   .     A
C991   H1022   1.085   .     S
C992   H1023   1.085   .     S
C992   C994    1.382   .     A
C993   C1000   1.397   .     A
C993   C995    1.413   .     A
C994   C1001   1.397   .     A
C994   C996    1.413   .     A
C995   C997    1.417   .     A
C996   C999    1.417   .     A
C996   C473    1.392   1_556 S
C997   C1012   1.388   .     A
C997   C1007   1.413   .     A
C998   O1036   1.267   .     A
C998   C1009   1.412   .     S
C998   O1038   1.291   .     A
C999   C1006   1.413   .     A
C1000  H1024   1.086   .     S
C1001  H1025   1.086   .     S
C1001  C485    1.390   1_556 S
C1002  C1006   1.447   .     S
C1003  C1007   1.447   .     S
C1003  N916    1.157   1_655 S
C1004  H1016   1.111   .     S
C1004  N1033   1.450   .     S
C1004  H1014   1.110   .     S
C1005  H1018   1.111   .     S
C1005  N1034   1.448   .     S
C1005  H1020   1.111   .     S
C1005  H671    1.112   1_565 S
C1006  C478    1.390   1_556 S
C1008  C661    1.361   1_565 S
C1008  N685    1.434   1_565 S
C1010  O1041   1.288   .     A
C1010  O1039   1.284   .     A
C1011  O1042   1.289   .     A
C1011  O1040   1.284   .     A
C1012  H1013   1.083   .     S
H1015  C656    1.110   1_565 S
H1027  N914    1.029   1_655 S
H1028  N685    1.032   1_565 S
N1029  Zn1044  2.009   .     S
N1029  H910    1.029   1_655 S
N1029  N914    1.281   1_655 S
N1030  Zn1043  2.009   .     S
N1031  C886    1.157   1_655 S
N1034  H669    1.031   1_565 S
N1034  C661    1.434   1_565 S
O1035  Zn1043  1.969   .     S
O1036  Zn1044  1.969   .     S
O1037  Zn1044  1.991   .     S
O1038  Zn1043  1.991   .     S
O1039  Zn1043  2.006   .     S
O1040  Zn1044  2.006   .     S
O1041  Zn1044  2.023   .     S
O1042  Zn1043  2.023   .     S
