data_str_m3_o1_o18_pcu_sym.137
_audit_creation_date              2020-01-03
_audit_creation_method            'Materials Studio'
_symmetry_space_group_name_H-M    'P1'
_symmetry_Int_Tables_number       1
_symmetry_cell_setting            triclinic
loop_
_symmetry_equiv_pos_as_xyz
  x,y,z
_cell_length_a                    29.8333
_cell_length_b                    32.1570
_cell_length_c                    30.3072
_cell_angle_alpha                 92.8361
_cell_angle_beta                  70.5683
_cell_angle_gamma                 90.0601
loop_
_atom_site_label
_atom_site_type_symbol
_atom_site_fract_x
_atom_site_fract_y
_atom_site_fract_z
_atom_site_U_iso_or_equiv
_atom_site_adp_type
_atom_site_occupancy
C1     C     0.16677   0.24661   0.24978   0.00000  Uiso   1.00
C2     C     0.16662   0.08673   0.25013   0.00000  Uiso   1.00
C3     C     0.15122   0.08836   0.02592   0.00000  Uiso   1.00
C4     C     0.23936   0.14440   0.43845   0.00000  Uiso   1.00
C5     C     0.11696   0.07923   0.00378   0.00000  Uiso   1.00
C6     C     0.26887   0.16113   0.46229   0.00000  Uiso   1.00
C7     C     0.20880   0.31192   0.24595   0.00000  Uiso   1.00
C8     C     0.12475   0.02144   0.25382   0.00000  Uiso   1.00
C9     C     0.20864   0.02119   0.24649   0.00000  Uiso   1.00
C10    C     0.12501   0.31219   0.25294   0.00000  Uiso   1.00
C11    C     0.16664   0.04254   0.25028   0.00000  Uiso   1.00
C12    C     0.16690   0.29081   0.24944   0.00000  Uiso   1.00
C13    C     0.31895   0.13946   0.22092   0.00000  Uiso   1.00
C14    C     0.01462   0.19481   0.27799   0.00000  Uiso   1.00
C15    C     0.03312   0.13889   0.22158   0.00000  Uiso   1.00
C16    C     0.30002   0.19466   0.27840   0.00000  Uiso   1.00
C17    C     0.13759   0.16439   0.33793   0.00000  Uiso   1.00
C18    C     0.19617   0.16633   0.16191   0.00000  Uiso   1.00
C19    C     0.12382   0.14982   0.38585   0.00000  Uiso   1.00
C20    C     0.21541   0.16432   0.11067   0.00000  Uiso   1.00
C21    C     0.07975   0.10150   0.44381   0.00000  Uiso   1.00
C22    C     0.28110   0.17708   0.03979   0.00000  Uiso   1.00
C23    C     0.08523   0.12376   0.40356   0.00000  Uiso   1.00
C24    C     0.26074   0.17939   0.08838   0.00000  Uiso   1.00
C25    C     0.15678   0.15394   0.40889   0.00000  Uiso   1.00
C26    C     0.19104   0.14416   0.08426   0.00000  Uiso   1.00
C27    C     0.15605   0.12847   0.44508   0.00000  Uiso   1.00
C28    C     0.21087   0.13972   0.03534   0.00000  Uiso   1.00
C29    C     0.11621   0.10277   0.46513   0.00000  Uiso   1.00
C30    C     0.25457   0.15989   0.01189   0.00000  Uiso   1.00
C31    C     0.19342   0.13111   0.46371   0.00000  Uiso   1.00
C32    C     0.18444   0.12010   0.00941   0.00000  Uiso   1.00
H33    H     0.15588   0.13282   0.10185   0.00000  Uiso   1.00
H34    H     0.18488   0.17623   0.39680   0.00000  Uiso   1.00
H35    H     0.28080   0.19308   0.10923   0.00000  Uiso   1.00
H36    H     0.05963   0.12002   0.38542   0.00000  Uiso   1.00
H37    H     0.24163   0.29570   0.24272   0.00000  Uiso   1.00
H38    H     0.09185   0.03762   0.25730   0.00000  Uiso   1.00
H39    H     0.24132   0.03719   0.24386   0.00000  Uiso   1.00
H40    H     0.09244   0.29627   0.25513   0.00000  Uiso   1.00
N41    N     0.04759   0.16668   0.25001   0.00000  Uiso   1.00
N42    N     0.28574   0.16666   0.24999   0.00000  Uiso   1.00
O43    O     0.12846   0.22775   0.25001   0.00000  Uiso   1.00
O44    O     0.20488   0.10558   0.24999   0.00000  Uiso   1.00
O45    O     0.20490   0.22774   0.25000   0.00000  Uiso   1.00
O46    O     0.12843   0.10559   0.25000   0.00000  Uiso   1.00
O47    O     0.10661   0.16667   0.31613   0.00000  Uiso   1.00
O48    O     0.22672   0.16666   0.18387   0.00000  Uiso   1.00
O49    O     0.18305   0.16666   0.31612   0.00000  Uiso   1.00
O50    O     0.15028   0.16667   0.18388   0.00000  Uiso   1.00
Zn51   Zn    0.11562   0.16667   0.25000   0.00000  Uiso   1.00
Zn52   Zn    0.21771   0.16666   0.25000   0.00000  Uiso   1.00
Br53   Br    0.07744   0.03178   0.02478   0.00000  Uiso   1.00
Br54   Br    0.32133   0.19249   0.42511   0.00000  Uiso   1.00
I55    I     0.01278   0.07142   0.46706   0.00000  Uiso   1.00
I56    I     0.02024   0.19605   0.01865   0.00000  Uiso   1.00
I57    I     0.16794   0.04365   0.06872   0.00000  Uiso   1.00
I58    I     0.27030   0.12285   0.36662   0.00000  Uiso   1.00
Br59   Br    0.30133   0.10254   0.17773   0.00000  Uiso   1.00
Br60   Br    0.03327   0.23496   0.31726   0.00000  Uiso   1.00
I61    I     0.08064   0.09343   0.17774   0.00000  Uiso   1.00
I62    I     0.25062   0.23805   0.32550   0.00000  Uiso   1.00
C63    C     0.50010   0.24661   0.24978   0.00000  Uiso   1.00
C64    C     0.49995   0.08673   0.25013   0.00000  Uiso   1.00
C65    C     0.48455   0.08836   0.02592   0.00000  Uiso   1.00
C66    C     0.57269   0.14440   0.43845   0.00000  Uiso   1.00
C67    C     0.45030   0.07923   0.00378   0.00000  Uiso   1.00
C68    C     0.60221   0.16113   0.46229   0.00000  Uiso   1.00
C69    C     0.54214   0.31192   0.24595   0.00000  Uiso   1.00
C70    C     0.45809   0.02144   0.25382   0.00000  Uiso   1.00
C71    C     0.54198   0.02119   0.24649   0.00000  Uiso   1.00
C72    C     0.45834   0.31219   0.25294   0.00000  Uiso   1.00
C73    C     0.49997   0.04254   0.25028   0.00000  Uiso   1.00
C74    C     0.50024   0.29081   0.24944   0.00000  Uiso   1.00
C75    C     0.65229   0.13946   0.22092   0.00000  Uiso   1.00
C76    C     0.34795   0.19481   0.27799   0.00000  Uiso   1.00
C77    C     0.36645   0.13889   0.22158   0.00000  Uiso   1.00
C78    C     0.63335   0.19466   0.27840   0.00000  Uiso   1.00
C79    C     0.47093   0.16439   0.33793   0.00000  Uiso   1.00
C80    C     0.52951   0.16633   0.16191   0.00000  Uiso   1.00
C81    C     0.45715   0.14982   0.38585   0.00000  Uiso   1.00
C82    C     0.54875   0.16432   0.11067   0.00000  Uiso   1.00
C83    C     0.41309   0.10150   0.44381   0.00000  Uiso   1.00
C84    C     0.61443   0.17708   0.03979   0.00000  Uiso   1.00
C85    C     0.41856   0.12376   0.40356   0.00000  Uiso   1.00
C86    C     0.59407   0.17939   0.08838   0.00000  Uiso   1.00
C87    C     0.49011   0.15394   0.40889   0.00000  Uiso   1.00
C88    C     0.52438   0.14416   0.08426   0.00000  Uiso   1.00
C89    C     0.48939   0.12847   0.44508   0.00000  Uiso   1.00
C90    C     0.54421   0.13972   0.03534   0.00000  Uiso   1.00
C91    C     0.44954   0.10277   0.46513   0.00000  Uiso   1.00
C92    C     0.58791   0.15989   0.01189   0.00000  Uiso   1.00
C93    C     0.52676   0.13111   0.46371   0.00000  Uiso   1.00
C94    C     0.51778   0.12010   0.00941   0.00000  Uiso   1.00
H95    H     0.48921   0.13282   0.10185   0.00000  Uiso   1.00
H96    H     0.51822   0.17623   0.39680   0.00000  Uiso   1.00
H97    H     0.61413   0.19308   0.10923   0.00000  Uiso   1.00
H98    H     0.39296   0.12002   0.38542   0.00000  Uiso   1.00
H99    H     0.57497   0.29570   0.24272   0.00000  Uiso   1.00
H100   H     0.42518   0.03762   0.25730   0.00000  Uiso   1.00
H101   H     0.57465   0.03719   0.24386   0.00000  Uiso   1.00
H102   H     0.42578   0.29627   0.25513   0.00000  Uiso   1.00
N103   N     0.38093   0.16668   0.25001   0.00000  Uiso   1.00
N104   N     0.61907   0.16666   0.24999   0.00000  Uiso   1.00
O105   O     0.46179   0.22775   0.25001   0.00000  Uiso   1.00
O106   O     0.53821   0.10558   0.24999   0.00000  Uiso   1.00
O107   O     0.53823   0.22774   0.25000   0.00000  Uiso   1.00
O108   O     0.46177   0.10559   0.25000   0.00000  Uiso   1.00
O109   O     0.43994   0.16667   0.31613   0.00000  Uiso   1.00
O110   O     0.56006   0.16666   0.18387   0.00000  Uiso   1.00
O111   O     0.51639   0.16666   0.31612   0.00000  Uiso   1.00
O112   O     0.48361   0.16667   0.18388   0.00000  Uiso   1.00
Zn113  Zn    0.44896   0.16667   0.25000   0.00000  Uiso   1.00
Zn114  Zn    0.55104   0.16666   0.25000   0.00000  Uiso   1.00
Br115  Br    0.41077   0.03178   0.02478   0.00000  Uiso   1.00
Br116  Br    0.65466   0.19249   0.42511   0.00000  Uiso   1.00
I117   I     0.34611   0.07142   0.46706   0.00000  Uiso   1.00
I118   I     0.35358   0.19605   0.01865   0.00000  Uiso   1.00
I119   I     0.50127   0.04365   0.06872   0.00000  Uiso   1.00
I120   I     0.60363   0.12285   0.36662   0.00000  Uiso   1.00
Br121  Br    0.63466   0.10254   0.17773   0.00000  Uiso   1.00
Br122  Br    0.36660   0.23496   0.31726   0.00000  Uiso   1.00
I123   I     0.41397   0.09343   0.17774   0.00000  Uiso   1.00
I124   I     0.58395   0.23805   0.32550   0.00000  Uiso   1.00
C125   C     0.83344   0.24661   0.24978   0.00000  Uiso   1.00
C126   C     0.83328   0.08673   0.25013   0.00000  Uiso   1.00
C127   C     0.81789   0.08836   0.02592   0.00000  Uiso   1.00
C128   C     0.90602   0.14440   0.43845   0.00000  Uiso   1.00
C129   C     0.78363   0.07923   0.00378   0.00000  Uiso   1.00
C130   C     0.93554   0.16113   0.46229   0.00000  Uiso   1.00
C131   C     0.87547   0.31192   0.24595   0.00000  Uiso   1.00
C132   C     0.79142   0.02144   0.25382   0.00000  Uiso   1.00
C133   C     0.87531   0.02119   0.24649   0.00000  Uiso   1.00
C134   C     0.79168   0.31219   0.25294   0.00000  Uiso   1.00
C135   C     0.83330   0.04254   0.25028   0.00000  Uiso   1.00
C136   C     0.83357   0.29081   0.24944   0.00000  Uiso   1.00
C137   C     0.98562   0.13946   0.22092   0.00000  Uiso   1.00
C138   C     0.68129   0.19481   0.27799   0.00000  Uiso   1.00
C139   C     0.69978   0.13889   0.22158   0.00000  Uiso   1.00
C140   C     0.96668   0.19466   0.27840   0.00000  Uiso   1.00
C141   C     0.80426   0.16439   0.33793   0.00000  Uiso   1.00
C142   C     0.86284   0.16633   0.16191   0.00000  Uiso   1.00
C143   C     0.79049   0.14982   0.38585   0.00000  Uiso   1.00
C144   C     0.88208   0.16432   0.11067   0.00000  Uiso   1.00
C145   C     0.74642   0.10150   0.44381   0.00000  Uiso   1.00
C146   C     0.94777   0.17708   0.03979   0.00000  Uiso   1.00
C147   C     0.75190   0.12376   0.40356   0.00000  Uiso   1.00
C148   C     0.92741   0.17939   0.08838   0.00000  Uiso   1.00
C149   C     0.82344   0.15394   0.40889   0.00000  Uiso   1.00
C150   C     0.85771   0.14416   0.08426   0.00000  Uiso   1.00
C151   C     0.82272   0.12847   0.44508   0.00000  Uiso   1.00
C152   C     0.87754   0.13972   0.03534   0.00000  Uiso   1.00
C153   C     0.78287   0.10277   0.46513   0.00000  Uiso   1.00
C154   C     0.92124   0.15989   0.01189   0.00000  Uiso   1.00
C155   C     0.86009   0.13111   0.46371   0.00000  Uiso   1.00
C156   C     0.85111   0.12010   0.00941   0.00000  Uiso   1.00
H157   H     0.82254   0.13282   0.10185   0.00000  Uiso   1.00
H158   H     0.85155   0.17623   0.39680   0.00000  Uiso   1.00
H159   H     0.94747   0.19308   0.10923   0.00000  Uiso   1.00
H160   H     0.72629   0.12002   0.38542   0.00000  Uiso   1.00
H161   H     0.90830   0.29570   0.24272   0.00000  Uiso   1.00
H162   H     0.75852   0.03762   0.25730   0.00000  Uiso   1.00
H163   H     0.90799   0.03719   0.24386   0.00000  Uiso   1.00
H164   H     0.75911   0.29627   0.25513   0.00000  Uiso   1.00
N165   N     0.71426   0.16668   0.25001   0.00000  Uiso   1.00
N166   N     0.95241   0.16666   0.24999   0.00000  Uiso   1.00
O167   O     0.79512   0.22775   0.25001   0.00000  Uiso   1.00
O168   O     0.87154   0.10558   0.24999   0.00000  Uiso   1.00
O169   O     0.87157   0.22774   0.25000   0.00000  Uiso   1.00
O170   O     0.79510   0.10559   0.25000   0.00000  Uiso   1.00
O171   O     0.77328   0.16667   0.31613   0.00000  Uiso   1.00
O172   O     0.89339   0.16666   0.18387   0.00000  Uiso   1.00
O173   O     0.84972   0.16666   0.31612   0.00000  Uiso   1.00
O174   O     0.81695   0.16667   0.18388   0.00000  Uiso   1.00
Zn175  Zn    0.78229   0.16667   0.25000   0.00000  Uiso   1.00
Zn176  Zn    0.88438   0.16666   0.25000   0.00000  Uiso   1.00
Br177  Br    0.74411   0.03178   0.02478   0.00000  Uiso   1.00
Br178  Br    0.98800   0.19249   0.42511   0.00000  Uiso   1.00
I179   I     0.67945   0.07142   0.46706   0.00000  Uiso   1.00
I180   I     0.68691   0.19605   0.01865   0.00000  Uiso   1.00
I181   I     0.83461   0.04365   0.06872   0.00000  Uiso   1.00
I182   I     0.93697   0.12285   0.36662   0.00000  Uiso   1.00
Br183  Br    0.96800   0.10254   0.17773   0.00000  Uiso   1.00
Br184  Br    0.69994   0.23496   0.31726   0.00000  Uiso   1.00
I185   I     0.74730   0.09343   0.17774   0.00000  Uiso   1.00
I186   I     0.91728   0.23805   0.32550   0.00000  Uiso   1.00
C187   C     0.16677   0.57994   0.24978   0.00000  Uiso   1.00
C188   C     0.16662   0.42007   0.25013   0.00000  Uiso   1.00
C189   C     0.15122   0.42169   0.02592   0.00000  Uiso   1.00
C190   C     0.23936   0.47773   0.43845   0.00000  Uiso   1.00
C191   C     0.11696   0.41257   0.00378   0.00000  Uiso   1.00
C192   C     0.26887   0.49446   0.46229   0.00000  Uiso   1.00
C193   C     0.20880   0.64525   0.24595   0.00000  Uiso   1.00
C194   C     0.12475   0.35477   0.25382   0.00000  Uiso   1.00
C195   C     0.20864   0.35452   0.24649   0.00000  Uiso   1.00
C196   C     0.12501   0.64553   0.25294   0.00000  Uiso   1.00
C197   C     0.16664   0.37588   0.25028   0.00000  Uiso   1.00
C198   C     0.16690   0.62415   0.24944   0.00000  Uiso   1.00
C199   C     0.31895   0.47279   0.22092   0.00000  Uiso   1.00
C200   C     0.01462   0.52815   0.27799   0.00000  Uiso   1.00
C201   C     0.03312   0.47222   0.22158   0.00000  Uiso   1.00
C202   C     0.30002   0.52799   0.27840   0.00000  Uiso   1.00
C203   C     0.13759   0.49773   0.33793   0.00000  Uiso   1.00
C204   C     0.19617   0.49966   0.16191   0.00000  Uiso   1.00
C205   C     0.12382   0.48316   0.38585   0.00000  Uiso   1.00
C206   C     0.21541   0.49765   0.11067   0.00000  Uiso   1.00
C207   C     0.07975   0.43484   0.44381   0.00000  Uiso   1.00
C208   C     0.28110   0.51042   0.03979   0.00000  Uiso   1.00
C209   C     0.08523   0.45709   0.40356   0.00000  Uiso   1.00
C210   C     0.26074   0.51272   0.08838   0.00000  Uiso   1.00
C211   C     0.15678   0.48727   0.40889   0.00000  Uiso   1.00
C212   C     0.19104   0.47750   0.08426   0.00000  Uiso   1.00
C213   C     0.15605   0.46181   0.44508   0.00000  Uiso   1.00
C214   C     0.21087   0.47305   0.03534   0.00000  Uiso   1.00
C215   C     0.11621   0.43611   0.46513   0.00000  Uiso   1.00
C216   C     0.25457   0.49322   0.01189   0.00000  Uiso   1.00
C217   C     0.19342   0.46444   0.46371   0.00000  Uiso   1.00
C218   C     0.18444   0.45344   0.00941   0.00000  Uiso   1.00
H219   H     0.15588   0.46615   0.10185   0.00000  Uiso   1.00
H220   H     0.18488   0.50956   0.39680   0.00000  Uiso   1.00
H221   H     0.28080   0.52641   0.10923   0.00000  Uiso   1.00
H222   H     0.05963   0.45335   0.38542   0.00000  Uiso   1.00
H223   H     0.24163   0.62903   0.24272   0.00000  Uiso   1.00
H224   H     0.09185   0.37096   0.25730   0.00000  Uiso   1.00
H225   H     0.24132   0.37052   0.24386   0.00000  Uiso   1.00
H226   H     0.09244   0.62960   0.25513   0.00000  Uiso   1.00
N227   N     0.04759   0.50001   0.25001   0.00000  Uiso   1.00
N228   N     0.28574   0.49999   0.24999   0.00000  Uiso   1.00
O229   O     0.12846   0.56108   0.25001   0.00000  Uiso   1.00
O230   O     0.20488   0.43892   0.24999   0.00000  Uiso   1.00
O231   O     0.20490   0.56107   0.25000   0.00000  Uiso   1.00
O232   O     0.12843   0.43893   0.25000   0.00000  Uiso   1.00
O233   O     0.10661   0.50001   0.31613   0.00000  Uiso   1.00
O234   O     0.22672   0.49999   0.18387   0.00000  Uiso   1.00
O235   O     0.18305   0.50000   0.31612   0.00000  Uiso   1.00
O236   O     0.15028   0.50000   0.18388   0.00000  Uiso   1.00
Zn237  Zn    0.11562   0.50001   0.25000   0.00000  Uiso   1.00
Zn238  Zn    0.21771   0.49999   0.25000   0.00000  Uiso   1.00
Br239  Br    0.07744   0.36512   0.02478   0.00000  Uiso   1.00
Br240  Br    0.32133   0.52582   0.42511   0.00000  Uiso   1.00
I241   I     0.01278   0.40475   0.46706   0.00000  Uiso   1.00
I242   I     0.02024   0.52939   0.01865   0.00000  Uiso   1.00
I243   I     0.16794   0.37698   0.06872   0.00000  Uiso   1.00
I244   I     0.27030   0.45618   0.36662   0.00000  Uiso   1.00
Br245  Br    0.30133   0.43588   0.17773   0.00000  Uiso   1.00
Br246  Br    0.03327   0.56829   0.31726   0.00000  Uiso   1.00
I247   I     0.08064   0.42676   0.17774   0.00000  Uiso   1.00
I248   I     0.25062   0.57139   0.32550   0.00000  Uiso   1.00
C249   C     0.50010   0.57994   0.24978   0.00000  Uiso   1.00
C250   C     0.49995   0.42007   0.25013   0.00000  Uiso   1.00
C251   C     0.48455   0.42169   0.02592   0.00000  Uiso   1.00
C252   C     0.57269   0.47773   0.43845   0.00000  Uiso   1.00
C253   C     0.45030   0.41257   0.00378   0.00000  Uiso   1.00
C254   C     0.60221   0.49446   0.46229   0.00000  Uiso   1.00
C255   C     0.54214   0.64525   0.24595   0.00000  Uiso   1.00
C256   C     0.45809   0.35477   0.25382   0.00000  Uiso   1.00
C257   C     0.54198   0.35452   0.24649   0.00000  Uiso   1.00
C258   C     0.45834   0.64553   0.25294   0.00000  Uiso   1.00
C259   C     0.49997   0.37588   0.25028   0.00000  Uiso   1.00
C260   C     0.50024   0.62415   0.24944   0.00000  Uiso   1.00
C261   C     0.65229   0.47279   0.22092   0.00000  Uiso   1.00
C262   C     0.34795   0.52815   0.27799   0.00000  Uiso   1.00
C263   C     0.36645   0.47222   0.22158   0.00000  Uiso   1.00
C264   C     0.63335   0.52799   0.27840   0.00000  Uiso   1.00
C265   C     0.47093   0.49773   0.33793   0.00000  Uiso   1.00
C266   C     0.52951   0.49966   0.16191   0.00000  Uiso   1.00
C267   C     0.45715   0.48316   0.38585   0.00000  Uiso   1.00
C268   C     0.54875   0.49765   0.11067   0.00000  Uiso   1.00
C269   C     0.41309   0.43484   0.44381   0.00000  Uiso   1.00
C270   C     0.61443   0.51042   0.03979   0.00000  Uiso   1.00
C271   C     0.41856   0.45709   0.40356   0.00000  Uiso   1.00
C272   C     0.59407   0.51272   0.08838   0.00000  Uiso   1.00
C273   C     0.49011   0.48727   0.40889   0.00000  Uiso   1.00
C274   C     0.52438   0.47750   0.08426   0.00000  Uiso   1.00
C275   C     0.48939   0.46181   0.44508   0.00000  Uiso   1.00
C276   C     0.54421   0.47305   0.03534   0.00000  Uiso   1.00
C277   C     0.44954   0.43611   0.46513   0.00000  Uiso   1.00
C278   C     0.58791   0.49322   0.01189   0.00000  Uiso   1.00
C279   C     0.52676   0.46444   0.46371   0.00000  Uiso   1.00
C280   C     0.51778   0.45344   0.00941   0.00000  Uiso   1.00
H281   H     0.48921   0.46615   0.10185   0.00000  Uiso   1.00
H282   H     0.51822   0.50956   0.39680   0.00000  Uiso   1.00
H283   H     0.61413   0.52641   0.10923   0.00000  Uiso   1.00
H284   H     0.39296   0.45335   0.38542   0.00000  Uiso   1.00
H285   H     0.57497   0.62903   0.24272   0.00000  Uiso   1.00
H286   H     0.42518   0.37096   0.25730   0.00000  Uiso   1.00
H287   H     0.57465   0.37052   0.24386   0.00000  Uiso   1.00
H288   H     0.42578   0.62960   0.25513   0.00000  Uiso   1.00
N289   N     0.38093   0.50001   0.25001   0.00000  Uiso   1.00
N290   N     0.61907   0.49999   0.24999   0.00000  Uiso   1.00
O291   O     0.46179   0.56108   0.25001   0.00000  Uiso   1.00
O292   O     0.53821   0.43892   0.24999   0.00000  Uiso   1.00
O293   O     0.53823   0.56107   0.25000   0.00000  Uiso   1.00
O294   O     0.46177   0.43893   0.25000   0.00000  Uiso   1.00
O295   O     0.43994   0.50001   0.31613   0.00000  Uiso   1.00
O296   O     0.56006   0.49999   0.18387   0.00000  Uiso   1.00
O297   O     0.51639   0.50000   0.31612   0.00000  Uiso   1.00
O298   O     0.48361   0.50000   0.18388   0.00000  Uiso   1.00
Zn299  Zn    0.44896   0.50001   0.25000   0.00000  Uiso   1.00
Zn300  Zn    0.55104   0.49999   0.25000   0.00000  Uiso   1.00
Br301  Br    0.41077   0.36512   0.02478   0.00000  Uiso   1.00
Br302  Br    0.65466   0.52582   0.42511   0.00000  Uiso   1.00
I303   I     0.34611   0.40475   0.46706   0.00000  Uiso   1.00
I304   I     0.35358   0.52939   0.01865   0.00000  Uiso   1.00
I305   I     0.50127   0.37698   0.06872   0.00000  Uiso   1.00
I306   I     0.60363   0.45618   0.36662   0.00000  Uiso   1.00
Br307  Br    0.63466   0.43588   0.17773   0.00000  Uiso   1.00
Br308  Br    0.36660   0.56829   0.31726   0.00000  Uiso   1.00
I309   I     0.41397   0.42676   0.17774   0.00000  Uiso   1.00
I310   I     0.58395   0.57139   0.32550   0.00000  Uiso   1.00
C311   C     0.83344   0.57994   0.24978   0.00000  Uiso   1.00
C312   C     0.83328   0.42007   0.25013   0.00000  Uiso   1.00
C313   C     0.81789   0.42169   0.02592   0.00000  Uiso   1.00
C314   C     0.90602   0.47773   0.43845   0.00000  Uiso   1.00
C315   C     0.78363   0.41257   0.00378   0.00000  Uiso   1.00
C316   C     0.93554   0.49446   0.46229   0.00000  Uiso   1.00
C317   C     0.87547   0.64525   0.24595   0.00000  Uiso   1.00
C318   C     0.79142   0.35477   0.25382   0.00000  Uiso   1.00
C319   C     0.87531   0.35452   0.24649   0.00000  Uiso   1.00
C320   C     0.79168   0.64553   0.25294   0.00000  Uiso   1.00
C321   C     0.83330   0.37588   0.25028   0.00000  Uiso   1.00
C322   C     0.83357   0.62415   0.24944   0.00000  Uiso   1.00
C323   C     0.98562   0.47279   0.22092   0.00000  Uiso   1.00
C324   C     0.68129   0.52815   0.27799   0.00000  Uiso   1.00
C325   C     0.69978   0.47222   0.22158   0.00000  Uiso   1.00
C326   C     0.96668   0.52799   0.27840   0.00000  Uiso   1.00
C327   C     0.80426   0.49773   0.33793   0.00000  Uiso   1.00
C328   C     0.86284   0.49966   0.16191   0.00000  Uiso   1.00
C329   C     0.79049   0.48316   0.38585   0.00000  Uiso   1.00
C330   C     0.88208   0.49765   0.11067   0.00000  Uiso   1.00
C331   C     0.74642   0.43484   0.44381   0.00000  Uiso   1.00
C332   C     0.94777   0.51042   0.03979   0.00000  Uiso   1.00
C333   C     0.75190   0.45709   0.40356   0.00000  Uiso   1.00
C334   C     0.92741   0.51272   0.08838   0.00000  Uiso   1.00
C335   C     0.82344   0.48727   0.40889   0.00000  Uiso   1.00
C336   C     0.85771   0.47750   0.08426   0.00000  Uiso   1.00
C337   C     0.82272   0.46181   0.44508   0.00000  Uiso   1.00
C338   C     0.87754   0.47305   0.03534   0.00000  Uiso   1.00
C339   C     0.78287   0.43611   0.46513   0.00000  Uiso   1.00
C340   C     0.92124   0.49322   0.01189   0.00000  Uiso   1.00
C341   C     0.86009   0.46444   0.46371   0.00000  Uiso   1.00
C342   C     0.85111   0.45344   0.00941   0.00000  Uiso   1.00
H343   H     0.82254   0.46615   0.10185   0.00000  Uiso   1.00
H344   H     0.85155   0.50956   0.39680   0.00000  Uiso   1.00
H345   H     0.94747   0.52641   0.10923   0.00000  Uiso   1.00
H346   H     0.72629   0.45335   0.38542   0.00000  Uiso   1.00
H347   H     0.90830   0.62903   0.24272   0.00000  Uiso   1.00
H348   H     0.75852   0.37096   0.25730   0.00000  Uiso   1.00
H349   H     0.90799   0.37052   0.24386   0.00000  Uiso   1.00
H350   H     0.75911   0.62960   0.25513   0.00000  Uiso   1.00
N351   N     0.71426   0.50001   0.25001   0.00000  Uiso   1.00
N352   N     0.95241   0.49999   0.24999   0.00000  Uiso   1.00
O353   O     0.79512   0.56108   0.25001   0.00000  Uiso   1.00
O354   O     0.87154   0.43892   0.24999   0.00000  Uiso   1.00
O355   O     0.87157   0.56107   0.25000   0.00000  Uiso   1.00
O356   O     0.79510   0.43893   0.25000   0.00000  Uiso   1.00
O357   O     0.77328   0.50001   0.31613   0.00000  Uiso   1.00
O358   O     0.89339   0.49999   0.18387   0.00000  Uiso   1.00
O359   O     0.84972   0.50000   0.31612   0.00000  Uiso   1.00
O360   O     0.81695   0.50000   0.18388   0.00000  Uiso   1.00
Zn361  Zn    0.78229   0.50001   0.25000   0.00000  Uiso   1.00
Zn362  Zn    0.88438   0.49999   0.25000   0.00000  Uiso   1.00
Br363  Br    0.74411   0.36512   0.02478   0.00000  Uiso   1.00
Br364  Br    0.98800   0.52582   0.42511   0.00000  Uiso   1.00
I365   I     0.67945   0.40475   0.46706   0.00000  Uiso   1.00
I366   I     0.68691   0.52939   0.01865   0.00000  Uiso   1.00
I367   I     0.83461   0.37698   0.06872   0.00000  Uiso   1.00
I368   I     0.93697   0.45618   0.36662   0.00000  Uiso   1.00
Br369  Br    0.96800   0.43588   0.17773   0.00000  Uiso   1.00
Br370  Br    0.69994   0.56829   0.31726   0.00000  Uiso   1.00
I371   I     0.74730   0.42676   0.17774   0.00000  Uiso   1.00
I372   I     0.91728   0.57139   0.32550   0.00000  Uiso   1.00
C373   C     0.16677   0.91327   0.24978   0.00000  Uiso   1.00
C374   C     0.16662   0.75340   0.25013   0.00000  Uiso   1.00
C375   C     0.15122   0.75503   0.02592   0.00000  Uiso   1.00
C376   C     0.23936   0.81107   0.43845   0.00000  Uiso   1.00
C377   C     0.11696   0.74590   0.00378   0.00000  Uiso   1.00
C378   C     0.26887   0.82780   0.46229   0.00000  Uiso   1.00
C379   C     0.20880   0.97858   0.24595   0.00000  Uiso   1.00
C380   C     0.12475   0.68811   0.25382   0.00000  Uiso   1.00
C381   C     0.20864   0.68786   0.24649   0.00000  Uiso   1.00
C382   C     0.12501   0.97886   0.25294   0.00000  Uiso   1.00
C383   C     0.16664   0.70921   0.25028   0.00000  Uiso   1.00
C384   C     0.16690   0.95748   0.24944   0.00000  Uiso   1.00
C385   C     0.31895   0.80613   0.22092   0.00000  Uiso   1.00
C386   C     0.01462   0.86148   0.27799   0.00000  Uiso   1.00
C387   C     0.03312   0.80556   0.22158   0.00000  Uiso   1.00
C388   C     0.30002   0.86132   0.27840   0.00000  Uiso   1.00
C389   C     0.13759   0.83106   0.33793   0.00000  Uiso   1.00
C390   C     0.19617   0.83299   0.16191   0.00000  Uiso   1.00
C391   C     0.12382   0.81649   0.38585   0.00000  Uiso   1.00
C392   C     0.21541   0.83098   0.11067   0.00000  Uiso   1.00
C393   C     0.07975   0.76817   0.44381   0.00000  Uiso   1.00
C394   C     0.28110   0.84375   0.03979   0.00000  Uiso   1.00
C395   C     0.08523   0.79043   0.40356   0.00000  Uiso   1.00
C396   C     0.26074   0.84606   0.08838   0.00000  Uiso   1.00
C397   C     0.15678   0.82061   0.40889   0.00000  Uiso   1.00
C398   C     0.19104   0.81083   0.08426   0.00000  Uiso   1.00
C399   C     0.15605   0.79514   0.44508   0.00000  Uiso   1.00
C400   C     0.21087   0.80638   0.03534   0.00000  Uiso   1.00
C401   C     0.11621   0.76944   0.46513   0.00000  Uiso   1.00
C402   C     0.25457   0.82656   0.01189   0.00000  Uiso   1.00
C403   C     0.19342   0.79778   0.46371   0.00000  Uiso   1.00
C404   C     0.18444   0.78677   0.00941   0.00000  Uiso   1.00
H405   H     0.15588   0.79949   0.10185   0.00000  Uiso   1.00
H406   H     0.18488   0.84289   0.39680   0.00000  Uiso   1.00
H407   H     0.28080   0.85975   0.10923   0.00000  Uiso   1.00
H408   H     0.05963   0.78668   0.38542   0.00000  Uiso   1.00
H409   H     0.24163   0.96237   0.24272   0.00000  Uiso   1.00
H410   H     0.09185   0.70429   0.25730   0.00000  Uiso   1.00
H411   H     0.24132   0.70385   0.24386   0.00000  Uiso   1.00
H412   H     0.09244   0.96294   0.25513   0.00000  Uiso   1.00
N413   N     0.04759   0.83334   0.25001   0.00000  Uiso   1.00
N414   N     0.28574   0.83332   0.24999   0.00000  Uiso   1.00
O415   O     0.12846   0.89442   0.25001   0.00000  Uiso   1.00
O416   O     0.20488   0.77225   0.24999   0.00000  Uiso   1.00
O417   O     0.20490   0.89441   0.25000   0.00000  Uiso   1.00
O418   O     0.12843   0.77226   0.25000   0.00000  Uiso   1.00
O419   O     0.10661   0.83334   0.31613   0.00000  Uiso   1.00
O420   O     0.22672   0.83333   0.18387   0.00000  Uiso   1.00
O421   O     0.18305   0.83333   0.31612   0.00000  Uiso   1.00
O422   O     0.15028   0.83334   0.18388   0.00000  Uiso   1.00
Zn423  Zn    0.11562   0.83334   0.25000   0.00000  Uiso   1.00
Zn424  Zn    0.21771   0.83333   0.25000   0.00000  Uiso   1.00
Br425  Br    0.07744   0.69845   0.02478   0.00000  Uiso   1.00
Br426  Br    0.32133   0.85916   0.42511   0.00000  Uiso   1.00
I427   I     0.01278   0.73809   0.46706   0.00000  Uiso   1.00
I428   I     0.02024   0.86272   0.01865   0.00000  Uiso   1.00
I429   I     0.16794   0.71031   0.06872   0.00000  Uiso   1.00
I430   I     0.27030   0.78951   0.36662   0.00000  Uiso   1.00
Br431  Br    0.30133   0.76921   0.17773   0.00000  Uiso   1.00
Br432  Br    0.03327   0.90162   0.31726   0.00000  Uiso   1.00
I433   I     0.08064   0.76010   0.17774   0.00000  Uiso   1.00
I434   I     0.25062   0.90472   0.32550   0.00000  Uiso   1.00
C435   C     0.50010   0.91327   0.24978   0.00000  Uiso   1.00
C436   C     0.49995   0.75340   0.25013   0.00000  Uiso   1.00
C437   C     0.48455   0.75503   0.02592   0.00000  Uiso   1.00
C438   C     0.57269   0.81107   0.43845   0.00000  Uiso   1.00
C439   C     0.45030   0.74590   0.00378   0.00000  Uiso   1.00
C440   C     0.60221   0.82780   0.46229   0.00000  Uiso   1.00
C441   C     0.54214   0.97858   0.24595   0.00000  Uiso   1.00
C442   C     0.45809   0.68811   0.25382   0.00000  Uiso   1.00
C443   C     0.54198   0.68786   0.24649   0.00000  Uiso   1.00
C444   C     0.45834   0.97886   0.25294   0.00000  Uiso   1.00
C445   C     0.49997   0.70921   0.25028   0.00000  Uiso   1.00
C446   C     0.50024   0.95748   0.24944   0.00000  Uiso   1.00
C447   C     0.65229   0.80613   0.22092   0.00000  Uiso   1.00
C448   C     0.34795   0.86148   0.27799   0.00000  Uiso   1.00
C449   C     0.36645   0.80556   0.22158   0.00000  Uiso   1.00
C450   C     0.63335   0.86132   0.27840   0.00000  Uiso   1.00
C451   C     0.47093   0.83106   0.33793   0.00000  Uiso   1.00
C452   C     0.52951   0.83299   0.16191   0.00000  Uiso   1.00
C453   C     0.45715   0.81649   0.38585   0.00000  Uiso   1.00
C454   C     0.54875   0.83098   0.11067   0.00000  Uiso   1.00
C455   C     0.41309   0.76817   0.44381   0.00000  Uiso   1.00
C456   C     0.61443   0.84375   0.03979   0.00000  Uiso   1.00
C457   C     0.41856   0.79043   0.40356   0.00000  Uiso   1.00
C458   C     0.59407   0.84606   0.08838   0.00000  Uiso   1.00
C459   C     0.49011   0.82061   0.40889   0.00000  Uiso   1.00
C460   C     0.52438   0.81083   0.08426   0.00000  Uiso   1.00
C461   C     0.48939   0.79514   0.44508   0.00000  Uiso   1.00
C462   C     0.54421   0.80638   0.03534   0.00000  Uiso   1.00
C463   C     0.44954   0.76944   0.46513   0.00000  Uiso   1.00
C464   C     0.58791   0.82656   0.01189   0.00000  Uiso   1.00
C465   C     0.52676   0.79778   0.46371   0.00000  Uiso   1.00
C466   C     0.51778   0.78677   0.00941   0.00000  Uiso   1.00
H467   H     0.48921   0.79949   0.10185   0.00000  Uiso   1.00
H468   H     0.51822   0.84289   0.39680   0.00000  Uiso   1.00
H469   H     0.61413   0.85975   0.10923   0.00000  Uiso   1.00
H470   H     0.39296   0.78668   0.38542   0.00000  Uiso   1.00
H471   H     0.57497   0.96237   0.24272   0.00000  Uiso   1.00
H472   H     0.42518   0.70429   0.25730   0.00000  Uiso   1.00
H473   H     0.57465   0.70385   0.24386   0.00000  Uiso   1.00
H474   H     0.42578   0.96294   0.25513   0.00000  Uiso   1.00
N475   N     0.38093   0.83334   0.25001   0.00000  Uiso   1.00
N476   N     0.61907   0.83332   0.24999   0.00000  Uiso   1.00
O477   O     0.46179   0.89442   0.25001   0.00000  Uiso   1.00
O478   O     0.53821   0.77225   0.24999   0.00000  Uiso   1.00
O479   O     0.53823   0.89441   0.25000   0.00000  Uiso   1.00
O480   O     0.46177   0.77226   0.25000   0.00000  Uiso   1.00
O481   O     0.43994   0.83334   0.31613   0.00000  Uiso   1.00
O482   O     0.56006   0.83333   0.18387   0.00000  Uiso   1.00
O483   O     0.51639   0.83333   0.31612   0.00000  Uiso   1.00
O484   O     0.48361   0.83334   0.18388   0.00000  Uiso   1.00
Zn485  Zn    0.44896   0.83334   0.25000   0.00000  Uiso   1.00
Zn486  Zn    0.55104   0.83333   0.25000   0.00000  Uiso   1.00
Br487  Br    0.41077   0.69845   0.02478   0.00000  Uiso   1.00
Br488  Br    0.65466   0.85916   0.42511   0.00000  Uiso   1.00
I489   I     0.34611   0.73809   0.46706   0.00000  Uiso   1.00
I490   I     0.35358   0.86272   0.01865   0.00000  Uiso   1.00
I491   I     0.50127   0.71031   0.06872   0.00000  Uiso   1.00
I492   I     0.60363   0.78951   0.36662   0.00000  Uiso   1.00
Br493  Br    0.63466   0.76921   0.17773   0.00000  Uiso   1.00
Br494  Br    0.36660   0.90162   0.31726   0.00000  Uiso   1.00
I495   I     0.41397   0.76010   0.17774   0.00000  Uiso   1.00
I496   I     0.58395   0.90472   0.32550   0.00000  Uiso   1.00
C497   C     0.83344   0.91327   0.24978   0.00000  Uiso   1.00
C498   C     0.83328   0.75340   0.25013   0.00000  Uiso   1.00
C499   C     0.81789   0.75503   0.02592   0.00000  Uiso   1.00
C500   C     0.90602   0.81107   0.43845   0.00000  Uiso   1.00
C501   C     0.78363   0.74590   0.00378   0.00000  Uiso   1.00
C502   C     0.93554   0.82780   0.46229   0.00000  Uiso   1.00
C503   C     0.87547   0.97858   0.24595   0.00000  Uiso   1.00
C504   C     0.79142   0.68811   0.25382   0.00000  Uiso   1.00
C505   C     0.87531   0.68786   0.24649   0.00000  Uiso   1.00
C506   C     0.79168   0.97886   0.25294   0.00000  Uiso   1.00
C507   C     0.83330   0.70921   0.25028   0.00000  Uiso   1.00
C508   C     0.83357   0.95748   0.24944   0.00000  Uiso   1.00
C509   C     0.98562   0.80613   0.22092   0.00000  Uiso   1.00
C510   C     0.68129   0.86148   0.27799   0.00000  Uiso   1.00
C511   C     0.69978   0.80556   0.22158   0.00000  Uiso   1.00
C512   C     0.96668   0.86132   0.27840   0.00000  Uiso   1.00
C513   C     0.80426   0.83106   0.33793   0.00000  Uiso   1.00
C514   C     0.86284   0.83299   0.16191   0.00000  Uiso   1.00
C515   C     0.79049   0.81649   0.38585   0.00000  Uiso   1.00
C516   C     0.88208   0.83098   0.11067   0.00000  Uiso   1.00
C517   C     0.74642   0.76817   0.44381   0.00000  Uiso   1.00
C518   C     0.94777   0.84375   0.03979   0.00000  Uiso   1.00
C519   C     0.75190   0.79043   0.40356   0.00000  Uiso   1.00
C520   C     0.92741   0.84606   0.08838   0.00000  Uiso   1.00
C521   C     0.82344   0.82061   0.40889   0.00000  Uiso   1.00
C522   C     0.85771   0.81083   0.08426   0.00000  Uiso   1.00
C523   C     0.82272   0.79514   0.44508   0.00000  Uiso   1.00
C524   C     0.87754   0.80638   0.03534   0.00000  Uiso   1.00
C525   C     0.78287   0.76944   0.46513   0.00000  Uiso   1.00
C526   C     0.92124   0.82656   0.01189   0.00000  Uiso   1.00
C527   C     0.86009   0.79778   0.46371   0.00000  Uiso   1.00
C528   C     0.85111   0.78677   0.00941   0.00000  Uiso   1.00
H529   H     0.82254   0.79949   0.10185   0.00000  Uiso   1.00
H530   H     0.85155   0.84289   0.39680   0.00000  Uiso   1.00
H531   H     0.94747   0.85975   0.10923   0.00000  Uiso   1.00
H532   H     0.72629   0.78668   0.38542   0.00000  Uiso   1.00
H533   H     0.90830   0.96237   0.24272   0.00000  Uiso   1.00
H534   H     0.75852   0.70429   0.25730   0.00000  Uiso   1.00
H535   H     0.90799   0.70385   0.24386   0.00000  Uiso   1.00
H536   H     0.75911   0.96294   0.25513   0.00000  Uiso   1.00
N537   N     0.71426   0.83334   0.25001   0.00000  Uiso   1.00
N538   N     0.95241   0.83332   0.24999   0.00000  Uiso   1.00
O539   O     0.79512   0.89442   0.25001   0.00000  Uiso   1.00
O540   O     0.87154   0.77225   0.24999   0.00000  Uiso   1.00
O541   O     0.87157   0.89441   0.25000   0.00000  Uiso   1.00
O542   O     0.79510   0.77226   0.25000   0.00000  Uiso   1.00
O543   O     0.77328   0.83334   0.31613   0.00000  Uiso   1.00
O544   O     0.89339   0.83333   0.18387   0.00000  Uiso   1.00
O545   O     0.84972   0.83333   0.31612   0.00000  Uiso   1.00
O546   O     0.81695   0.83334   0.18388   0.00000  Uiso   1.00
Zn547  Zn    0.78229   0.83334   0.25000   0.00000  Uiso   1.00
Zn548  Zn    0.88438   0.83333   0.25000   0.00000  Uiso   1.00
Br549  Br    0.74411   0.69845   0.02478   0.00000  Uiso   1.00
Br550  Br    0.98800   0.85916   0.42511   0.00000  Uiso   1.00
I551   I     0.67945   0.73809   0.46706   0.00000  Uiso   1.00
I552   I     0.68691   0.86272   0.01865   0.00000  Uiso   1.00
I553   I     0.83461   0.71031   0.06872   0.00000  Uiso   1.00
I554   I     0.93697   0.78951   0.36662   0.00000  Uiso   1.00
Br555  Br    0.96800   0.76921   0.17773   0.00000  Uiso   1.00
Br556  Br    0.69994   0.90162   0.31726   0.00000  Uiso   1.00
I557   I     0.74730   0.76010   0.17774   0.00000  Uiso   1.00
I558   I     0.91728   0.90472   0.32550   0.00000  Uiso   1.00
C559   C     0.16677   0.24661   0.74978   0.00000  Uiso   1.00
C560   C     0.16662   0.08673   0.75013   0.00000  Uiso   1.00
C561   C     0.15122   0.08836   0.52592   0.00000  Uiso   1.00
C562   C     0.23936   0.14440   0.93845   0.00000  Uiso   1.00
C563   C     0.11696   0.07923   0.50378   0.00000  Uiso   1.00
C564   C     0.26887   0.16113   0.96229   0.00000  Uiso   1.00
C565   C     0.20880   0.31192   0.74595   0.00000  Uiso   1.00
C566   C     0.12475   0.02144   0.75382   0.00000  Uiso   1.00
C567   C     0.20864   0.02119   0.74649   0.00000  Uiso   1.00
C568   C     0.12501   0.31219   0.75294   0.00000  Uiso   1.00
C569   C     0.16664   0.04254   0.75028   0.00000  Uiso   1.00
C570   C     0.16690   0.29081   0.74944   0.00000  Uiso   1.00
C571   C     0.31895   0.13946   0.72092   0.00000  Uiso   1.00
C572   C     0.01462   0.19481   0.77799   0.00000  Uiso   1.00
C573   C     0.03312   0.13889   0.72158   0.00000  Uiso   1.00
C574   C     0.30002   0.19466   0.77840   0.00000  Uiso   1.00
C575   C     0.13759   0.16439   0.83793   0.00000  Uiso   1.00
C576   C     0.19617   0.16633   0.66191   0.00000  Uiso   1.00
C577   C     0.12382   0.14982   0.88585   0.00000  Uiso   1.00
C578   C     0.21541   0.16432   0.61067   0.00000  Uiso   1.00
C579   C     0.07975   0.10150   0.94381   0.00000  Uiso   1.00
C580   C     0.28110   0.17708   0.53979   0.00000  Uiso   1.00
C581   C     0.08523   0.12376   0.90356   0.00000  Uiso   1.00
C582   C     0.26074   0.17939   0.58838   0.00000  Uiso   1.00
C583   C     0.15678   0.15394   0.90889   0.00000  Uiso   1.00
C584   C     0.19104   0.14416   0.58426   0.00000  Uiso   1.00
C585   C     0.15605   0.12847   0.94508   0.00000  Uiso   1.00
C586   C     0.21087   0.13972   0.53534   0.00000  Uiso   1.00
C587   C     0.11621   0.10277   0.96513   0.00000  Uiso   1.00
C588   C     0.25457   0.15989   0.51189   0.00000  Uiso   1.00
C589   C     0.19342   0.13111   0.96371   0.00000  Uiso   1.00
C590   C     0.18444   0.12010   0.50941   0.00000  Uiso   1.00
H591   H     0.15588   0.13282   0.60185   0.00000  Uiso   1.00
H592   H     0.18488   0.17623   0.89680   0.00000  Uiso   1.00
H593   H     0.28080   0.19308   0.60923   0.00000  Uiso   1.00
H594   H     0.05963   0.12002   0.88542   0.00000  Uiso   1.00
H595   H     0.24163   0.29570   0.74272   0.00000  Uiso   1.00
H596   H     0.09185   0.03762   0.75730   0.00000  Uiso   1.00
H597   H     0.24132   0.03719   0.74386   0.00000  Uiso   1.00
H598   H     0.09244   0.29627   0.75513   0.00000  Uiso   1.00
N599   N     0.04759   0.16668   0.75001   0.00000  Uiso   1.00
N600   N     0.28574   0.16666   0.74999   0.00000  Uiso   1.00
O601   O     0.12846   0.22775   0.75001   0.00000  Uiso   1.00
O602   O     0.20488   0.10558   0.74999   0.00000  Uiso   1.00
O603   O     0.20490   0.22774   0.75000   0.00000  Uiso   1.00
O604   O     0.12843   0.10559   0.75000   0.00000  Uiso   1.00
O605   O     0.10661   0.16667   0.81613   0.00000  Uiso   1.00
O606   O     0.22672   0.16666   0.68387   0.00000  Uiso   1.00
O607   O     0.18305   0.16666   0.81612   0.00000  Uiso   1.00
O608   O     0.15028   0.16667   0.68388   0.00000  Uiso   1.00
Zn609  Zn    0.11562   0.16667   0.75000   0.00000  Uiso   1.00
Zn610  Zn    0.21771   0.16666   0.75000   0.00000  Uiso   1.00
Br611  Br    0.07744   0.03178   0.52478   0.00000  Uiso   1.00
Br612  Br    0.32133   0.19249   0.92511   0.00000  Uiso   1.00
I613   I     0.01278   0.07142   0.96706   0.00000  Uiso   1.00
I614   I     0.02024   0.19605   0.51865   0.00000  Uiso   1.00
I615   I     0.16794   0.04365   0.56872   0.00000  Uiso   1.00
I616   I     0.27030   0.12285   0.86662   0.00000  Uiso   1.00
Br617  Br    0.30133   0.10254   0.67773   0.00000  Uiso   1.00
Br618  Br    0.03327   0.23496   0.81726   0.00000  Uiso   1.00
I619   I     0.08064   0.09343   0.67774   0.00000  Uiso   1.00
I620   I     0.25062   0.23805   0.82550   0.00000  Uiso   1.00
C621   C     0.50010   0.24661   0.74978   0.00000  Uiso   1.00
C622   C     0.49995   0.08673   0.75013   0.00000  Uiso   1.00
C623   C     0.48455   0.08836   0.52592   0.00000  Uiso   1.00
C624   C     0.57269   0.14440   0.93845   0.00000  Uiso   1.00
C625   C     0.45030   0.07923   0.50378   0.00000  Uiso   1.00
C626   C     0.60221   0.16113   0.96229   0.00000  Uiso   1.00
C627   C     0.54214   0.31192   0.74595   0.00000  Uiso   1.00
C628   C     0.45809   0.02144   0.75382   0.00000  Uiso   1.00
C629   C     0.54198   0.02119   0.74649   0.00000  Uiso   1.00
C630   C     0.45834   0.31219   0.75294   0.00000  Uiso   1.00
C631   C     0.49997   0.04254   0.75028   0.00000  Uiso   1.00
C632   C     0.50024   0.29081   0.74944   0.00000  Uiso   1.00
C633   C     0.65229   0.13946   0.72092   0.00000  Uiso   1.00
C634   C     0.34795   0.19481   0.77799   0.00000  Uiso   1.00
C635   C     0.36645   0.13889   0.72158   0.00000  Uiso   1.00
C636   C     0.63335   0.19466   0.77840   0.00000  Uiso   1.00
C637   C     0.47093   0.16439   0.83793   0.00000  Uiso   1.00
C638   C     0.52951   0.16633   0.66191   0.00000  Uiso   1.00
C639   C     0.45715   0.14982   0.88585   0.00000  Uiso   1.00
C640   C     0.54875   0.16432   0.61067   0.00000  Uiso   1.00
C641   C     0.41309   0.10150   0.94381   0.00000  Uiso   1.00
C642   C     0.61443   0.17708   0.53979   0.00000  Uiso   1.00
C643   C     0.41856   0.12376   0.90356   0.00000  Uiso   1.00
C644   C     0.59407   0.17939   0.58838   0.00000  Uiso   1.00
C645   C     0.49011   0.15394   0.90889   0.00000  Uiso   1.00
C646   C     0.52438   0.14416   0.58426   0.00000  Uiso   1.00
C647   C     0.48939   0.12847   0.94508   0.00000  Uiso   1.00
C648   C     0.54421   0.13972   0.53534   0.00000  Uiso   1.00
C649   C     0.44954   0.10277   0.96513   0.00000  Uiso   1.00
C650   C     0.58791   0.15989   0.51189   0.00000  Uiso   1.00
C651   C     0.52676   0.13111   0.96371   0.00000  Uiso   1.00
C652   C     0.51778   0.12010   0.50941   0.00000  Uiso   1.00
H653   H     0.48921   0.13282   0.60185   0.00000  Uiso   1.00
H654   H     0.51822   0.17623   0.89680   0.00000  Uiso   1.00
H655   H     0.61413   0.19308   0.60923   0.00000  Uiso   1.00
H656   H     0.39296   0.12002   0.88542   0.00000  Uiso   1.00
H657   H     0.57497   0.29570   0.74272   0.00000  Uiso   1.00
H658   H     0.42518   0.03762   0.75730   0.00000  Uiso   1.00
H659   H     0.57465   0.03719   0.74386   0.00000  Uiso   1.00
H660   H     0.42578   0.29627   0.75513   0.00000  Uiso   1.00
N661   N     0.38093   0.16668   0.75001   0.00000  Uiso   1.00
N662   N     0.61907   0.16666   0.74999   0.00000  Uiso   1.00
O663   O     0.46179   0.22775   0.75001   0.00000  Uiso   1.00
O664   O     0.53821   0.10558   0.74999   0.00000  Uiso   1.00
O665   O     0.53823   0.22774   0.75000   0.00000  Uiso   1.00
O666   O     0.46177   0.10559   0.75000   0.00000  Uiso   1.00
O667   O     0.43994   0.16667   0.81613   0.00000  Uiso   1.00
O668   O     0.56006   0.16666   0.68387   0.00000  Uiso   1.00
O669   O     0.51639   0.16666   0.81612   0.00000  Uiso   1.00
O670   O     0.48361   0.16667   0.68388   0.00000  Uiso   1.00
Zn671  Zn    0.44896   0.16667   0.75000   0.00000  Uiso   1.00
Zn672  Zn    0.55104   0.16666   0.75000   0.00000  Uiso   1.00
Br673  Br    0.41077   0.03178   0.52478   0.00000  Uiso   1.00
Br674  Br    0.65466   0.19249   0.92511   0.00000  Uiso   1.00
I675   I     0.34611   0.07142   0.96706   0.00000  Uiso   1.00
I676   I     0.35358   0.19605   0.51865   0.00000  Uiso   1.00
I677   I     0.50127   0.04365   0.56872   0.00000  Uiso   1.00
I678   I     0.60363   0.12285   0.86662   0.00000  Uiso   1.00
Br679  Br    0.63466   0.10254   0.67773   0.00000  Uiso   1.00
Br680  Br    0.36660   0.23496   0.81726   0.00000  Uiso   1.00
I681   I     0.41397   0.09343   0.67774   0.00000  Uiso   1.00
I682   I     0.58395   0.23805   0.82550   0.00000  Uiso   1.00
C683   C     0.83344   0.24661   0.74978   0.00000  Uiso   1.00
C684   C     0.83328   0.08673   0.75013   0.00000  Uiso   1.00
C685   C     0.81789   0.08836   0.52592   0.00000  Uiso   1.00
C686   C     0.90602   0.14440   0.93845   0.00000  Uiso   1.00
C687   C     0.78363   0.07923   0.50378   0.00000  Uiso   1.00
C688   C     0.93554   0.16113   0.96229   0.00000  Uiso   1.00
C689   C     0.87547   0.31192   0.74595   0.00000  Uiso   1.00
C690   C     0.79142   0.02144   0.75382   0.00000  Uiso   1.00
C691   C     0.87531   0.02119   0.74649   0.00000  Uiso   1.00
C692   C     0.79168   0.31219   0.75294   0.00000  Uiso   1.00
C693   C     0.83330   0.04254   0.75028   0.00000  Uiso   1.00
C694   C     0.83357   0.29081   0.74944   0.00000  Uiso   1.00
C695   C     0.98562   0.13946   0.72092   0.00000  Uiso   1.00
C696   C     0.68129   0.19481   0.77799   0.00000  Uiso   1.00
C697   C     0.69978   0.13889   0.72158   0.00000  Uiso   1.00
C698   C     0.96668   0.19466   0.77840   0.00000  Uiso   1.00
C699   C     0.80426   0.16439   0.83793   0.00000  Uiso   1.00
C700   C     0.86284   0.16633   0.66191   0.00000  Uiso   1.00
C701   C     0.79049   0.14982   0.88585   0.00000  Uiso   1.00
C702   C     0.88208   0.16432   0.61067   0.00000  Uiso   1.00
C703   C     0.74642   0.10150   0.94381   0.00000  Uiso   1.00
C704   C     0.94777   0.17708   0.53979   0.00000  Uiso   1.00
C705   C     0.75190   0.12376   0.90356   0.00000  Uiso   1.00
C706   C     0.92741   0.17939   0.58838   0.00000  Uiso   1.00
C707   C     0.82344   0.15394   0.90889   0.00000  Uiso   1.00
C708   C     0.85771   0.14416   0.58426   0.00000  Uiso   1.00
C709   C     0.82272   0.12847   0.94508   0.00000  Uiso   1.00
C710   C     0.87754   0.13972   0.53534   0.00000  Uiso   1.00
C711   C     0.78287   0.10277   0.96513   0.00000  Uiso   1.00
C712   C     0.92124   0.15989   0.51189   0.00000  Uiso   1.00
C713   C     0.86009   0.13111   0.96371   0.00000  Uiso   1.00
C714   C     0.85111   0.12010   0.50941   0.00000  Uiso   1.00
H715   H     0.82254   0.13282   0.60185   0.00000  Uiso   1.00
H716   H     0.85155   0.17623   0.89680   0.00000  Uiso   1.00
H717   H     0.94747   0.19308   0.60923   0.00000  Uiso   1.00
H718   H     0.72629   0.12002   0.88542   0.00000  Uiso   1.00
H719   H     0.90830   0.29570   0.74272   0.00000  Uiso   1.00
H720   H     0.75852   0.03762   0.75730   0.00000  Uiso   1.00
H721   H     0.90799   0.03719   0.74386   0.00000  Uiso   1.00
H722   H     0.75911   0.29627   0.75513   0.00000  Uiso   1.00
N723   N     0.71426   0.16668   0.75001   0.00000  Uiso   1.00
N724   N     0.95241   0.16666   0.74999   0.00000  Uiso   1.00
O725   O     0.79512   0.22775   0.75001   0.00000  Uiso   1.00
O726   O     0.87154   0.10558   0.74999   0.00000  Uiso   1.00
O727   O     0.87157   0.22774   0.75000   0.00000  Uiso   1.00
O728   O     0.79510   0.10559   0.75000   0.00000  Uiso   1.00
O729   O     0.77328   0.16667   0.81613   0.00000  Uiso   1.00
O730   O     0.89339   0.16666   0.68387   0.00000  Uiso   1.00
O731   O     0.84972   0.16666   0.81612   0.00000  Uiso   1.00
O732   O     0.81695   0.16667   0.68388   0.00000  Uiso   1.00
Zn733  Zn    0.78229   0.16667   0.75000   0.00000  Uiso   1.00
Zn734  Zn    0.88438   0.16666   0.75000   0.00000  Uiso   1.00
Br735  Br    0.74411   0.03178   0.52478   0.00000  Uiso   1.00
Br736  Br    0.98800   0.19249   0.92511   0.00000  Uiso   1.00
I737   I     0.67945   0.07142   0.96706   0.00000  Uiso   1.00
I738   I     0.68691   0.19605   0.51865   0.00000  Uiso   1.00
I739   I     0.83461   0.04365   0.56872   0.00000  Uiso   1.00
I740   I     0.93697   0.12285   0.86662   0.00000  Uiso   1.00
Br741  Br    0.96800   0.10254   0.67773   0.00000  Uiso   1.00
Br742  Br    0.69994   0.23496   0.81726   0.00000  Uiso   1.00
I743   I     0.74730   0.09343   0.67774   0.00000  Uiso   1.00
I744   I     0.91728   0.23805   0.82550   0.00000  Uiso   1.00
C745   C     0.16677   0.57994   0.74978   0.00000  Uiso   1.00
C746   C     0.16662   0.42007   0.75013   0.00000  Uiso   1.00
C747   C     0.15122   0.42169   0.52592   0.00000  Uiso   1.00
C748   C     0.23936   0.47773   0.93845   0.00000  Uiso   1.00
C749   C     0.11696   0.41257   0.50378   0.00000  Uiso   1.00
C750   C     0.26887   0.49446   0.96229   0.00000  Uiso   1.00
C751   C     0.20880   0.64525   0.74595   0.00000  Uiso   1.00
C752   C     0.12475   0.35477   0.75382   0.00000  Uiso   1.00
C753   C     0.20864   0.35452   0.74649   0.00000  Uiso   1.00
C754   C     0.12501   0.64553   0.75294   0.00000  Uiso   1.00
C755   C     0.16664   0.37588   0.75028   0.00000  Uiso   1.00
C756   C     0.16690   0.62415   0.74944   0.00000  Uiso   1.00
C757   C     0.31895   0.47279   0.72092   0.00000  Uiso   1.00
C758   C     0.01462   0.52815   0.77799   0.00000  Uiso   1.00
C759   C     0.03312   0.47222   0.72158   0.00000  Uiso   1.00
C760   C     0.30002   0.52799   0.77840   0.00000  Uiso   1.00
C761   C     0.13759   0.49773   0.83793   0.00000  Uiso   1.00
C762   C     0.19617   0.49966   0.66191   0.00000  Uiso   1.00
C763   C     0.12382   0.48316   0.88585   0.00000  Uiso   1.00
C764   C     0.21541   0.49765   0.61067   0.00000  Uiso   1.00
C765   C     0.07975   0.43484   0.94381   0.00000  Uiso   1.00
C766   C     0.28110   0.51042   0.53979   0.00000  Uiso   1.00
C767   C     0.08523   0.45709   0.90356   0.00000  Uiso   1.00
C768   C     0.26074   0.51272   0.58838   0.00000  Uiso   1.00
C769   C     0.15678   0.48727   0.90889   0.00000  Uiso   1.00
C770   C     0.19104   0.47750   0.58426   0.00000  Uiso   1.00
C771   C     0.15605   0.46181   0.94508   0.00000  Uiso   1.00
C772   C     0.21087   0.47305   0.53534   0.00000  Uiso   1.00
C773   C     0.11621   0.43611   0.96513   0.00000  Uiso   1.00
C774   C     0.25457   0.49322   0.51189   0.00000  Uiso   1.00
C775   C     0.19342   0.46444   0.96371   0.00000  Uiso   1.00
C776   C     0.18444   0.45344   0.50941   0.00000  Uiso   1.00
H777   H     0.15588   0.46615   0.60185   0.00000  Uiso   1.00
H778   H     0.18488   0.50956   0.89680   0.00000  Uiso   1.00
H779   H     0.28080   0.52641   0.60923   0.00000  Uiso   1.00
H780   H     0.05963   0.45335   0.88542   0.00000  Uiso   1.00
H781   H     0.24163   0.62903   0.74272   0.00000  Uiso   1.00
H782   H     0.09185   0.37096   0.75730   0.00000  Uiso   1.00
H783   H     0.24132   0.37052   0.74386   0.00000  Uiso   1.00
H784   H     0.09244   0.62960   0.75513   0.00000  Uiso   1.00
N785   N     0.04759   0.50001   0.75001   0.00000  Uiso   1.00
N786   N     0.28574   0.49999   0.74999   0.00000  Uiso   1.00
O787   O     0.12846   0.56108   0.75001   0.00000  Uiso   1.00
O788   O     0.20488   0.43892   0.74999   0.00000  Uiso   1.00
O789   O     0.20490   0.56107   0.75000   0.00000  Uiso   1.00
O790   O     0.12843   0.43893   0.75000   0.00000  Uiso   1.00
O791   O     0.10661   0.50001   0.81613   0.00000  Uiso   1.00
O792   O     0.22672   0.49999   0.68387   0.00000  Uiso   1.00
O793   O     0.18305   0.50000   0.81612   0.00000  Uiso   1.00
O794   O     0.15028   0.50000   0.68388   0.00000  Uiso   1.00
Zn795  Zn    0.11562   0.50001   0.75000   0.00000  Uiso   1.00
Zn796  Zn    0.21771   0.49999   0.75000   0.00000  Uiso   1.00
Br797  Br    0.07744   0.36512   0.52478   0.00000  Uiso   1.00
Br798  Br    0.32133   0.52582   0.92511   0.00000  Uiso   1.00
I799   I     0.01278   0.40475   0.96706   0.00000  Uiso   1.00
I800   I     0.02024   0.52939   0.51865   0.00000  Uiso   1.00
I801   I     0.16794   0.37698   0.56872   0.00000  Uiso   1.00
I802   I     0.27030   0.45618   0.86662   0.00000  Uiso   1.00
Br803  Br    0.30133   0.43588   0.67773   0.00000  Uiso   1.00
Br804  Br    0.03327   0.56829   0.81726   0.00000  Uiso   1.00
I805   I     0.08064   0.42676   0.67774   0.00000  Uiso   1.00
I806   I     0.25062   0.57139   0.82550   0.00000  Uiso   1.00
C807   C     0.50010   0.57994   0.74978   0.00000  Uiso   1.00
C808   C     0.49995   0.42007   0.75013   0.00000  Uiso   1.00
C809   C     0.48455   0.42169   0.52592   0.00000  Uiso   1.00
C810   C     0.57269   0.47773   0.93845   0.00000  Uiso   1.00
C811   C     0.45030   0.41257   0.50378   0.00000  Uiso   1.00
C812   C     0.60221   0.49446   0.96229   0.00000  Uiso   1.00
C813   C     0.54214   0.64525   0.74595   0.00000  Uiso   1.00
C814   C     0.45809   0.35477   0.75382   0.00000  Uiso   1.00
C815   C     0.54198   0.35452   0.74649   0.00000  Uiso   1.00
C816   C     0.45834   0.64553   0.75294   0.00000  Uiso   1.00
C817   C     0.49997   0.37588   0.75028   0.00000  Uiso   1.00
C818   C     0.50024   0.62415   0.74944   0.00000  Uiso   1.00
C819   C     0.65229   0.47279   0.72092   0.00000  Uiso   1.00
C820   C     0.34795   0.52815   0.77799   0.00000  Uiso   1.00
C821   C     0.36645   0.47222   0.72158   0.00000  Uiso   1.00
C822   C     0.63335   0.52799   0.77840   0.00000  Uiso   1.00
C823   C     0.47093   0.49773   0.83793   0.00000  Uiso   1.00
C824   C     0.52951   0.49966   0.66191   0.00000  Uiso   1.00
C825   C     0.45715   0.48316   0.88585   0.00000  Uiso   1.00
C826   C     0.54875   0.49765   0.61067   0.00000  Uiso   1.00
C827   C     0.41309   0.43484   0.94381   0.00000  Uiso   1.00
C828   C     0.61443   0.51042   0.53979   0.00000  Uiso   1.00
C829   C     0.41856   0.45709   0.90356   0.00000  Uiso   1.00
C830   C     0.59407   0.51272   0.58838   0.00000  Uiso   1.00
C831   C     0.49011   0.48727   0.90889   0.00000  Uiso   1.00
C832   C     0.52438   0.47750   0.58426   0.00000  Uiso   1.00
C833   C     0.48939   0.46181   0.94508   0.00000  Uiso   1.00
C834   C     0.54421   0.47305   0.53534   0.00000  Uiso   1.00
C835   C     0.44954   0.43611   0.96513   0.00000  Uiso   1.00
C836   C     0.58791   0.49322   0.51189   0.00000  Uiso   1.00
C837   C     0.52676   0.46444   0.96371   0.00000  Uiso   1.00
C838   C     0.51778   0.45344   0.50941   0.00000  Uiso   1.00
H839   H     0.48921   0.46615   0.60185   0.00000  Uiso   1.00
H840   H     0.51822   0.50956   0.89680   0.00000  Uiso   1.00
H841   H     0.61413   0.52641   0.60923   0.00000  Uiso   1.00
H842   H     0.39296   0.45335   0.88542   0.00000  Uiso   1.00
H843   H     0.57497   0.62903   0.74272   0.00000  Uiso   1.00
H844   H     0.42518   0.37096   0.75730   0.00000  Uiso   1.00
H845   H     0.57465   0.37052   0.74386   0.00000  Uiso   1.00
H846   H     0.42578   0.62960   0.75513   0.00000  Uiso   1.00
N847   N     0.38093   0.50001   0.75001   0.00000  Uiso   1.00
N848   N     0.61907   0.49999   0.74999   0.00000  Uiso   1.00
O849   O     0.46179   0.56108   0.75001   0.00000  Uiso   1.00
O850   O     0.53821   0.43892   0.74999   0.00000  Uiso   1.00
O851   O     0.53823   0.56107   0.75000   0.00000  Uiso   1.00
O852   O     0.46177   0.43893   0.75000   0.00000  Uiso   1.00
O853   O     0.43994   0.50001   0.81613   0.00000  Uiso   1.00
O854   O     0.56006   0.49999   0.68387   0.00000  Uiso   1.00
O855   O     0.51639   0.50000   0.81612   0.00000  Uiso   1.00
O856   O     0.48361   0.50000   0.68388   0.00000  Uiso   1.00
Zn857  Zn    0.44896   0.50001   0.75000   0.00000  Uiso   1.00
Zn858  Zn    0.55104   0.49999   0.75000   0.00000  Uiso   1.00
Br859  Br    0.41077   0.36512   0.52478   0.00000  Uiso   1.00
Br860  Br    0.65466   0.52582   0.92511   0.00000  Uiso   1.00
I861   I     0.34611   0.40475   0.96706   0.00000  Uiso   1.00
I862   I     0.35358   0.52939   0.51865   0.00000  Uiso   1.00
I863   I     0.50127   0.37698   0.56872   0.00000  Uiso   1.00
I864   I     0.60363   0.45618   0.86662   0.00000  Uiso   1.00
Br865  Br    0.63466   0.43588   0.67773   0.00000  Uiso   1.00
Br866  Br    0.36660   0.56829   0.81726   0.00000  Uiso   1.00
I867   I     0.41397   0.42676   0.67774   0.00000  Uiso   1.00
I868   I     0.58395   0.57139   0.82550   0.00000  Uiso   1.00
C869   C     0.83344   0.57994   0.74978   0.00000  Uiso   1.00
C870   C     0.83328   0.42007   0.75013   0.00000  Uiso   1.00
C871   C     0.81789   0.42169   0.52592   0.00000  Uiso   1.00
C872   C     0.90602   0.47773   0.93845   0.00000  Uiso   1.00
C873   C     0.78363   0.41257   0.50378   0.00000  Uiso   1.00
C874   C     0.93554   0.49446   0.96229   0.00000  Uiso   1.00
C875   C     0.87547   0.64525   0.74595   0.00000  Uiso   1.00
C876   C     0.79142   0.35477   0.75382   0.00000  Uiso   1.00
C877   C     0.87531   0.35452   0.74649   0.00000  Uiso   1.00
C878   C     0.79168   0.64553   0.75294   0.00000  Uiso   1.00
C879   C     0.83330   0.37588   0.75028   0.00000  Uiso   1.00
C880   C     0.83357   0.62415   0.74944   0.00000  Uiso   1.00
C881   C     0.98562   0.47279   0.72092   0.00000  Uiso   1.00
C882   C     0.68129   0.52815   0.77799   0.00000  Uiso   1.00
C883   C     0.69978   0.47222   0.72158   0.00000  Uiso   1.00
C884   C     0.96668   0.52799   0.77840   0.00000  Uiso   1.00
C885   C     0.80426   0.49773   0.83793   0.00000  Uiso   1.00
C886   C     0.86284   0.49966   0.66191   0.00000  Uiso   1.00
C887   C     0.79049   0.48316   0.88585   0.00000  Uiso   1.00
C888   C     0.88208   0.49765   0.61067   0.00000  Uiso   1.00
C889   C     0.74642   0.43484   0.94381   0.00000  Uiso   1.00
C890   C     0.94777   0.51042   0.53979   0.00000  Uiso   1.00
C891   C     0.75190   0.45709   0.90356   0.00000  Uiso   1.00
C892   C     0.92741   0.51272   0.58838   0.00000  Uiso   1.00
C893   C     0.82344   0.48727   0.90889   0.00000  Uiso   1.00
C894   C     0.85771   0.47750   0.58426   0.00000  Uiso   1.00
C895   C     0.82272   0.46181   0.94508   0.00000  Uiso   1.00
C896   C     0.87754   0.47305   0.53534   0.00000  Uiso   1.00
C897   C     0.78287   0.43611   0.96513   0.00000  Uiso   1.00
C898   C     0.92124   0.49322   0.51189   0.00000  Uiso   1.00
C899   C     0.86009   0.46444   0.96371   0.00000  Uiso   1.00
C900   C     0.85111   0.45344   0.50941   0.00000  Uiso   1.00
H901   H     0.82254   0.46615   0.60185   0.00000  Uiso   1.00
H902   H     0.85155   0.50956   0.89680   0.00000  Uiso   1.00
H903   H     0.94747   0.52641   0.60923   0.00000  Uiso   1.00
H904   H     0.72629   0.45335   0.88542   0.00000  Uiso   1.00
H905   H     0.90830   0.62903   0.74272   0.00000  Uiso   1.00
H906   H     0.75852   0.37096   0.75730   0.00000  Uiso   1.00
H907   H     0.90799   0.37052   0.74386   0.00000  Uiso   1.00
H908   H     0.75911   0.62960   0.75513   0.00000  Uiso   1.00
N909   N     0.71426   0.50001   0.75001   0.00000  Uiso   1.00
N910   N     0.95241   0.49999   0.74999   0.00000  Uiso   1.00
O911   O     0.79512   0.56108   0.75001   0.00000  Uiso   1.00
O912   O     0.87154   0.43892   0.74999   0.00000  Uiso   1.00
O913   O     0.87157   0.56107   0.75000   0.00000  Uiso   1.00
O914   O     0.79510   0.43893   0.75000   0.00000  Uiso   1.00
O915   O     0.77328   0.50001   0.81613   0.00000  Uiso   1.00
O916   O     0.89339   0.49999   0.68387   0.00000  Uiso   1.00
O917   O     0.84972   0.50000   0.81612   0.00000  Uiso   1.00
O918   O     0.81695   0.50000   0.68388   0.00000  Uiso   1.00
Zn919  Zn    0.78229   0.50001   0.75000   0.00000  Uiso   1.00
Zn920  Zn    0.88438   0.49999   0.75000   0.00000  Uiso   1.00
Br921  Br    0.74411   0.36512   0.52478   0.00000  Uiso   1.00
Br922  Br    0.98800   0.52582   0.92511   0.00000  Uiso   1.00
I923   I     0.67945   0.40475   0.96706   0.00000  Uiso   1.00
I924   I     0.68691   0.52939   0.51865   0.00000  Uiso   1.00
I925   I     0.83461   0.37698   0.56872   0.00000  Uiso   1.00
I926   I     0.93697   0.45618   0.86662   0.00000  Uiso   1.00
Br927  Br    0.96800   0.43588   0.67773   0.00000  Uiso   1.00
Br928  Br    0.69994   0.56829   0.81726   0.00000  Uiso   1.00
I929   I     0.74730   0.42676   0.67774   0.00000  Uiso   1.00
I930   I     0.91728   0.57139   0.82550   0.00000  Uiso   1.00
C931   C     0.16677   0.91327   0.74978   0.00000  Uiso   1.00
C932   C     0.16662   0.75340   0.75013   0.00000  Uiso   1.00
C933   C     0.15122   0.75503   0.52592   0.00000  Uiso   1.00
C934   C     0.23936   0.81107   0.93845   0.00000  Uiso   1.00
C935   C     0.11696   0.74590   0.50378   0.00000  Uiso   1.00
C936   C     0.26887   0.82780   0.96229   0.00000  Uiso   1.00
C937   C     0.20880   0.97858   0.74595   0.00000  Uiso   1.00
C938   C     0.12475   0.68811   0.75382   0.00000  Uiso   1.00
C939   C     0.20864   0.68786   0.74649   0.00000  Uiso   1.00
C940   C     0.12501   0.97886   0.75294   0.00000  Uiso   1.00
C941   C     0.16664   0.70921   0.75028   0.00000  Uiso   1.00
C942   C     0.16690   0.95748   0.74944   0.00000  Uiso   1.00
C943   C     0.31895   0.80613   0.72092   0.00000  Uiso   1.00
C944   C     0.01462   0.86148   0.77799   0.00000  Uiso   1.00
C945   C     0.03312   0.80556   0.72158   0.00000  Uiso   1.00
C946   C     0.30002   0.86132   0.77840   0.00000  Uiso   1.00
C947   C     0.13759   0.83106   0.83793   0.00000  Uiso   1.00
C948   C     0.19617   0.83299   0.66191   0.00000  Uiso   1.00
C949   C     0.12382   0.81649   0.88585   0.00000  Uiso   1.00
C950   C     0.21541   0.83098   0.61067   0.00000  Uiso   1.00
C951   C     0.07975   0.76817   0.94381   0.00000  Uiso   1.00
C952   C     0.28110   0.84375   0.53979   0.00000  Uiso   1.00
C953   C     0.08523   0.79043   0.90356   0.00000  Uiso   1.00
C954   C     0.26074   0.84606   0.58838   0.00000  Uiso   1.00
C955   C     0.15678   0.82061   0.90889   0.00000  Uiso   1.00
C956   C     0.19104   0.81083   0.58426   0.00000  Uiso   1.00
C957   C     0.15605   0.79514   0.94508   0.00000  Uiso   1.00
C958   C     0.21087   0.80638   0.53534   0.00000  Uiso   1.00
C959   C     0.11621   0.76944   0.96513   0.00000  Uiso   1.00
C960   C     0.25457   0.82656   0.51189   0.00000  Uiso   1.00
C961   C     0.19342   0.79778   0.96371   0.00000  Uiso   1.00
C962   C     0.18444   0.78677   0.50941   0.00000  Uiso   1.00
H963   H     0.15588   0.79949   0.60185   0.00000  Uiso   1.00
H964   H     0.18488   0.84289   0.89680   0.00000  Uiso   1.00
H965   H     0.28080   0.85975   0.60923   0.00000  Uiso   1.00
H966   H     0.05963   0.78668   0.88542   0.00000  Uiso   1.00
H967   H     0.24163   0.96237   0.74272   0.00000  Uiso   1.00
H968   H     0.09185   0.70429   0.75730   0.00000  Uiso   1.00
H969   H     0.24132   0.70385   0.74386   0.00000  Uiso   1.00
H970   H     0.09244   0.96294   0.75513   0.00000  Uiso   1.00
N971   N     0.04759   0.83334   0.75001   0.00000  Uiso   1.00
N972   N     0.28574   0.83332   0.74999   0.00000  Uiso   1.00
O973   O     0.12846   0.89442   0.75001   0.00000  Uiso   1.00
O974   O     0.20488   0.77225   0.74999   0.00000  Uiso   1.00
O975   O     0.20490   0.89441   0.75000   0.00000  Uiso   1.00
O976   O     0.12843   0.77226   0.75000   0.00000  Uiso   1.00
O977   O     0.10661   0.83334   0.81613   0.00000  Uiso   1.00
O978   O     0.22672   0.83333   0.68387   0.00000  Uiso   1.00
O979   O     0.18305   0.83333   0.81612   0.00000  Uiso   1.00
O980   O     0.15028   0.83334   0.68388   0.00000  Uiso   1.00
Zn981  Zn    0.11562   0.83334   0.75000   0.00000  Uiso   1.00
Zn982  Zn    0.21771   0.83333   0.75000   0.00000  Uiso   1.00
Br983  Br    0.07744   0.69845   0.52478   0.00000  Uiso   1.00
Br984  Br    0.32133   0.85916   0.92511   0.00000  Uiso   1.00
I985   I     0.01278   0.73809   0.96706   0.00000  Uiso   1.00
I986   I     0.02024   0.86272   0.51865   0.00000  Uiso   1.00
I987   I     0.16794   0.71031   0.56872   0.00000  Uiso   1.00
I988   I     0.27030   0.78951   0.86662   0.00000  Uiso   1.00
Br989  Br    0.30133   0.76921   0.67773   0.00000  Uiso   1.00
Br990  Br    0.03327   0.90162   0.81726   0.00000  Uiso   1.00
I991   I     0.08064   0.76010   0.67774   0.00000  Uiso   1.00
I992   I     0.25062   0.90472   0.82550   0.00000  Uiso   1.00
C993   C     0.50010   0.91327   0.74978   0.00000  Uiso   1.00
C994   C     0.49995   0.75340   0.75013   0.00000  Uiso   1.00
C995   C     0.48455   0.75503   0.52592   0.00000  Uiso   1.00
C996   C     0.57269   0.81107   0.93845   0.00000  Uiso   1.00
C997   C     0.45030   0.74590   0.50378   0.00000  Uiso   1.00
C998   C     0.60221   0.82780   0.96229   0.00000  Uiso   1.00
C999   C     0.54214   0.97858   0.74595   0.00000  Uiso   1.00
C1000  C     0.45809   0.68811   0.75382   0.00000  Uiso   1.00
C1001  C     0.54198   0.68786   0.74649   0.00000  Uiso   1.00
C1002  C     0.45834   0.97886   0.75294   0.00000  Uiso   1.00
C1003  C     0.49997   0.70921   0.75028   0.00000  Uiso   1.00
C1004  C     0.50024   0.95748   0.74944   0.00000  Uiso   1.00
C1005  C     0.65229   0.80613   0.72092   0.00000  Uiso   1.00
C1006  C     0.34795   0.86148   0.77799   0.00000  Uiso   1.00
C1007  C     0.36645   0.80556   0.72158   0.00000  Uiso   1.00
C1008  C     0.63335   0.86132   0.77840   0.00000  Uiso   1.00
C1009  C     0.47093   0.83106   0.83793   0.00000  Uiso   1.00
C1010  C     0.52951   0.83299   0.66191   0.00000  Uiso   1.00
C1011  C     0.45715   0.81649   0.88585   0.00000  Uiso   1.00
C1012  C     0.54875   0.83098   0.61067   0.00000  Uiso   1.00
C1013  C     0.41309   0.76817   0.94381   0.00000  Uiso   1.00
C1014  C     0.61443   0.84375   0.53979   0.00000  Uiso   1.00
C1015  C     0.41856   0.79043   0.90356   0.00000  Uiso   1.00
C1016  C     0.59407   0.84606   0.58838   0.00000  Uiso   1.00
C1017  C     0.49011   0.82061   0.90889   0.00000  Uiso   1.00
C1018  C     0.52438   0.81083   0.58426   0.00000  Uiso   1.00
C1019  C     0.48939   0.79514   0.94508   0.00000  Uiso   1.00
C1020  C     0.54421   0.80638   0.53534   0.00000  Uiso   1.00
C1021  C     0.44954   0.76944   0.96513   0.00000  Uiso   1.00
C1022  C     0.58791   0.82656   0.51189   0.00000  Uiso   1.00
C1023  C     0.52676   0.79778   0.96371   0.00000  Uiso   1.00
C1024  C     0.51778   0.78677   0.50941   0.00000  Uiso   1.00
H1025  H     0.48921   0.79949   0.60185   0.00000  Uiso   1.00
H1026  H     0.51822   0.84289   0.89680   0.00000  Uiso   1.00
H1027  H     0.61413   0.85975   0.60923   0.00000  Uiso   1.00
H1028  H     0.39296   0.78668   0.88542   0.00000  Uiso   1.00
H1029  H     0.57497   0.96237   0.74272   0.00000  Uiso   1.00
H1030  H     0.42518   0.70429   0.75730   0.00000  Uiso   1.00
H1031  H     0.57465   0.70385   0.74386   0.00000  Uiso   1.00
H1032  H     0.42578   0.96294   0.75513   0.00000  Uiso   1.00
N1033  N     0.38093   0.83334   0.75001   0.00000  Uiso   1.00
N1034  N     0.61907   0.83332   0.74999   0.00000  Uiso   1.00
O1035  O     0.46179   0.89442   0.75001   0.00000  Uiso   1.00
O1036  O     0.53821   0.77225   0.74999   0.00000  Uiso   1.00
O1037  O     0.53823   0.89441   0.75000   0.00000  Uiso   1.00
O1038  O     0.46177   0.77226   0.75000   0.00000  Uiso   1.00
O1039  O     0.43994   0.83334   0.81613   0.00000  Uiso   1.00
O1040  O     0.56006   0.83333   0.68387   0.00000  Uiso   1.00
O1041  O     0.51639   0.83333   0.81612   0.00000  Uiso   1.00
O1042  O     0.48361   0.83334   0.68388   0.00000  Uiso   1.00
Zn1043 Zn    0.44896   0.83334   0.75000   0.00000  Uiso   1.00
Zn1044 Zn    0.55104   0.83333   0.75000   0.00000  Uiso   1.00
Br1045 Br    0.41077   0.69845   0.52478   0.00000  Uiso   1.00
Br1046 Br    0.65466   0.85916   0.92511   0.00000  Uiso   1.00
I1047  I     0.34611   0.73809   0.96706   0.00000  Uiso   1.00
I1048  I     0.35358   0.86272   0.51865   0.00000  Uiso   1.00
I1049  I     0.50127   0.71031   0.56872   0.00000  Uiso   1.00
I1050  I     0.60363   0.78951   0.86662   0.00000  Uiso   1.00
Br1051 Br    0.63466   0.76921   0.67773   0.00000  Uiso   1.00
Br1052 Br    0.36660   0.90162   0.81726   0.00000  Uiso   1.00
I1053  I     0.41397   0.76010   0.67774   0.00000  Uiso   1.00
I1054  I     0.58395   0.90472   0.82550   0.00000  Uiso   1.00
C1055  C     0.83344   0.91327   0.74978   0.00000  Uiso   1.00
C1056  C     0.83328   0.75340   0.75013   0.00000  Uiso   1.00
C1057  C     0.81789   0.75503   0.52592   0.00000  Uiso   1.00
C1058  C     0.90602   0.81107   0.93845   0.00000  Uiso   1.00
C1059  C     0.78363   0.74590   0.50378   0.00000  Uiso   1.00
C1060  C     0.93554   0.82780   0.96229   0.00000  Uiso   1.00
C1061  C     0.87547   0.97858   0.74595   0.00000  Uiso   1.00
C1062  C     0.79142   0.68811   0.75382   0.00000  Uiso   1.00
C1063  C     0.87531   0.68786   0.74649   0.00000  Uiso   1.00
C1064  C     0.79168   0.97886   0.75294   0.00000  Uiso   1.00
C1065  C     0.83330   0.70921   0.75028   0.00000  Uiso   1.00
C1066  C     0.83357   0.95748   0.74944   0.00000  Uiso   1.00
C1067  C     0.98562   0.80613   0.72092   0.00000  Uiso   1.00
C1068  C     0.68129   0.86148   0.77799   0.00000  Uiso   1.00
C1069  C     0.69978   0.80556   0.72158   0.00000  Uiso   1.00
C1070  C     0.96668   0.86132   0.77840   0.00000  Uiso   1.00
C1071  C     0.80426   0.83106   0.83793   0.00000  Uiso   1.00
C1072  C     0.86284   0.83299   0.66191   0.00000  Uiso   1.00
C1073  C     0.79049   0.81649   0.88585   0.00000  Uiso   1.00
C1074  C     0.88208   0.83098   0.61067   0.00000  Uiso   1.00
C1075  C     0.74642   0.76817   0.94381   0.00000  Uiso   1.00
C1076  C     0.94777   0.84375   0.53979   0.00000  Uiso   1.00
C1077  C     0.75190   0.79043   0.90356   0.00000  Uiso   1.00
C1078  C     0.92741   0.84606   0.58838   0.00000  Uiso   1.00
C1079  C     0.82344   0.82061   0.90889   0.00000  Uiso   1.00
C1080  C     0.85771   0.81083   0.58426   0.00000  Uiso   1.00
C1081  C     0.82272   0.79514   0.94508   0.00000  Uiso   1.00
C1082  C     0.87754   0.80638   0.53534   0.00000  Uiso   1.00
C1083  C     0.78287   0.76944   0.96513   0.00000  Uiso   1.00
C1084  C     0.92124   0.82656   0.51189   0.00000  Uiso   1.00
C1085  C     0.86009   0.79778   0.96371   0.00000  Uiso   1.00
C1086  C     0.85111   0.78677   0.50941   0.00000  Uiso   1.00
H1087  H     0.82254   0.79949   0.60185   0.00000  Uiso   1.00
H1088  H     0.85155   0.84289   0.89680   0.00000  Uiso   1.00
H1089  H     0.94747   0.85975   0.60923   0.00000  Uiso   1.00
H1090  H     0.72629   0.78668   0.88542   0.00000  Uiso   1.00
H1091  H     0.90830   0.96237   0.74272   0.00000  Uiso   1.00
H1092  H     0.75852   0.70429   0.75730   0.00000  Uiso   1.00
H1093  H     0.90799   0.70385   0.74386   0.00000  Uiso   1.00
H1094  H     0.75911   0.96294   0.75513   0.00000  Uiso   1.00
N1095  N     0.71426   0.83334   0.75001   0.00000  Uiso   1.00
N1096  N     0.95241   0.83332   0.74999   0.00000  Uiso   1.00
O1097  O     0.79512   0.89442   0.75001   0.00000  Uiso   1.00
O1098  O     0.87154   0.77225   0.74999   0.00000  Uiso   1.00
O1099  O     0.87157   0.89441   0.75000   0.00000  Uiso   1.00
O1100  O     0.79510   0.77226   0.75000   0.00000  Uiso   1.00
O1101  O     0.77328   0.83334   0.81613   0.00000  Uiso   1.00
O1102  O     0.89339   0.83333   0.68387   0.00000  Uiso   1.00
O1103  O     0.84972   0.83333   0.81612   0.00000  Uiso   1.00
O1104  O     0.81695   0.83334   0.68388   0.00000  Uiso   1.00
Zn1105 Zn    0.78229   0.83334   0.75000   0.00000  Uiso   1.00
Zn1106 Zn    0.88438   0.83333   0.75000   0.00000  Uiso   1.00
Br1107 Br    0.74411   0.69845   0.52478   0.00000  Uiso   1.00
Br1108 Br    0.98800   0.85916   0.92511   0.00000  Uiso   1.00
I1109  I     0.67945   0.73809   0.96706   0.00000  Uiso   1.00
I1110  I     0.68691   0.86272   0.51865   0.00000  Uiso   1.00
I1111  I     0.83461   0.71031   0.56872   0.00000  Uiso   1.00
I1112  I     0.93697   0.78951   0.86662   0.00000  Uiso   1.00
Br1113 Br    0.96800   0.76921   0.67773   0.00000  Uiso   1.00
Br1114 Br    0.69994   0.90162   0.81726   0.00000  Uiso   1.00
I1115  I     0.74730   0.76010   0.67774   0.00000  Uiso   1.00
I1116  I     0.91728   0.90472   0.82550   0.00000  Uiso   1.00
loop_
_geom_bond_atom_site_label_1
_geom_bond_atom_site_label_2
_geom_bond_distance
_geom_bond_site_symmetry_2
_ccdc_geom_bond_type
C1     O45     1.292   .     A
C1     C12     1.422   .     S
C1     O43     1.291   .     A
C2     O46     1.292   .     A
C2     C11     1.421   .     S
C2     O44     1.291   .     A
C3     C32     1.412   .     A
C3     I57     2.148   .     S
C3     C5      1.420   .     A
C4     C31     1.407   .     A
C4     I58     2.142   .     S
C4     C6      1.404   .     A
C5     Br53    1.928   .     S
C5     C587    1.432   1_554 S
C6     Br54    1.916   .     S
C6     C588    1.422   .     S
C7     C12     1.397   .     A
C7     H37     1.083   .     S
C7     C195    1.369   .     S
C8     C11     1.396   .     A
C8     H38     1.083   .     S
C8     C382    1.368   1_545 S
C9     H39     1.083   .     S
C9     C11     1.398   .     A
C9     C379    1.369   1_545 S
C10    C12     1.397   .     A
C10    H40     1.082   .     S
C10    C194    1.368   .     S
C13    Br59    1.924   .     S
C13    N42     1.367   .     A
C13    C77     1.424   .     S
C14    Br60    1.918   .     S
C14    N41     1.370   .     A
C14    C140    1.426   1_455 S
C15    I61     2.114   .     S
C15    N41     1.378   .     A
C15    C137    1.424   1_455 S
C16    N42     1.378   .     A
C16    I62     2.137   .     S
C16    C76     1.426   .     S
C17    C19     1.472   .     S
C17    O49     1.300   .     A
C17    O47     1.307   .     A
C18    O50     1.308   .     A
C18    C20     1.464   .     S
C18    O48     1.295   .     A
C19    C23     1.395   .     A
C19    C25     1.385   .     A
C20    C26     1.387   .     A
C20    C24     1.394   .     A
C21    I55     2.133   .     S
C21    C23     1.407   .     A
C21    C29     1.438   .     A
C22    C24     1.392   .     A
C22    C30     1.430   .     A
C22    I118    2.138   .     S
C23    H36     1.083   .     S
C24    H35     1.084   .     S
C25    C27     1.395   .     A
C25    H34     1.082   .     S
C26    H33     1.079   .     S
C26    C28     1.401   .     A
C27    C29     1.426   .     A
C27    C31     1.408   .     A
C28    C30     1.433   .     A
C28    C32     1.414   .     A
C29    C563    1.432   .     S
C30    C564    1.422   1_554 S
C31    C590    1.385   .     S
C32    C589    1.385   1_554 S
N41    Zn51    2.029   .     S
N42    Zn52    2.029   .     S
O43    Zn51    2.001   .     S
O44    Zn52    2.001   .     S
O45    Zn52    2.001   .     S
O46    Zn51    2.001   .     S
O47    Zn51    1.931   .     S
O48    Zn52    1.931   .     S
O49    Zn52    1.925   .     S
O50    Zn51    1.925   .     S
I56    C146    2.138   1_455 S
C63    O107    1.292   .     A
C63    C74     1.422   .     S
C63    O105    1.291   .     A
C64    O108    1.292   .     A
C64    C73     1.421   .     S
C64    O106    1.291   .     A
C65    C94     1.412   .     A
C65    I119    2.148   .     S
C65    C67     1.420   .     A
C66    C93     1.407   .     A
C66    I120    2.142   .     S
C66    C68     1.404   .     A
C67    Br115   1.928   .     S
C67    C649    1.432   1_554 S
C68    Br116   1.916   .     S
C68    C650    1.422   .     S
C69    C74     1.397   .     A
C69    H99     1.083   .     S
C69    C257    1.369   .     S
C70    C73     1.396   .     A
C70    H100    1.083   .     S
C70    C444    1.368   1_545 S
C71    H101    1.083   .     S
C71    C73     1.398   .     A
C71    C441    1.369   1_545 S
C72    C74     1.397   .     A
C72    H102    1.082   .     S
C72    C256    1.368   .     S
C75    Br121   1.924   .     S
C75    N104    1.367   .     A
C75    C139    1.424   .     S
C76    Br122   1.918   .     S
C76    N103    1.370   .     A
C77    I123    2.114   .     S
C77    N103    1.378   .     A
C78    N104    1.378   .     A
C78    I124    2.137   .     S
C78    C138    1.426   .     S
C79    C81     1.472   .     S
C79    O111    1.300   .     A
C79    O109    1.307   .     A
C80    O112    1.308   .     A
C80    C82     1.464   .     S
C80    O110    1.295   .     A
C81    C85     1.395   .     A
C81    C87     1.385   .     A
C82    C88     1.387   .     A
C82    C86     1.394   .     A
C83    I117    2.133   .     S
C83    C85     1.407   .     A
C83    C91     1.438   .     A
C84    C86     1.392   .     A
C84    C92     1.430   .     A
C84    I180    2.138   .     S
C85    H98     1.083   .     S
C86    H97     1.084   .     S
C87    C89     1.395   .     A
C87    H96     1.082   .     S
C88    H95     1.079   .     S
C88    C90     1.401   .     A
C89    C91     1.426   .     A
C89    C93     1.408   .     A
C90    C92     1.433   .     A
C90    C94     1.414   .     A
C91    C625    1.432   .     S
C92    C626    1.422   1_554 S
C93    C652    1.385   .     S
C94    C651    1.385   1_554 S
N103   Zn113   2.029   .     S
N104   Zn114   2.029   .     S
O105   Zn113   2.001   .     S
O106   Zn114   2.001   .     S
O107   Zn114   2.001   .     S
O108   Zn113   2.001   .     S
O109   Zn113   1.931   .     S
O110   Zn114   1.931   .     S
O111   Zn114   1.925   .     S
O112   Zn113   1.925   .     S
C125   O169    1.292   .     A
C125   C136    1.422   .     S
C125   O167    1.291   .     A
C126   O170    1.292   .     A
C126   C135    1.421   .     S
C126   O168    1.291   .     A
C127   C156    1.412   .     A
C127   I181    2.148   .     S
C127   C129    1.420   .     A
C128   C155    1.407   .     A
C128   I182    2.142   .     S
C128   C130    1.404   .     A
C129   Br177   1.928   .     S
C129   C711    1.432   1_554 S
C130   Br178   1.916   .     S
C130   C712    1.422   .     S
C131   C136    1.397   .     A
C131   H161    1.083   .     S
C131   C319    1.369   .     S
C132   C135    1.396   .     A
C132   H162    1.083   .     S
C132   C506    1.368   1_545 S
C133   H163    1.083   .     S
C133   C135    1.398   .     A
C133   C503    1.369   1_545 S
C134   C136    1.397   .     A
C134   H164    1.082   .     S
C134   C318    1.368   .     S
C137   Br183   1.924   .     S
C137   N166    1.367   .     A
C137   C15     1.424   1_655 S
C138   Br184   1.918   .     S
C138   N165    1.370   .     A
C139   I185    2.114   .     S
C139   N165    1.378   .     A
C140   N166    1.378   .     A
C140   I186    2.137   .     S
C140   C14     1.426   1_655 S
C141   C143    1.472   .     S
C141   O173    1.300   .     A
C141   O171    1.307   .     A
C142   O174    1.308   .     A
C142   C144    1.464   .     S
C142   O172    1.295   .     A
C143   C147    1.395   .     A
C143   C149    1.385   .     A
C144   C150    1.387   .     A
C144   C148    1.394   .     A
C145   I179    2.133   .     S
C145   C147    1.407   .     A
C145   C153    1.438   .     A
C146   C148    1.392   .     A
C146   C154    1.430   .     A
C146   I56     2.138   1_655 S
C147   H160    1.083   .     S
C148   H159    1.084   .     S
C149   C151    1.395   .     A
C149   H158    1.082   .     S
C150   H157    1.079   .     S
C150   C152    1.401   .     A
C151   C153    1.426   .     A
C151   C155    1.408   .     A
C152   C154    1.433   .     A
C152   C156    1.414   .     A
C153   C687    1.432   .     S
C154   C688    1.422   1_554 S
C155   C714    1.385   .     S
C156   C713    1.385   1_554 S
N165   Zn175   2.029   .     S
N166   Zn176   2.029   .     S
O167   Zn175   2.001   .     S
O168   Zn176   2.001   .     S
O169   Zn176   2.001   .     S
O170   Zn175   2.001   .     S
O171   Zn175   1.931   .     S
O172   Zn176   1.931   .     S
O173   Zn176   1.925   .     S
O174   Zn175   1.925   .     S
C187   O231    1.292   .     A
C187   C198    1.422   .     S
C187   O229    1.291   .     A
C188   O232    1.292   .     A
C188   C197    1.421   .     S
C188   O230    1.291   .     A
C189   C218    1.412   .     A
C189   I243    2.148   .     S
C189   C191    1.420   .     A
C190   C217    1.407   .     A
C190   I244    2.142   .     S
C190   C192    1.404   .     A
C191   Br239   1.928   .     S
C191   C773    1.432   1_554 S
C192   Br240   1.916   .     S
C192   C774    1.422   .     S
C193   C198    1.397   .     A
C193   H223    1.083   .     S
C193   C381    1.369   .     S
C194   C197    1.396   .     A
C194   H224    1.083   .     S
C195   H225    1.083   .     S
C195   C197    1.398   .     A
C196   C198    1.397   .     A
C196   H226    1.082   .     S
C196   C380    1.368   .     S
C199   Br245   1.924   .     S
C199   N228    1.367   .     A
C199   C263    1.424   .     S
C200   Br246   1.918   .     S
C200   N227    1.370   .     A
C200   C326    1.426   1_455 S
C201   I247    2.114   .     S
C201   N227    1.378   .     A
C201   C323    1.424   1_455 S
C202   N228    1.378   .     A
C202   I248    2.137   .     S
C202   C262    1.426   .     S
C203   C205    1.472   .     S
C203   O235    1.300   .     A
C203   O233    1.307   .     A
C204   O236    1.308   .     A
C204   C206    1.464   .     S
C204   O234    1.295   .     A
C205   C209    1.395   .     A
C205   C211    1.385   .     A
C206   C212    1.387   .     A
C206   C210    1.394   .     A
C207   I241    2.133   .     S
C207   C209    1.407   .     A
C207   C215    1.438   .     A
C208   C210    1.392   .     A
C208   C216    1.430   .     A
C208   I304    2.138   .     S
C209   H222    1.083   .     S
C210   H221    1.084   .     S
C211   C213    1.395   .     A
C211   H220    1.082   .     S
C212   H219    1.079   .     S
C212   C214    1.401   .     A
C213   C215    1.426   .     A
C213   C217    1.408   .     A
C214   C216    1.433   .     A
C214   C218    1.414   .     A
C215   C749    1.432   .     S
C216   C750    1.422   1_554 S
C217   C776    1.385   .     S
C218   C775    1.385   1_554 S
N227   Zn237   2.029   .     S
N228   Zn238   2.029   .     S
O229   Zn237   2.001   .     S
O230   Zn238   2.001   .     S
O231   Zn238   2.001   .     S
O232   Zn237   2.001   .     S
O233   Zn237   1.931   .     S
O234   Zn238   1.931   .     S
O235   Zn238   1.925   .     S
O236   Zn237   1.925   .     S
I242   C332    2.138   1_455 S
C249   O293    1.292   .     A
C249   C260    1.422   .     S
C249   O291    1.291   .     A
C250   O294    1.292   .     A
C250   C259    1.421   .     S
C250   O292    1.291   .     A
C251   C280    1.412   .     A
C251   I305    2.148   .     S
C251   C253    1.420   .     A
C252   C279    1.407   .     A
C252   I306    2.142   .     S
C252   C254    1.404   .     A
C253   Br301   1.928   .     S
C253   C835    1.432   1_554 S
C254   Br302   1.916   .     S
C254   C836    1.422   .     S
C255   C260    1.397   .     A
C255   H285    1.083   .     S
C255   C443    1.369   .     S
C256   C259    1.396   .     A
C256   H286    1.083   .     S
C257   H287    1.083   .     S
C257   C259    1.398   .     A
C258   C260    1.397   .     A
C258   H288    1.082   .     S
C258   C442    1.368   .     S
C261   Br307   1.924   .     S
C261   N290    1.367   .     A
C261   C325    1.424   .     S
C262   Br308   1.918   .     S
C262   N289    1.370   .     A
C263   I309    2.114   .     S
C263   N289    1.378   .     A
C264   N290    1.378   .     A
C264   I310    2.137   .     S
C264   C324    1.426   .     S
C265   C267    1.472   .     S
C265   O297    1.300   .     A
C265   O295    1.307   .     A
C266   O298    1.308   .     A
C266   C268    1.464   .     S
C266   O296    1.295   .     A
C267   C271    1.395   .     A
C267   C273    1.385   .     A
C268   C274    1.387   .     A
C268   C272    1.394   .     A
C269   I303    2.133   .     S
C269   C271    1.407   .     A
C269   C277    1.438   .     A
C270   C272    1.392   .     A
C270   C278    1.430   .     A
C270   I366    2.138   .     S
C271   H284    1.083   .     S
C272   H283    1.084   .     S
C273   C275    1.395   .     A
C273   H282    1.082   .     S
C274   H281    1.079   .     S
C274   C276    1.401   .     A
C275   C277    1.426   .     A
C275   C279    1.408   .     A
C276   C278    1.433   .     A
C276   C280    1.414   .     A
C277   C811    1.432   .     S
C278   C812    1.422   1_554 S
C279   C838    1.385   .     S
C280   C837    1.385   1_554 S
N289   Zn299   2.029   .     S
N290   Zn300   2.029   .     S
O291   Zn299   2.001   .     S
O292   Zn300   2.001   .     S
O293   Zn300   2.001   .     S
O294   Zn299   2.001   .     S
O295   Zn299   1.931   .     S
O296   Zn300   1.931   .     S
O297   Zn300   1.925   .     S
O298   Zn299   1.925   .     S
C311   O355    1.292   .     A
C311   C322    1.422   .     S
C311   O353    1.291   .     A
C312   O356    1.292   .     A
C312   C321    1.421   .     S
C312   O354    1.291   .     A
C313   C342    1.412   .     A
C313   I367    2.148   .     S
C313   C315    1.420   .     A
C314   C341    1.407   .     A
C314   I368    2.142   .     S
C314   C316    1.404   .     A
C315   Br363   1.928   .     S
C315   C897    1.432   1_554 S
C316   Br364   1.916   .     S
C316   C898    1.422   .     S
C317   C322    1.397   .     A
C317   H347    1.083   .     S
C317   C505    1.369   .     S
C318   C321    1.396   .     A
C318   H348    1.083   .     S
C319   H349    1.083   .     S
C319   C321    1.398   .     A
C320   C322    1.397   .     A
C320   H350    1.082   .     S
C320   C504    1.368   .     S
C323   Br369   1.924   .     S
C323   N352    1.367   .     A
C323   C201    1.424   1_655 S
C324   Br370   1.918   .     S
C324   N351    1.370   .     A
C325   I371    2.114   .     S
C325   N351    1.378   .     A
C326   N352    1.378   .     A
C326   I372    2.137   .     S
C326   C200    1.426   1_655 S
C327   C329    1.472   .     S
C327   O359    1.300   .     A
C327   O357    1.307   .     A
C328   O360    1.308   .     A
C328   C330    1.464   .     S
C328   O358    1.295   .     A
C329   C333    1.395   .     A
C329   C335    1.385   .     A
C330   C336    1.387   .     A
C330   C334    1.394   .     A
C331   I365    2.133   .     S
C331   C333    1.407   .     A
C331   C339    1.438   .     A
C332   C334    1.392   .     A
C332   C340    1.430   .     A
C332   I242    2.138   1_655 S
C333   H346    1.083   .     S
C334   H345    1.084   .     S
C335   C337    1.395   .     A
C335   H344    1.082   .     S
C336   H343    1.079   .     S
C336   C338    1.401   .     A
C337   C339    1.426   .     A
C337   C341    1.408   .     A
C338   C340    1.433   .     A
C338   C342    1.414   .     A
C339   C873    1.432   .     S
C340   C874    1.422   1_554 S
C341   C900    1.385   .     S
C342   C899    1.385   1_554 S
N351   Zn361   2.029   .     S
N352   Zn362   2.029   .     S
O353   Zn361   2.001   .     S
O354   Zn362   2.001   .     S
O355   Zn362   2.001   .     S
O356   Zn361   2.001   .     S
O357   Zn361   1.931   .     S
O358   Zn362   1.931   .     S
O359   Zn362   1.925   .     S
O360   Zn361   1.925   .     S
C373   O417    1.292   .     A
C373   C384    1.422   .     S
C373   O415    1.291   .     A
C374   O418    1.292   .     A
C374   C383    1.421   .     S
C374   O416    1.291   .     A
C375   C404    1.412   .     A
C375   I429    2.148   .     S
C375   C377    1.420   .     A
C376   C403    1.407   .     A
C376   I430    2.142   .     S
C376   C378    1.404   .     A
C377   Br425   1.928   .     S
C377   C959    1.432   1_554 S
C378   Br426   1.916   .     S
C378   C960    1.422   .     S
C379   C384    1.397   .     A
C379   H409    1.083   .     S
C379   C9      1.369   1_565 S
C380   C383    1.396   .     A
C380   H410    1.083   .     S
C381   H411    1.083   .     S
C381   C383    1.398   .     A
C382   C384    1.397   .     A
C382   H412    1.082   .     S
C382   C8      1.368   1_565 S
C385   Br431   1.924   .     S
C385   N414    1.367   .     A
C385   C449    1.424   .     S
C386   Br432   1.918   .     S
C386   N413    1.370   .     A
C386   C512    1.426   1_455 S
C387   I433    2.114   .     S
C387   N413    1.378   .     A
C387   C509    1.424   1_455 S
C388   N414    1.378   .     A
C388   I434    2.137   .     S
C388   C448    1.426   .     S
C389   C391    1.472   .     S
C389   O421    1.300   .     A
C389   O419    1.307   .     A
C390   O422    1.308   .     A
C390   C392    1.464   .     S
C390   O420    1.295   .     A
C391   C395    1.395   .     A
C391   C397    1.385   .     A
C392   C398    1.387   .     A
C392   C396    1.394   .     A
C393   I427    2.133   .     S
C393   C395    1.407   .     A
C393   C401    1.438   .     A
C394   C396    1.392   .     A
C394   C402    1.430   .     A
C394   I490    2.138   .     S
C395   H408    1.083   .     S
C396   H407    1.084   .     S
C397   C399    1.395   .     A
C397   H406    1.082   .     S
C398   H405    1.079   .     S
C398   C400    1.401   .     A
C399   C401    1.426   .     A
C399   C403    1.408   .     A
C400   C402    1.433   .     A
C400   C404    1.414   .     A
C401   C935    1.432   .     S
C402   C936    1.422   1_554 S
C403   C962    1.385   .     S
C404   C961    1.385   1_554 S
N413   Zn423   2.029   .     S
N414   Zn424   2.029   .     S
O415   Zn423   2.001   .     S
O416   Zn424   2.001   .     S
O417   Zn424   2.001   .     S
O418   Zn423   2.001   .     S
O419   Zn423   1.931   .     S
O420   Zn424   1.931   .     S
O421   Zn424   1.925   .     S
O422   Zn423   1.925   .     S
I428   C518    2.138   1_455 S
C435   O479    1.292   .     A
C435   C446    1.422   .     S
C435   O477    1.291   .     A
C436   O480    1.292   .     A
C436   C445    1.421   .     S
C436   O478    1.291   .     A
C437   C466    1.412   .     A
C437   I491    2.148   .     S
C437   C439    1.420   .     A
C438   C465    1.407   .     A
C438   I492    2.142   .     S
C438   C440    1.404   .     A
C439   Br487   1.928   .     S
C439   C1021   1.432   1_554 S
C440   Br488   1.916   .     S
C440   C1022   1.422   .     S
C441   C446    1.397   .     A
C441   H471    1.083   .     S
C441   C71     1.369   1_565 S
C442   C445    1.396   .     A
C442   H472    1.083   .     S
C443   H473    1.083   .     S
C443   C445    1.398   .     A
C444   C446    1.397   .     A
C444   H474    1.082   .     S
C444   C70     1.368   1_565 S
C447   Br493   1.924   .     S
C447   N476    1.367   .     A
C447   C511    1.424   .     S
C448   Br494   1.918   .     S
C448   N475    1.370   .     A
C449   I495    2.114   .     S
C449   N475    1.378   .     A
C450   N476    1.378   .     A
C450   I496    2.137   .     S
C450   C510    1.426   .     S
C451   C453    1.472   .     S
C451   O483    1.300   .     A
C451   O481    1.307   .     A
C452   O484    1.308   .     A
C452   C454    1.464   .     S
C452   O482    1.295   .     A
C453   C457    1.395   .     A
C453   C459    1.385   .     A
C454   C460    1.387   .     A
C454   C458    1.394   .     A
C455   I489    2.133   .     S
C455   C457    1.407   .     A
C455   C463    1.438   .     A
C456   C458    1.392   .     A
C456   C464    1.430   .     A
C456   I552    2.138   .     S
C457   H470    1.083   .     S
C458   H469    1.084   .     S
C459   C461    1.395   .     A
C459   H468    1.082   .     S
C460   H467    1.079   .     S
C460   C462    1.401   .     A
C461   C463    1.426   .     A
C461   C465    1.408   .     A
C462   C464    1.433   .     A
C462   C466    1.414   .     A
C463   C997    1.432   .     S
C464   C998    1.422   1_554 S
C465   C1024   1.385   .     S
C466   C1023   1.385   1_554 S
N475   Zn485   2.029   .     S
N476   Zn486   2.029   .     S
O477   Zn485   2.001   .     S
O478   Zn486   2.001   .     S
O479   Zn486   2.001   .     S
O480   Zn485   2.001   .     S
O481   Zn485   1.931   .     S
O482   Zn486   1.931   .     S
O483   Zn486   1.925   .     S
O484   Zn485   1.925   .     S
C497   O541    1.292   .     A
C497   C508    1.422   .     S
C497   O539    1.291   .     A
C498   O542    1.292   .     A
C498   C507    1.421   .     S
C498   O540    1.291   .     A
C499   C528    1.412   .     A
C499   I553    2.148   .     S
C499   C501    1.420   .     A
C500   C527    1.407   .     A
C500   I554    2.142   .     S
C500   C502    1.404   .     A
C501   Br549   1.928   .     S
C501   C1083   1.432   1_554 S
C502   Br550   1.916   .     S
C502   C1084   1.422   .     S
C503   C508    1.397   .     A
C503   H533    1.083   .     S
C503   C133    1.369   1_565 S
C504   C507    1.396   .     A
C504   H534    1.083   .     S
C505   H535    1.083   .     S
C505   C507    1.398   .     A
C506   C508    1.397   .     A
C506   H536    1.082   .     S
C506   C132    1.368   1_565 S
C509   Br555   1.924   .     S
C509   N538    1.367   .     A
C509   C387    1.424   1_655 S
C510   Br556   1.918   .     S
C510   N537    1.370   .     A
C511   I557    2.114   .     S
C511   N537    1.378   .     A
C512   N538    1.378   .     A
C512   I558    2.137   .     S
C512   C386    1.426   1_655 S
C513   C515    1.472   .     S
C513   O545    1.300   .     A
C513   O543    1.307   .     A
C514   O546    1.308   .     A
C514   C516    1.464   .     S
C514   O544    1.295   .     A
C515   C519    1.395   .     A
C515   C521    1.385   .     A
C516   C522    1.387   .     A
C516   C520    1.394   .     A
C517   I551    2.133   .     S
C517   C519    1.407   .     A
C517   C525    1.438   .     A
C518   C520    1.392   .     A
C518   C526    1.430   .     A
C518   I428    2.138   1_655 S
C519   H532    1.083   .     S
C520   H531    1.084   .     S
C521   C523    1.395   .     A
C521   H530    1.082   .     S
C522   H529    1.079   .     S
C522   C524    1.401   .     A
C523   C525    1.426   .     A
C523   C527    1.408   .     A
C524   C526    1.433   .     A
C524   C528    1.414   .     A
C525   C1059   1.432   .     S
C526   C1060   1.422   1_554 S
C527   C1086   1.385   .     S
C528   C1085   1.385   1_554 S
N537   Zn547   2.029   .     S
N538   Zn548   2.029   .     S
O539   Zn547   2.001   .     S
O540   Zn548   2.001   .     S
O541   Zn548   2.001   .     S
O542   Zn547   2.001   .     S
O543   Zn547   1.931   .     S
O544   Zn548   1.931   .     S
O545   Zn548   1.925   .     S
O546   Zn547   1.925   .     S
C559   O603    1.292   .     A
C559   C570    1.422   .     S
C559   O601    1.291   .     A
C560   O604    1.292   .     A
C560   C569    1.421   .     S
C560   O602    1.291   .     A
C561   C590    1.412   .     A
C561   I615    2.148   .     S
C561   C563    1.420   .     A
C562   C589    1.407   .     A
C562   I616    2.142   .     S
C562   C564    1.404   .     A
C563   Br611   1.928   .     S
C564   Br612   1.916   .     S
C564   C30     1.422   1_556 S
C565   C570    1.397   .     A
C565   H595    1.083   .     S
C565   C753    1.369   .     S
C566   C569    1.396   .     A
C566   H596    1.083   .     S
C566   C940    1.368   1_545 S
C567   H597    1.083   .     S
C567   C569    1.398   .     A
C567   C937    1.369   1_545 S
C568   C570    1.397   .     A
C568   H598    1.082   .     S
C568   C752    1.368   .     S
C571   Br617   1.924   .     S
C571   N600    1.367   .     A
C571   C635    1.424   .     S
C572   Br618   1.918   .     S
C572   N599    1.370   .     A
C572   C698    1.426   1_455 S
C573   I619    2.114   .     S
C573   N599    1.378   .     A
C573   C695    1.424   1_455 S
C574   N600    1.378   .     A
C574   I620    2.137   .     S
C574   C634    1.426   .     S
C575   C577    1.472   .     S
C575   O607    1.300   .     A
C575   O605    1.307   .     A
C576   O608    1.308   .     A
C576   C578    1.464   .     S
C576   O606    1.295   .     A
C577   C581    1.395   .     A
C577   C583    1.385   .     A
C578   C584    1.387   .     A
C578   C582    1.394   .     A
C579   I613    2.133   .     S
C579   C581    1.407   .     A
C579   C587    1.438   .     A
C580   C582    1.392   .     A
C580   C588    1.430   .     A
C580   I676    2.138   .     S
C581   H594    1.083   .     S
C582   H593    1.084   .     S
C583   C585    1.395   .     A
C583   H592    1.082   .     S
C584   H591    1.079   .     S
C584   C586    1.401   .     A
C585   C587    1.426   .     A
C585   C589    1.408   .     A
C586   C588    1.433   .     A
C586   C590    1.414   .     A
C587   C5      1.432   1_556 S
C589   C32     1.385   1_556 S
N599   Zn609   2.029   .     S
N600   Zn610   2.029   .     S
O601   Zn609   2.001   .     S
O602   Zn610   2.001   .     S
O603   Zn610   2.001   .     S
O604   Zn609   2.001   .     S
O605   Zn609   1.931   .     S
O606   Zn610   1.931   .     S
O607   Zn610   1.925   .     S
O608   Zn609   1.925   .     S
I614   C704    2.138   1_455 S
C621   O665    1.292   .     A
C621   C632    1.422   .     S
C621   O663    1.291   .     A
C622   O666    1.292   .     A
C622   C631    1.421   .     S
C622   O664    1.291   .     A
C623   C652    1.412   .     A
C623   I677    2.148   .     S
C623   C625    1.420   .     A
C624   C651    1.407   .     A
C624   I678    2.142   .     S
C624   C626    1.404   .     A
C625   Br673   1.928   .     S
C626   Br674   1.916   .     S
C626   C92     1.422   1_556 S
C627   C632    1.397   .     A
C627   H657    1.083   .     S
C627   C815    1.369   .     S
C628   C631    1.396   .     A
C628   H658    1.083   .     S
C628   C1002   1.368   1_545 S
C629   H659    1.083   .     S
C629   C631    1.398   .     A
C629   C999    1.369   1_545 S
C630   C632    1.397   .     A
C630   H660    1.082   .     S
C630   C814    1.368   .     S
C633   Br679   1.924   .     S
C633   N662    1.367   .     A
C633   C697    1.424   .     S
C634   Br680   1.918   .     S
C634   N661    1.370   .     A
C635   I681    2.114   .     S
C635   N661    1.378   .     A
C636   N662    1.378   .     A
C636   I682    2.137   .     S
C636   C696    1.426   .     S
C637   C639    1.472   .     S
C637   O669    1.300   .     A
C637   O667    1.307   .     A
C638   O670    1.308   .     A
C638   C640    1.464   .     S
C638   O668    1.295   .     A
C639   C643    1.395   .     A
C639   C645    1.385   .     A
C640   C646    1.387   .     A
C640   C644    1.394   .     A
C641   I675    2.133   .     S
C641   C643    1.407   .     A
C641   C649    1.438   .     A
C642   C644    1.392   .     A
C642   C650    1.430   .     A
C642   I738    2.138   .     S
C643   H656    1.083   .     S
C644   H655    1.084   .     S
C645   C647    1.395   .     A
C645   H654    1.082   .     S
C646   H653    1.079   .     S
C646   C648    1.401   .     A
C647   C649    1.426   .     A
C647   C651    1.408   .     A
C648   C650    1.433   .     A
C648   C652    1.414   .     A
C649   C67     1.432   1_556 S
C651   C94     1.385   1_556 S
N661   Zn671   2.029   .     S
N662   Zn672   2.029   .     S
O663   Zn671   2.001   .     S
O664   Zn672   2.001   .     S
O665   Zn672   2.001   .     S
O666   Zn671   2.001   .     S
O667   Zn671   1.931   .     S
O668   Zn672   1.931   .     S
O669   Zn672   1.925   .     S
O670   Zn671   1.925   .     S
C683   O727    1.292   .     A
C683   C694    1.422   .     S
C683   O725    1.291   .     A
C684   O728    1.292   .     A
C684   C693    1.421   .     S
C684   O726    1.291   .     A
C685   C714    1.412   .     A
C685   I739    2.148   .     S
C685   C687    1.420   .     A
C686   C713    1.407   .     A
C686   I740    2.142   .     S
C686   C688    1.404   .     A
C687   Br735   1.928   .     S
C688   Br736   1.916   .     S
C688   C154    1.422   1_556 S
C689   C694    1.397   .     A
C689   H719    1.083   .     S
C689   C877    1.369   .     S
C690   C693    1.396   .     A
C690   H720    1.083   .     S
C690   C1064   1.368   1_545 S
C691   H721    1.083   .     S
C691   C693    1.398   .     A
C691   C1061   1.369   1_545 S
C692   C694    1.397   .     A
C692   H722    1.082   .     S
C692   C876    1.368   .     S
C695   Br741   1.924   .     S
C695   N724    1.367   .     A
C695   C573    1.424   1_655 S
C696   Br742   1.918   .     S
C696   N723    1.370   .     A
C697   I743    2.114   .     S
C697   N723    1.378   .     A
C698   N724    1.378   .     A
C698   I744    2.137   .     S
C698   C572    1.426   1_655 S
C699   C701    1.472   .     S
C699   O731    1.300   .     A
C699   O729    1.307   .     A
C700   O732    1.308   .     A
C700   C702    1.464   .     S
C700   O730    1.295   .     A
C701   C705    1.395   .     A
C701   C707    1.385   .     A
C702   C708    1.387   .     A
C702   C706    1.394   .     A
C703   I737    2.133   .     S
C703   C705    1.407   .     A
C703   C711    1.438   .     A
C704   C706    1.392   .     A
C704   C712    1.430   .     A
C704   I614    2.138   1_655 S
C705   H718    1.083   .     S
C706   H717    1.084   .     S
C707   C709    1.395   .     A
C707   H716    1.082   .     S
C708   H715    1.079   .     S
C708   C710    1.401   .     A
C709   C711    1.426   .     A
C709   C713    1.408   .     A
C710   C712    1.433   .     A
C710   C714    1.414   .     A
C711   C129    1.432   1_556 S
C713   C156    1.385   1_556 S
N723   Zn733   2.029   .     S
N724   Zn734   2.029   .     S
O725   Zn733   2.001   .     S
O726   Zn734   2.001   .     S
O727   Zn734   2.001   .     S
O728   Zn733   2.001   .     S
O729   Zn733   1.931   .     S
O730   Zn734   1.931   .     S
O731   Zn734   1.925   .     S
O732   Zn733   1.925   .     S
C745   O789    1.292   .     A
C745   C756    1.422   .     S
C745   O787    1.291   .     A
C746   O790    1.292   .     A
C746   C755    1.421   .     S
C746   O788    1.291   .     A
C747   C776    1.412   .     A
C747   I801    2.148   .     S
C747   C749    1.420   .     A
C748   C775    1.407   .     A
C748   I802    2.142   .     S
C748   C750    1.404   .     A
C749   Br797   1.928   .     S
C750   Br798   1.916   .     S
C750   C216    1.422   1_556 S
C751   C756    1.397   .     A
C751   H781    1.083   .     S
C751   C939    1.369   .     S
C752   C755    1.396   .     A
C752   H782    1.083   .     S
C753   H783    1.083   .     S
C753   C755    1.398   .     A
C754   C756    1.397   .     A
C754   H784    1.082   .     S
C754   C938    1.368   .     S
C757   Br803   1.924   .     S
C757   N786    1.367   .     A
C757   C821    1.424   .     S
C758   Br804   1.918   .     S
C758   N785    1.370   .     A
C758   C884    1.426   1_455 S
C759   I805    2.114   .     S
C759   N785    1.378   .     A
C759   C881    1.424   1_455 S
C760   N786    1.378   .     A
C760   I806    2.137   .     S
C760   C820    1.426   .     S
C761   C763    1.472   .     S
C761   O793    1.300   .     A
C761   O791    1.307   .     A
C762   O794    1.308   .     A
C762   C764    1.464   .     S
C762   O792    1.295   .     A
C763   C767    1.395   .     A
C763   C769    1.385   .     A
C764   C770    1.387   .     A
C764   C768    1.394   .     A
C765   I799    2.133   .     S
C765   C767    1.407   .     A
C765   C773    1.438   .     A
C766   C768    1.392   .     A
C766   C774    1.430   .     A
C766   I862    2.138   .     S
C767   H780    1.083   .     S
C768   H779    1.084   .     S
C769   C771    1.395   .     A
C769   H778    1.082   .     S
C770   H777    1.079   .     S
C770   C772    1.401   .     A
C771   C773    1.426   .     A
C771   C775    1.408   .     A
C772   C774    1.433   .     A
C772   C776    1.414   .     A
C773   C191    1.432   1_556 S
C775   C218    1.385   1_556 S
N785   Zn795   2.029   .     S
N786   Zn796   2.029   .     S
O787   Zn795   2.001   .     S
O788   Zn796   2.001   .     S
O789   Zn796   2.001   .     S
O790   Zn795   2.001   .     S
O791   Zn795   1.931   .     S
O792   Zn796   1.931   .     S
O793   Zn796   1.925   .     S
O794   Zn795   1.925   .     S
I800   C890    2.138   1_455 S
C807   O851    1.292   .     A
C807   C818    1.422   .     S
C807   O849    1.291   .     A
C808   O852    1.292   .     A
C808   C817    1.421   .     S
C808   O850    1.291   .     A
C809   C838    1.412   .     A
C809   I863    2.148   .     S
C809   C811    1.420   .     A
C810   C837    1.407   .     A
C810   I864    2.142   .     S
C810   C812    1.404   .     A
C811   Br859   1.928   .     S
C812   Br860   1.916   .     S
C812   C278    1.422   1_556 S
C813   C818    1.397   .     A
C813   H843    1.083   .     S
C813   C1001   1.369   .     S
C814   C817    1.396   .     A
C814   H844    1.083   .     S
C815   H845    1.083   .     S
C815   C817    1.398   .     A
C816   C818    1.397   .     A
C816   H846    1.082   .     S
C816   C1000   1.368   .     S
C819   Br865   1.924   .     S
C819   N848    1.367   .     A
C819   C883    1.424   .     S
C820   Br866   1.918   .     S
C820   N847    1.370   .     A
C821   I867    2.114   .     S
C821   N847    1.378   .     A
C822   N848    1.378   .     A
C822   I868    2.137   .     S
C822   C882    1.426   .     S
C823   C825    1.472   .     S
C823   O855    1.300   .     A
C823   O853    1.307   .     A
C824   O856    1.308   .     A
C824   C826    1.464   .     S
C824   O854    1.295   .     A
C825   C829    1.395   .     A
C825   C831    1.385   .     A
C826   C832    1.387   .     A
C826   C830    1.394   .     A
C827   I861    2.133   .     S
C827   C829    1.407   .     A
C827   C835    1.438   .     A
C828   C830    1.392   .     A
C828   C836    1.430   .     A
C828   I924    2.138   .     S
C829   H842    1.083   .     S
C830   H841    1.084   .     S
C831   C833    1.395   .     A
C831   H840    1.082   .     S
C832   H839    1.079   .     S
C832   C834    1.401   .     A
C833   C835    1.426   .     A
C833   C837    1.408   .     A
C834   C836    1.433   .     A
C834   C838    1.414   .     A
C835   C253    1.432   1_556 S
C837   C280    1.385   1_556 S
N847   Zn857   2.029   .     S
N848   Zn858   2.029   .     S
O849   Zn857   2.001   .     S
O850   Zn858   2.001   .     S
O851   Zn858   2.001   .     S
O852   Zn857   2.001   .     S
O853   Zn857   1.931   .     S
O854   Zn858   1.931   .     S
O855   Zn858   1.925   .     S
O856   Zn857   1.925   .     S
C869   O913    1.292   .     A
C869   C880    1.422   .     S
C869   O911    1.291   .     A
C870   O914    1.292   .     A
C870   C879    1.421   .     S
C870   O912    1.291   .     A
C871   C900    1.412   .     A
C871   I925    2.148   .     S
C871   C873    1.420   .     A
C872   C899    1.407   .     A
C872   I926    2.142   .     S
C872   C874    1.404   .     A
C873   Br921   1.928   .     S
C874   Br922   1.916   .     S
C874   C340    1.422   1_556 S
C875   C880    1.397   .     A
C875   H905    1.083   .     S
C875   C1063   1.369   .     S
C876   C879    1.396   .     A
C876   H906    1.083   .     S
C877   H907    1.083   .     S
C877   C879    1.398   .     A
C878   C880    1.397   .     A
C878   H908    1.082   .     S
C878   C1062   1.368   .     S
C881   Br927   1.924   .     S
C881   N910    1.367   .     A
C881   C759    1.424   1_655 S
C882   Br928   1.918   .     S
C882   N909    1.370   .     A
C883   I929    2.114   .     S
C883   N909    1.378   .     A
C884   N910    1.378   .     A
C884   I930    2.137   .     S
C884   C758    1.426   1_655 S
C885   C887    1.472   .     S
C885   O917    1.300   .     A
C885   O915    1.307   .     A
C886   O918    1.308   .     A
C886   C888    1.464   .     S
C886   O916    1.295   .     A
C887   C891    1.395   .     A
C887   C893    1.385   .     A
C888   C894    1.387   .     A
C888   C892    1.394   .     A
C889   I923    2.133   .     S
C889   C891    1.407   .     A
C889   C897    1.438   .     A
C890   C892    1.392   .     A
C890   C898    1.430   .     A
C890   I800    2.138   1_655 S
C891   H904    1.083   .     S
C892   H903    1.084   .     S
C893   C895    1.395   .     A
C893   H902    1.082   .     S
C894   H901    1.079   .     S
C894   C896    1.401   .     A
C895   C897    1.426   .     A
C895   C899    1.408   .     A
C896   C898    1.433   .     A
C896   C900    1.414   .     A
C897   C315    1.432   1_556 S
C899   C342    1.385   1_556 S
N909   Zn919   2.029   .     S
N910   Zn920   2.029   .     S
O911   Zn919   2.001   .     S
O912   Zn920   2.001   .     S
O913   Zn920   2.001   .     S
O914   Zn919   2.001   .     S
O915   Zn919   1.931   .     S
O916   Zn920   1.931   .     S
O917   Zn920   1.925   .     S
O918   Zn919   1.925   .     S
C931   O975    1.292   .     A
C931   C942    1.422   .     S
C931   O973    1.291   .     A
C932   O976    1.292   .     A
C932   C941    1.421   .     S
C932   O974    1.291   .     A
C933   C962    1.412   .     A
C933   I987    2.148   .     S
C933   C935    1.420   .     A
C934   C961    1.407   .     A
C934   I988    2.142   .     S
C934   C936    1.404   .     A
C935   Br983   1.928   .     S
C936   Br984   1.916   .     S
C936   C402    1.422   1_556 S
C937   C942    1.397   .     A
C937   H967    1.083   .     S
C937   C567    1.369   1_565 S
C938   C941    1.396   .     A
C938   H968    1.083   .     S
C939   H969    1.083   .     S
C939   C941    1.398   .     A
C940   C942    1.397   .     A
C940   H970    1.082   .     S
C940   C566    1.368   1_565 S
C943   Br989   1.924   .     S
C943   N972    1.367   .     A
C943   C1007   1.424   .     S
C944   Br990   1.918   .     S
C944   N971    1.370   .     A
C944   C1070   1.426   1_455 S
C945   I991    2.114   .     S
C945   N971    1.378   .     A
C945   C1067   1.424   1_455 S
C946   N972    1.378   .     A
C946   I992    2.137   .     S
C946   C1006   1.426   .     S
C947   C949    1.472   .     S
C947   O979    1.300   .     A
C947   O977    1.307   .     A
C948   O980    1.308   .     A
C948   C950    1.464   .     S
C948   O978    1.295   .     A
C949   C953    1.395   .     A
C949   C955    1.385   .     A
C950   C956    1.387   .     A
C950   C954    1.394   .     A
C951   I985    2.133   .     S
C951   C953    1.407   .     A
C951   C959    1.438   .     A
C952   C954    1.392   .     A
C952   C960    1.430   .     A
C952   I1048   2.138   .     S
C953   H966    1.083   .     S
C954   H965    1.084   .     S
C955   C957    1.395   .     A
C955   H964    1.082   .     S
C956   H963    1.079   .     S
C956   C958    1.401   .     A
C957   C959    1.426   .     A
C957   C961    1.408   .     A
C958   C960    1.433   .     A
C958   C962    1.414   .     A
C959   C377    1.432   1_556 S
C961   C404    1.385   1_556 S
N971   Zn981   2.029   .     S
N972   Zn982   2.029   .     S
O973   Zn981   2.001   .     S
O974   Zn982   2.001   .     S
O975   Zn982   2.001   .     S
O976   Zn981   2.001   .     S
O977   Zn981   1.931   .     S
O978   Zn982   1.931   .     S
O979   Zn982   1.925   .     S
O980   Zn981   1.925   .     S
I986   C1076   2.138   1_455 S
C993   O1037   1.292   .     A
C993   C1004   1.422   .     S
C993   O1035   1.291   .     A
C994   O1038   1.292   .     A
C994   C1003   1.421   .     S
C994   O1036   1.291   .     A
C995   C1024   1.412   .     A
C995   I1049   2.148   .     S
C995   C997    1.420   .     A
C996   C1023   1.407   .     A
C996   I1050   2.142   .     S
C996   C998    1.404   .     A
C997   Br1045  1.928   .     S
C998   Br1046  1.916   .     S
C998   C464    1.422   1_556 S
C999   C1004   1.397   .     A
C999   H1029   1.083   .     S
C999   C629    1.369   1_565 S
C1000  C1003   1.396   .     A
C1000  H1030   1.083   .     S
C1001  H1031   1.083   .     S
C1001  C1003   1.398   .     A
C1002  C1004   1.397   .     A
C1002  H1032   1.082   .     S
C1002  C628    1.368   1_565 S
C1005  Br1051  1.924   .     S
C1005  N1034   1.367   .     A
C1005  C1069   1.424   .     S
C1006  Br1052  1.918   .     S
C1006  N1033   1.370   .     A
C1007  I1053   2.114   .     S
C1007  N1033   1.378   .     A
C1008  N1034   1.378   .     A
C1008  I1054   2.137   .     S
C1008  C1068   1.426   .     S
C1009  C1011   1.472   .     S
C1009  O1041   1.300   .     A
C1009  O1039   1.307   .     A
C1010  O1042   1.308   .     A
C1010  C1012   1.464   .     S
C1010  O1040   1.295   .     A
C1011  C1015   1.395   .     A
C1011  C1017   1.385   .     A
C1012  C1018   1.387   .     A
C1012  C1016   1.394   .     A
C1013  I1047   2.133   .     S
C1013  C1015   1.407   .     A
C1013  C1021   1.438   .     A
C1014  C1016   1.392   .     A
C1014  C1022   1.430   .     A
C1014  I1110   2.138   .     S
C1015  H1028   1.083   .     S
C1016  H1027   1.084   .     S
C1017  C1019   1.395   .     A
C1017  H1026   1.082   .     S
C1018  H1025   1.079   .     S
C1018  C1020   1.401   .     A
C1019  C1021   1.426   .     A
C1019  C1023   1.408   .     A
C1020  C1022   1.433   .     A
C1020  C1024   1.414   .     A
C1021  C439    1.432   1_556 S
C1023  C466    1.385   1_556 S
N1033  Zn1043  2.029   .     S
N1034  Zn1044  2.029   .     S
O1035  Zn1043  2.001   .     S
O1036  Zn1044  2.001   .     S
O1037  Zn1044  2.001   .     S
O1038  Zn1043  2.001   .     S
O1039  Zn1043  1.931   .     S
O1040  Zn1044  1.931   .     S
O1041  Zn1044  1.925   .     S
O1042  Zn1043  1.925   .     S
C1055  O1099   1.292   .     A
C1055  C1066   1.422   .     S
C1055  O1097   1.291   .     A
C1056  O1100   1.292   .     A
C1056  C1065   1.421   .     S
C1056  O1098   1.291   .     A
C1057  C1086   1.412   .     A
C1057  I1111   2.148   .     S
C1057  C1059   1.420   .     A
C1058  C1085   1.407   .     A
C1058  I1112   2.142   .     S
C1058  C1060   1.404   .     A
C1059  Br1107  1.928   .     S
C1060  Br1108  1.916   .     S
C1060  C526    1.422   1_556 S
C1061  C1066   1.397   .     A
C1061  H1091   1.083   .     S
C1061  C691    1.369   1_565 S
C1062  C1065   1.396   .     A
C1062  H1092   1.083   .     S
C1063  H1093   1.083   .     S
C1063  C1065   1.398   .     A
C1064  C1066   1.397   .     A
C1064  H1094   1.082   .     S
C1064  C690    1.368   1_565 S
C1067  Br1113  1.924   .     S
C1067  N1096   1.367   .     A
C1067  C945    1.424   1_655 S
C1068  Br1114  1.918   .     S
C1068  N1095   1.370   .     A
C1069  I1115   2.114   .     S
C1069  N1095   1.378   .     A
C1070  N1096   1.378   .     A
C1070  I1116   2.137   .     S
C1070  C944    1.426   1_655 S
C1071  C1073   1.472   .     S
C1071  O1103   1.300   .     A
C1071  O1101   1.307   .     A
C1072  O1104   1.308   .     A
C1072  C1074   1.464   .     S
C1072  O1102   1.295   .     A
C1073  C1077   1.395   .     A
C1073  C1079   1.385   .     A
C1074  C1080   1.387   .     A
C1074  C1078   1.394   .     A
C1075  I1109   2.133   .     S
C1075  C1077   1.407   .     A
C1075  C1083   1.438   .     A
C1076  C1078   1.392   .     A
C1076  C1084   1.430   .     A
C1076  I986    2.138   1_655 S
C1077  H1090   1.083   .     S
C1078  H1089   1.084   .     S
C1079  C1081   1.395   .     A
C1079  H1088   1.082   .     S
C1080  H1087   1.079   .     S
C1080  C1082   1.401   .     A
C1081  C1083   1.426   .     A
C1081  C1085   1.408   .     A
C1082  C1084   1.433   .     A
C1082  C1086   1.414   .     A
C1083  C501    1.432   1_556 S
C1085  C528    1.385   1_556 S
N1095  Zn1105  2.029   .     S
N1096  Zn1106  2.029   .     S
O1097  Zn1105  2.001   .     S
O1098  Zn1106  2.001   .     S
O1099  Zn1106  2.001   .     S
O1100  Zn1105  2.001   .     S
O1101  Zn1105  1.931   .     S
O1102  Zn1106  1.931   .     S
O1103  Zn1106  1.925   .     S
O1104  Zn1105  1.925   .     S
