data_str_m3_o1_o2_pcu_sym.38
_audit_creation_date              2020-01-03
_audit_creation_method            'Materials Studio'
_symmetry_space_group_name_H-M    'P1'
_symmetry_Int_Tables_number       1
_symmetry_cell_setting            triclinic
loop_
_symmetry_equiv_pos_as_xyz
  x,y,z
_cell_length_a                    32.6513
_cell_length_b                    29.4244
_cell_length_c                    30.0019
_cell_angle_alpha                 89.9995
_cell_angle_beta                  90.1040
_cell_angle_gamma                 90.0000
loop_
_atom_site_label
_atom_site_type_symbol
_atom_site_fract_x
_atom_site_fract_y
_atom_site_fract_z
_atom_site_U_iso_or_equiv
_atom_site_adp_type
_atom_site_occupancy
C1     C     0.08655   0.16604   0.25289   0.00000  Uiso   1.00
C2     C     0.31356   0.20398   0.24155   0.00000  Uiso   1.00
C3     C     0.31189   0.12021   0.24738   0.00000  Uiso   1.00
C4     C     0.01978   0.20398   0.25847   0.00000  Uiso   1.00
C5     C     0.18125   0.20485   0.04711   0.00000  Uiso   1.00
C6     C     0.18122   0.12852   0.45294   0.00000  Uiso   1.00
C7     C     0.15244   0.20484   0.45294   0.00000  Uiso   1.00
C8     C     0.15261   0.12846   0.04701   0.00000  Uiso   1.00
C9     C     0.18093   0.20496   0.09311   0.00000  Uiso   1.00
C10    C     0.18088   0.12839   0.40695   0.00000  Uiso   1.00
C11    C     0.15259   0.20495   0.40694   0.00000  Uiso   1.00
C12    C     0.24678   0.16604   0.24711   0.00000  Uiso   1.00
C13    C     0.15278   0.12834   0.09300   0.00000  Uiso   1.00
C14    C     0.16681   0.16666   0.11602   0.00000  Uiso   1.00
C15    C     0.16668   0.16666   0.38398   0.00000  Uiso   1.00
C16    C     0.16694   0.16666   0.02406   0.00000  Uiso   1.00
C17    C     0.16689   0.16669   0.47594   0.00000  Uiso   1.00
C18    C     0.29120   0.16317   0.24384   0.00000  Uiso   1.00
C19    C     0.04214   0.16317   0.25618   0.00000  Uiso   1.00
C20    C     0.04375   0.07391   0.25481   0.00000  Uiso   1.00
C21    C     0.05618   0.05799   0.20758   0.00000  Uiso   1.00
C22    C     0.06785   0.00799   0.20695   0.00000  Uiso   1.00
C23    C     0.16669   0.16667   0.16388   0.00000  Uiso   1.00
C24    C     0.29804   0.24611   0.21692   0.00000  Uiso   1.00
C25    C     0.28525   0.23517   0.16877   0.00000  Uiso   1.00
C26    C     0.27678   0.27854   0.14236   0.00000  Uiso   1.00
C27    C     0.28958   0.07391   0.24521   0.00000  Uiso   1.00
C28    C     0.27714   0.05799   0.29243   0.00000  Uiso   1.00
C29    C     0.26547   0.00799   0.29306   0.00000  Uiso   1.00
C30    C     0.03530   0.24611   0.28311   0.00000  Uiso   1.00
C31    C     0.04810   0.23516   0.33125   0.00000  Uiso   1.00
C32    C     0.05657   0.27853   0.35767   0.00000  Uiso   1.00
C33    C     0.16666   0.16667   0.33612   0.00000  Uiso   1.00
C34    C     0.15832   0.02399   0.28811   0.00000  Uiso   1.00
C35    C     0.17483   0.30934   0.21186   0.00000  Uiso   1.00
C36    C     0.17502   0.02399   0.21189   0.00000  Uiso   1.00
C37    C     0.15850   0.30933   0.28815   0.00000  Uiso   1.00
C38    C     0.02144   0.12021   0.25264   0.00000  Uiso   1.00
H39    H     0.15153   0.04206   0.31857   0.00000  Uiso   1.00
H40    H     0.19222   0.09877   0.38940   0.00000  Uiso   1.00
H41    H     0.14128   0.23459   0.38939   0.00000  Uiso   1.00
H42    H     0.14143   0.09870   0.11051   0.00000  Uiso   1.00
H43    H     0.09020   0.00043   0.23368   0.00000  Uiso   1.00
H44    H     0.04018   0.32051   0.21214   0.00000  Uiso   1.00
H45    H     0.08142   0.33232   0.17421   0.00000  Uiso   1.00
H46    H     0.03047   0.06312   0.18378   0.00000  Uiso   1.00
H47    H     0.08233   0.07792   0.19454   0.00000  Uiso   1.00
H48    H     0.06940   0.07314   0.27895   0.00000  Uiso   1.00
H49    H     0.02528   0.04739   0.27136   0.00000  Uiso   1.00
H50    H     0.18122   0.29123   0.18133   0.00000  Uiso   1.00
H51    H     0.25271   0.29906   0.15895   0.00000  Uiso   1.00
H52    H     0.30512   0.29925   0.13961   0.00000  Uiso   1.00
H53    H     0.26622   0.26961   0.10827   0.00000  Uiso   1.00
H54    H     0.31016   0.21601   0.15191   0.00000  Uiso   1.00
H55    H     0.25723   0.21384   0.16841   0.00000  Uiso   1.00
H56    H     0.27297   0.26316   0.23509   0.00000  Uiso   1.00
H57    H     0.32272   0.27164   0.21453   0.00000  Uiso   1.00
H58    H     0.24314   0.00043   0.26632   0.00000  Uiso   1.00
H59    H     0.29314   0.32051   0.28787   0.00000  Uiso   1.00
H60    H     0.25190   0.33232   0.32580   0.00000  Uiso   1.00
H61    H     0.18181   0.04207   0.18143   0.00000  Uiso   1.00
H62    H     0.30285   0.06312   0.31623   0.00000  Uiso   1.00
H63    H     0.25100   0.07792   0.30547   0.00000  Uiso   1.00
H64    H     0.26394   0.07314   0.22105   0.00000  Uiso   1.00
H65    H     0.30805   0.04739   0.22866   0.00000  Uiso   1.00
H66    H     0.08066   0.29903   0.34108   0.00000  Uiso   1.00
H67    H     0.02824   0.29926   0.36040   0.00000  Uiso   1.00
H68    H     0.06712   0.26959   0.39176   0.00000  Uiso   1.00
H69    H     0.02319   0.21600   0.34811   0.00000  Uiso   1.00
H70    H     0.07612   0.21383   0.33161   0.00000  Uiso   1.00
H71    H     0.06037   0.26316   0.26493   0.00000  Uiso   1.00
H72    H     0.15212   0.29123   0.31867   0.00000  Uiso   1.00
H73    H     0.01062   0.27163   0.28550   0.00000  Uiso   1.00
H74    H     0.19293   0.23428   0.02955   0.00000  Uiso   1.00
H75    H     0.19298   0.09913   0.47055   0.00000  Uiso   1.00
H76    H     0.14076   0.23425   0.47054   0.00000  Uiso   1.00
H77    H     0.14094   0.09905   0.02936   0.00000  Uiso   1.00
H78    H     0.19213   0.23463   0.11069   0.00000  Uiso   1.00
N79    N     0.16667   0.28573   0.25000   0.00000  Uiso   1.00
N80    N     0.16667   0.04760   0.25000   0.00000  Uiso   1.00
O81    O     0.10559   0.20487   0.25000   0.00000  Uiso   1.00
O82    O     0.22774   0.12846   0.25001   0.00000  Uiso   1.00
O83    O     0.22774   0.20487   0.25001   0.00000  Uiso   1.00
O84    O     0.10559   0.12846   0.25000   0.00000  Uiso   1.00
O85    O     0.16666   0.20489   0.18453   0.00000  Uiso   1.00
O86    O     0.16667   0.12845   0.31547   0.00000  Uiso   1.00
O87    O     0.16667   0.20489   0.31547   0.00000  Uiso   1.00
O88    O     0.16666   0.12845   0.18453   0.00000  Uiso   1.00
Zn89   Zn    0.16667   0.21771   0.25000   0.00000  Uiso   1.00
Zn90   Zn    0.16667   0.11563   0.25000   0.00000  Uiso   1.00
C91    C     0.41988   0.16604   0.25289   0.00000  Uiso   1.00
C92    C     0.64689   0.20398   0.24155   0.00000  Uiso   1.00
C93    C     0.64522   0.12021   0.24738   0.00000  Uiso   1.00
C94    C     0.35311   0.20398   0.25847   0.00000  Uiso   1.00
C95    C     0.51459   0.20485   0.04711   0.00000  Uiso   1.00
C96    C     0.51456   0.12852   0.45294   0.00000  Uiso   1.00
C97    C     0.48577   0.20484   0.45294   0.00000  Uiso   1.00
C98    C     0.48594   0.12846   0.04701   0.00000  Uiso   1.00
C99    C     0.51427   0.20496   0.09311   0.00000  Uiso   1.00
C100   C     0.51422   0.12839   0.40695   0.00000  Uiso   1.00
C101   C     0.48592   0.20495   0.40694   0.00000  Uiso   1.00
C102   C     0.58012   0.16604   0.24711   0.00000  Uiso   1.00
C103   C     0.48611   0.12834   0.09300   0.00000  Uiso   1.00
C104   C     0.50014   0.16666   0.11602   0.00000  Uiso   1.00
C105   C     0.50002   0.16666   0.38398   0.00000  Uiso   1.00
C106   C     0.50027   0.16666   0.02406   0.00000  Uiso   1.00
C107   C     0.50022   0.16669   0.47594   0.00000  Uiso   1.00
C108   C     0.62453   0.16317   0.24384   0.00000  Uiso   1.00
C109   C     0.37547   0.16317   0.25618   0.00000  Uiso   1.00
C110   C     0.37708   0.07391   0.25481   0.00000  Uiso   1.00
C111   C     0.38952   0.05799   0.20758   0.00000  Uiso   1.00
C112   C     0.40119   0.00799   0.20695   0.00000  Uiso   1.00
C113   C     0.50002   0.16667   0.16388   0.00000  Uiso   1.00
C114   C     0.63138   0.24611   0.21692   0.00000  Uiso   1.00
C115   C     0.61858   0.23517   0.16877   0.00000  Uiso   1.00
C116   C     0.61012   0.27854   0.14236   0.00000  Uiso   1.00
C117   C     0.62292   0.07391   0.24521   0.00000  Uiso   1.00
C118   C     0.61048   0.05799   0.29243   0.00000  Uiso   1.00
C119   C     0.59881   0.00799   0.29306   0.00000  Uiso   1.00
C120   C     0.36863   0.24611   0.28311   0.00000  Uiso   1.00
C121   C     0.38143   0.23516   0.33125   0.00000  Uiso   1.00
C122   C     0.38990   0.27853   0.35767   0.00000  Uiso   1.00
C123   C     0.50000   0.16667   0.33612   0.00000  Uiso   1.00
C124   C     0.49165   0.02399   0.28811   0.00000  Uiso   1.00
C125   C     0.50817   0.30934   0.21186   0.00000  Uiso   1.00
C126   C     0.50835   0.02399   0.21189   0.00000  Uiso   1.00
C127   C     0.49184   0.30933   0.28815   0.00000  Uiso   1.00
C128   C     0.35478   0.12021   0.25264   0.00000  Uiso   1.00
H129   H     0.48486   0.04206   0.31857   0.00000  Uiso   1.00
H130   H     0.52555   0.09877   0.38940   0.00000  Uiso   1.00
H131   H     0.47461   0.23459   0.38939   0.00000  Uiso   1.00
H132   H     0.47477   0.09870   0.11051   0.00000  Uiso   1.00
H133   H     0.42353   0.00043   0.23368   0.00000  Uiso   1.00
H134   H     0.37352   0.32051   0.21214   0.00000  Uiso   1.00
H135   H     0.41475   0.33232   0.17421   0.00000  Uiso   1.00
H136   H     0.36381   0.06312   0.18378   0.00000  Uiso   1.00
H137   H     0.41566   0.07792   0.19454   0.00000  Uiso   1.00
H138   H     0.40273   0.07314   0.27895   0.00000  Uiso   1.00
H139   H     0.35861   0.04739   0.27136   0.00000  Uiso   1.00
H140   H     0.51455   0.29123   0.18133   0.00000  Uiso   1.00
H141   H     0.58605   0.29906   0.15895   0.00000  Uiso   1.00
H142   H     0.63845   0.29925   0.13961   0.00000  Uiso   1.00
H143   H     0.59955   0.26961   0.10827   0.00000  Uiso   1.00
H144   H     0.64349   0.21601   0.15191   0.00000  Uiso   1.00
H145   H     0.59056   0.21384   0.16841   0.00000  Uiso   1.00
H146   H     0.60630   0.26316   0.23509   0.00000  Uiso   1.00
H147   H     0.65605   0.27164   0.21453   0.00000  Uiso   1.00
H148   H     0.57647   0.00043   0.26632   0.00000  Uiso   1.00
H149   H     0.62647   0.32051   0.28787   0.00000  Uiso   1.00
H150   H     0.58523   0.33232   0.32580   0.00000  Uiso   1.00
H151   H     0.51514   0.04207   0.18143   0.00000  Uiso   1.00
H152   H     0.63618   0.06312   0.31623   0.00000  Uiso   1.00
H153   H     0.58433   0.07792   0.30547   0.00000  Uiso   1.00
H154   H     0.59727   0.07314   0.22105   0.00000  Uiso   1.00
H155   H     0.64139   0.04739   0.22866   0.00000  Uiso   1.00
H156   H     0.41399   0.29903   0.34108   0.00000  Uiso   1.00
H157   H     0.36158   0.29926   0.36040   0.00000  Uiso   1.00
H158   H     0.40045   0.26959   0.39176   0.00000  Uiso   1.00
H159   H     0.35652   0.21600   0.34811   0.00000  Uiso   1.00
H160   H     0.40946   0.21383   0.33161   0.00000  Uiso   1.00
H161   H     0.39370   0.26316   0.26493   0.00000  Uiso   1.00
H162   H     0.48545   0.29123   0.31867   0.00000  Uiso   1.00
H163   H     0.34395   0.27163   0.28550   0.00000  Uiso   1.00
H164   H     0.52626   0.23428   0.02955   0.00000  Uiso   1.00
H165   H     0.52631   0.09913   0.47055   0.00000  Uiso   1.00
H166   H     0.47409   0.23425   0.47054   0.00000  Uiso   1.00
H167   H     0.47428   0.09905   0.02936   0.00000  Uiso   1.00
H168   H     0.52546   0.23463   0.11069   0.00000  Uiso   1.00
N169   N     0.50000   0.28573   0.25000   0.00000  Uiso   1.00
N170   N     0.50000   0.04760   0.25000   0.00000  Uiso   1.00
O171   O     0.43892   0.20487   0.25000   0.00000  Uiso   1.00
O172   O     0.56108   0.12846   0.25001   0.00000  Uiso   1.00
O173   O     0.56108   0.20487   0.25001   0.00000  Uiso   1.00
O174   O     0.43892   0.12846   0.25000   0.00000  Uiso   1.00
O175   O     0.50000   0.20489   0.18453   0.00000  Uiso   1.00
O176   O     0.50000   0.12845   0.31547   0.00000  Uiso   1.00
O177   O     0.50000   0.20489   0.31547   0.00000  Uiso   1.00
O178   O     0.50000   0.12845   0.18453   0.00000  Uiso   1.00
Zn179  Zn    0.50000   0.21771   0.25000   0.00000  Uiso   1.00
Zn180  Zn    0.50000   0.11563   0.25000   0.00000  Uiso   1.00
C181   C     0.75322   0.16604   0.25289   0.00000  Uiso   1.00
C182   C     0.98023   0.20398   0.24155   0.00000  Uiso   1.00
C183   C     0.97856   0.12021   0.24738   0.00000  Uiso   1.00
C184   C     0.68644   0.20398   0.25847   0.00000  Uiso   1.00
C185   C     0.84792   0.20485   0.04711   0.00000  Uiso   1.00
C186   C     0.84789   0.12852   0.45294   0.00000  Uiso   1.00
C187   C     0.81911   0.20484   0.45294   0.00000  Uiso   1.00
C188   C     0.81927   0.12846   0.04701   0.00000  Uiso   1.00
C189   C     0.84760   0.20496   0.09311   0.00000  Uiso   1.00
C190   C     0.84755   0.12839   0.40695   0.00000  Uiso   1.00
C191   C     0.81926   0.20495   0.40694   0.00000  Uiso   1.00
C192   C     0.91345   0.16604   0.24711   0.00000  Uiso   1.00
C193   C     0.81944   0.12834   0.09300   0.00000  Uiso   1.00
C194   C     0.83348   0.16666   0.11602   0.00000  Uiso   1.00
C195   C     0.83335   0.16666   0.38398   0.00000  Uiso   1.00
C196   C     0.83361   0.16666   0.02406   0.00000  Uiso   1.00
C197   C     0.83355   0.16669   0.47594   0.00000  Uiso   1.00
C198   C     0.95786   0.16317   0.24384   0.00000  Uiso   1.00
C199   C     0.70880   0.16317   0.25618   0.00000  Uiso   1.00
C200   C     0.71042   0.07391   0.25481   0.00000  Uiso   1.00
C201   C     0.72285   0.05799   0.20758   0.00000  Uiso   1.00
C202   C     0.73452   0.00799   0.20695   0.00000  Uiso   1.00
C203   C     0.83336   0.16667   0.16388   0.00000  Uiso   1.00
C204   C     0.96471   0.24611   0.21692   0.00000  Uiso   1.00
C205   C     0.95192   0.23517   0.16877   0.00000  Uiso   1.00
C206   C     0.94345   0.27854   0.14236   0.00000  Uiso   1.00
C207   C     0.95625   0.07391   0.24521   0.00000  Uiso   1.00
C208   C     0.94381   0.05799   0.29243   0.00000  Uiso   1.00
C209   C     0.93214   0.00799   0.29306   0.00000  Uiso   1.00
C210   C     0.70196   0.24611   0.28311   0.00000  Uiso   1.00
C211   C     0.71476   0.23516   0.33125   0.00000  Uiso   1.00
C212   C     0.72324   0.27853   0.35767   0.00000  Uiso   1.00
C213   C     0.83333   0.16667   0.33612   0.00000  Uiso   1.00
C214   C     0.82498   0.02399   0.28811   0.00000  Uiso   1.00
C215   C     0.84150   0.30934   0.21186   0.00000  Uiso   1.00
C216   C     0.84169   0.02399   0.21189   0.00000  Uiso   1.00
C217   C     0.82517   0.30933   0.28815   0.00000  Uiso   1.00
C218   C     0.68811   0.12021   0.25264   0.00000  Uiso   1.00
H219   H     0.81819   0.04206   0.31857   0.00000  Uiso   1.00
H220   H     0.85889   0.09877   0.38940   0.00000  Uiso   1.00
H221   H     0.80795   0.23459   0.38939   0.00000  Uiso   1.00
H222   H     0.80810   0.09870   0.11051   0.00000  Uiso   1.00
H223   H     0.75686   0.00043   0.23368   0.00000  Uiso   1.00
H224   H     0.70685   0.32051   0.21214   0.00000  Uiso   1.00
H225   H     0.74809   0.33232   0.17421   0.00000  Uiso   1.00
H226   H     0.69714   0.06312   0.18378   0.00000  Uiso   1.00
H227   H     0.74899   0.07792   0.19454   0.00000  Uiso   1.00
H228   H     0.73607   0.07314   0.27895   0.00000  Uiso   1.00
H229   H     0.69195   0.04739   0.27136   0.00000  Uiso   1.00
H230   H     0.84789   0.29123   0.18133   0.00000  Uiso   1.00
H231   H     0.91938   0.29906   0.15895   0.00000  Uiso   1.00
H232   H     0.97178   0.29925   0.13961   0.00000  Uiso   1.00
H233   H     0.93288   0.26961   0.10827   0.00000  Uiso   1.00
H234   H     0.97683   0.21601   0.15191   0.00000  Uiso   1.00
H235   H     0.92389   0.21384   0.16841   0.00000  Uiso   1.00
H236   H     0.93964   0.26316   0.23509   0.00000  Uiso   1.00
H237   H     0.98939   0.27164   0.21453   0.00000  Uiso   1.00
H238   H     0.90980   0.00043   0.26632   0.00000  Uiso   1.00
H239   H     0.95981   0.32051   0.28787   0.00000  Uiso   1.00
H240   H     0.91856   0.33232   0.32580   0.00000  Uiso   1.00
H241   H     0.84848   0.04207   0.18143   0.00000  Uiso   1.00
H242   H     0.96951   0.06312   0.31623   0.00000  Uiso   1.00
H243   H     0.91767   0.07792   0.30547   0.00000  Uiso   1.00
H244   H     0.93061   0.07314   0.22105   0.00000  Uiso   1.00
H245   H     0.97472   0.04739   0.22866   0.00000  Uiso   1.00
H246   H     0.74732   0.29903   0.34108   0.00000  Uiso   1.00
H247   H     0.69491   0.29926   0.36040   0.00000  Uiso   1.00
H248   H     0.73379   0.26959   0.39176   0.00000  Uiso   1.00
H249   H     0.68986   0.21600   0.34811   0.00000  Uiso   1.00
H250   H     0.74279   0.21383   0.33161   0.00000  Uiso   1.00
H251   H     0.72703   0.26316   0.26493   0.00000  Uiso   1.00
H252   H     0.81878   0.29123   0.31867   0.00000  Uiso   1.00
H253   H     0.67728   0.27163   0.28550   0.00000  Uiso   1.00
H254   H     0.85959   0.23428   0.02955   0.00000  Uiso   1.00
H255   H     0.85965   0.09913   0.47055   0.00000  Uiso   1.00
H256   H     0.80742   0.23425   0.47054   0.00000  Uiso   1.00
H257   H     0.80761   0.09905   0.02936   0.00000  Uiso   1.00
H258   H     0.85879   0.23463   0.11069   0.00000  Uiso   1.00
N259   N     0.83333   0.28573   0.25000   0.00000  Uiso   1.00
N260   N     0.83333   0.04760   0.25000   0.00000  Uiso   1.00
O261   O     0.77226   0.20487   0.25000   0.00000  Uiso   1.00
O262   O     0.89441   0.12846   0.25001   0.00000  Uiso   1.00
O263   O     0.89441   0.20487   0.25001   0.00000  Uiso   1.00
O264   O     0.77226   0.12846   0.25000   0.00000  Uiso   1.00
O265   O     0.83333   0.20489   0.18453   0.00000  Uiso   1.00
O266   O     0.83334   0.12845   0.31547   0.00000  Uiso   1.00
O267   O     0.83334   0.20489   0.31547   0.00000  Uiso   1.00
O268   O     0.83333   0.12845   0.18453   0.00000  Uiso   1.00
Zn269  Zn    0.83333   0.21771   0.25000   0.00000  Uiso   1.00
Zn270  Zn    0.83333   0.11563   0.25000   0.00000  Uiso   1.00
C271   C     0.08655   0.49937   0.25289   0.00000  Uiso   1.00
C272   C     0.31356   0.53732   0.24155   0.00000  Uiso   1.00
C273   C     0.31189   0.45354   0.24738   0.00000  Uiso   1.00
C274   C     0.01978   0.53731   0.25847   0.00000  Uiso   1.00
C275   C     0.18125   0.53818   0.04711   0.00000  Uiso   1.00
C276   C     0.18122   0.46186   0.45294   0.00000  Uiso   1.00
C277   C     0.15244   0.53818   0.45294   0.00000  Uiso   1.00
C278   C     0.15261   0.46180   0.04701   0.00000  Uiso   1.00
C279   C     0.18093   0.53830   0.09311   0.00000  Uiso   1.00
C280   C     0.18088   0.46172   0.40695   0.00000  Uiso   1.00
C281   C     0.15259   0.53828   0.40694   0.00000  Uiso   1.00
C282   C     0.24678   0.49937   0.24711   0.00000  Uiso   1.00
C283   C     0.15278   0.46168   0.09300   0.00000  Uiso   1.00
C284   C     0.16681   0.49999   0.11602   0.00000  Uiso   1.00
C285   C     0.16668   0.49999   0.38398   0.00000  Uiso   1.00
C286   C     0.16694   0.50000   0.02406   0.00000  Uiso   1.00
C287   C     0.16689   0.50002   0.47594   0.00000  Uiso   1.00
C288   C     0.29120   0.49651   0.24384   0.00000  Uiso   1.00
C289   C     0.04214   0.49651   0.25618   0.00000  Uiso   1.00
C290   C     0.04375   0.40724   0.25481   0.00000  Uiso   1.00
C291   C     0.05618   0.39132   0.20758   0.00000  Uiso   1.00
C292   C     0.06785   0.34133   0.20695   0.00000  Uiso   1.00
C293   C     0.16669   0.50000   0.16388   0.00000  Uiso   1.00
C294   C     0.29804   0.57945   0.21692   0.00000  Uiso   1.00
C295   C     0.28525   0.56851   0.16877   0.00000  Uiso   1.00
C296   C     0.27678   0.61187   0.14236   0.00000  Uiso   1.00
C297   C     0.28958   0.40724   0.24521   0.00000  Uiso   1.00
C298   C     0.27714   0.39132   0.29243   0.00000  Uiso   1.00
C299   C     0.26547   0.34133   0.29306   0.00000  Uiso   1.00
C300   C     0.03530   0.57944   0.28311   0.00000  Uiso   1.00
C301   C     0.04810   0.56850   0.33125   0.00000  Uiso   1.00
C302   C     0.05657   0.61186   0.35767   0.00000  Uiso   1.00
C303   C     0.16666   0.50000   0.33612   0.00000  Uiso   1.00
C304   C     0.15832   0.35732   0.28811   0.00000  Uiso   1.00
C305   C     0.17483   0.64267   0.21186   0.00000  Uiso   1.00
C306   C     0.17502   0.35733   0.21189   0.00000  Uiso   1.00
C307   C     0.15850   0.64267   0.28815   0.00000  Uiso   1.00
C308   C     0.02144   0.45354   0.25264   0.00000  Uiso   1.00
H309   H     0.15153   0.37540   0.31857   0.00000  Uiso   1.00
H310   H     0.19222   0.43210   0.38940   0.00000  Uiso   1.00
H311   H     0.14128   0.56792   0.38939   0.00000  Uiso   1.00
H312   H     0.14143   0.43203   0.11051   0.00000  Uiso   1.00
H313   H     0.09020   0.33376   0.23368   0.00000  Uiso   1.00
H314   H     0.04018   0.65384   0.21214   0.00000  Uiso   1.00
H315   H     0.08142   0.66565   0.17421   0.00000  Uiso   1.00
H316   H     0.03047   0.39646   0.18378   0.00000  Uiso   1.00
H317   H     0.08233   0.41125   0.19454   0.00000  Uiso   1.00
H318   H     0.06940   0.40647   0.27895   0.00000  Uiso   1.00
H319   H     0.02528   0.38072   0.27136   0.00000  Uiso   1.00
H320   H     0.18122   0.62456   0.18133   0.00000  Uiso   1.00
H321   H     0.25271   0.63239   0.15895   0.00000  Uiso   1.00
H322   H     0.30512   0.63259   0.13961   0.00000  Uiso   1.00
H323   H     0.26622   0.60294   0.10827   0.00000  Uiso   1.00
H324   H     0.31016   0.54935   0.15191   0.00000  Uiso   1.00
H325   H     0.25723   0.54717   0.16841   0.00000  Uiso   1.00
H326   H     0.27297   0.59650   0.23509   0.00000  Uiso   1.00
H327   H     0.32272   0.60497   0.21453   0.00000  Uiso   1.00
H328   H     0.24314   0.33376   0.26632   0.00000  Uiso   1.00
H329   H     0.29314   0.65384   0.28787   0.00000  Uiso   1.00
H330   H     0.25190   0.66565   0.32580   0.00000  Uiso   1.00
H331   H     0.18181   0.37540   0.18143   0.00000  Uiso   1.00
H332   H     0.30285   0.39645   0.31623   0.00000  Uiso   1.00
H333   H     0.25100   0.41125   0.30547   0.00000  Uiso   1.00
H334   H     0.26394   0.40647   0.22105   0.00000  Uiso   1.00
H335   H     0.30805   0.38072   0.22866   0.00000  Uiso   1.00
H336   H     0.08066   0.63236   0.34108   0.00000  Uiso   1.00
H337   H     0.02824   0.63259   0.36040   0.00000  Uiso   1.00
H338   H     0.06712   0.60293   0.39176   0.00000  Uiso   1.00
H339   H     0.02319   0.54933   0.34811   0.00000  Uiso   1.00
H340   H     0.07612   0.54716   0.33161   0.00000  Uiso   1.00
H341   H     0.06037   0.59649   0.26493   0.00000  Uiso   1.00
H342   H     0.15212   0.62456   0.31867   0.00000  Uiso   1.00
H343   H     0.01062   0.60497   0.28550   0.00000  Uiso   1.00
H344   H     0.19293   0.56762   0.02955   0.00000  Uiso   1.00
H345   H     0.19298   0.43246   0.47055   0.00000  Uiso   1.00
H346   H     0.14076   0.56759   0.47054   0.00000  Uiso   1.00
H347   H     0.14094   0.43238   0.02936   0.00000  Uiso   1.00
H348   H     0.19213   0.56797   0.11069   0.00000  Uiso   1.00
N349   N     0.16667   0.61907   0.25000   0.00000  Uiso   1.00
N350   N     0.16667   0.38093   0.25000   0.00000  Uiso   1.00
O351   O     0.10559   0.53821   0.25000   0.00000  Uiso   1.00
O352   O     0.22774   0.46179   0.25001   0.00000  Uiso   1.00
O353   O     0.22774   0.53821   0.25001   0.00000  Uiso   1.00
O354   O     0.10559   0.46179   0.25000   0.00000  Uiso   1.00
O355   O     0.16666   0.53822   0.18453   0.00000  Uiso   1.00
O356   O     0.16667   0.46178   0.31547   0.00000  Uiso   1.00
O357   O     0.16667   0.53822   0.31547   0.00000  Uiso   1.00
O358   O     0.16666   0.46178   0.18453   0.00000  Uiso   1.00
Zn359  Zn    0.16667   0.55104   0.25000   0.00000  Uiso   1.00
Zn360  Zn    0.16667   0.44896   0.25000   0.00000  Uiso   1.00
C361   C     0.41988   0.49937   0.25289   0.00000  Uiso   1.00
C362   C     0.64689   0.53732   0.24155   0.00000  Uiso   1.00
C363   C     0.64522   0.45354   0.24738   0.00000  Uiso   1.00
C364   C     0.35311   0.53731   0.25847   0.00000  Uiso   1.00
C365   C     0.51459   0.53818   0.04711   0.00000  Uiso   1.00
C366   C     0.51456   0.46186   0.45294   0.00000  Uiso   1.00
C367   C     0.48577   0.53818   0.45294   0.00000  Uiso   1.00
C368   C     0.48594   0.46180   0.04701   0.00000  Uiso   1.00
C369   C     0.51427   0.53830   0.09311   0.00000  Uiso   1.00
C370   C     0.51422   0.46172   0.40695   0.00000  Uiso   1.00
C371   C     0.48592   0.53828   0.40694   0.00000  Uiso   1.00
C372   C     0.58012   0.49937   0.24711   0.00000  Uiso   1.00
C373   C     0.48611   0.46168   0.09300   0.00000  Uiso   1.00
C374   C     0.50014   0.49999   0.11602   0.00000  Uiso   1.00
C375   C     0.50002   0.49999   0.38398   0.00000  Uiso   1.00
C376   C     0.50027   0.50000   0.02406   0.00000  Uiso   1.00
C377   C     0.50022   0.50002   0.47594   0.00000  Uiso   1.00
C378   C     0.62453   0.49651   0.24384   0.00000  Uiso   1.00
C379   C     0.37547   0.49651   0.25618   0.00000  Uiso   1.00
C380   C     0.37708   0.40724   0.25481   0.00000  Uiso   1.00
C381   C     0.38952   0.39132   0.20758   0.00000  Uiso   1.00
C382   C     0.40119   0.34133   0.20695   0.00000  Uiso   1.00
C383   C     0.50002   0.50000   0.16388   0.00000  Uiso   1.00
C384   C     0.63138   0.57945   0.21692   0.00000  Uiso   1.00
C385   C     0.61858   0.56851   0.16877   0.00000  Uiso   1.00
C386   C     0.61012   0.61187   0.14236   0.00000  Uiso   1.00
C387   C     0.62292   0.40724   0.24521   0.00000  Uiso   1.00
C388   C     0.61048   0.39132   0.29243   0.00000  Uiso   1.00
C389   C     0.59881   0.34133   0.29306   0.00000  Uiso   1.00
C390   C     0.36863   0.57944   0.28311   0.00000  Uiso   1.00
C391   C     0.38143   0.56850   0.33125   0.00000  Uiso   1.00
C392   C     0.38990   0.61186   0.35767   0.00000  Uiso   1.00
C393   C     0.50000   0.50000   0.33612   0.00000  Uiso   1.00
C394   C     0.49165   0.35732   0.28811   0.00000  Uiso   1.00
C395   C     0.50817   0.64267   0.21186   0.00000  Uiso   1.00
C396   C     0.50835   0.35733   0.21189   0.00000  Uiso   1.00
C397   C     0.49184   0.64267   0.28815   0.00000  Uiso   1.00
C398   C     0.35478   0.45354   0.25264   0.00000  Uiso   1.00
H399   H     0.48486   0.37540   0.31857   0.00000  Uiso   1.00
H400   H     0.52555   0.43210   0.38940   0.00000  Uiso   1.00
H401   H     0.47461   0.56792   0.38939   0.00000  Uiso   1.00
H402   H     0.47477   0.43203   0.11051   0.00000  Uiso   1.00
H403   H     0.42353   0.33376   0.23368   0.00000  Uiso   1.00
H404   H     0.37352   0.65384   0.21214   0.00000  Uiso   1.00
H405   H     0.41475   0.66565   0.17421   0.00000  Uiso   1.00
H406   H     0.36381   0.39646   0.18378   0.00000  Uiso   1.00
H407   H     0.41566   0.41125   0.19454   0.00000  Uiso   1.00
H408   H     0.40273   0.40647   0.27895   0.00000  Uiso   1.00
H409   H     0.35861   0.38072   0.27136   0.00000  Uiso   1.00
H410   H     0.51455   0.62456   0.18133   0.00000  Uiso   1.00
H411   H     0.58605   0.63239   0.15895   0.00000  Uiso   1.00
H412   H     0.63845   0.63259   0.13961   0.00000  Uiso   1.00
H413   H     0.59955   0.60294   0.10827   0.00000  Uiso   1.00
H414   H     0.64349   0.54935   0.15191   0.00000  Uiso   1.00
H415   H     0.59056   0.54717   0.16841   0.00000  Uiso   1.00
H416   H     0.60630   0.59650   0.23509   0.00000  Uiso   1.00
H417   H     0.65605   0.60497   0.21453   0.00000  Uiso   1.00
H418   H     0.57647   0.33376   0.26632   0.00000  Uiso   1.00
H419   H     0.62647   0.65384   0.28787   0.00000  Uiso   1.00
H420   H     0.58523   0.66565   0.32580   0.00000  Uiso   1.00
H421   H     0.51514   0.37540   0.18143   0.00000  Uiso   1.00
H422   H     0.63618   0.39645   0.31623   0.00000  Uiso   1.00
H423   H     0.58433   0.41125   0.30547   0.00000  Uiso   1.00
H424   H     0.59727   0.40647   0.22105   0.00000  Uiso   1.00
H425   H     0.64139   0.38072   0.22866   0.00000  Uiso   1.00
H426   H     0.41399   0.63236   0.34108   0.00000  Uiso   1.00
H427   H     0.36158   0.63259   0.36040   0.00000  Uiso   1.00
H428   H     0.40045   0.60293   0.39176   0.00000  Uiso   1.00
H429   H     0.35652   0.54933   0.34811   0.00000  Uiso   1.00
H430   H     0.40946   0.54716   0.33161   0.00000  Uiso   1.00
H431   H     0.39370   0.59649   0.26493   0.00000  Uiso   1.00
H432   H     0.48545   0.62456   0.31867   0.00000  Uiso   1.00
H433   H     0.34395   0.60497   0.28550   0.00000  Uiso   1.00
H434   H     0.52626   0.56762   0.02955   0.00000  Uiso   1.00
H435   H     0.52631   0.43246   0.47055   0.00000  Uiso   1.00
H436   H     0.47409   0.56759   0.47054   0.00000  Uiso   1.00
H437   H     0.47428   0.43238   0.02936   0.00000  Uiso   1.00
H438   H     0.52546   0.56797   0.11069   0.00000  Uiso   1.00
N439   N     0.50000   0.61907   0.25000   0.00000  Uiso   1.00
N440   N     0.50000   0.38093   0.25000   0.00000  Uiso   1.00
O441   O     0.43892   0.53821   0.25000   0.00000  Uiso   1.00
O442   O     0.56108   0.46179   0.25001   0.00000  Uiso   1.00
O443   O     0.56108   0.53821   0.25001   0.00000  Uiso   1.00
O444   O     0.43892   0.46179   0.25000   0.00000  Uiso   1.00
O445   O     0.50000   0.53822   0.18453   0.00000  Uiso   1.00
O446   O     0.50000   0.46178   0.31547   0.00000  Uiso   1.00
O447   O     0.50000   0.53822   0.31547   0.00000  Uiso   1.00
O448   O     0.50000   0.46178   0.18453   0.00000  Uiso   1.00
Zn449  Zn    0.50000   0.55104   0.25000   0.00000  Uiso   1.00
Zn450  Zn    0.50000   0.44896   0.25000   0.00000  Uiso   1.00
C451   C     0.75322   0.49937   0.25289   0.00000  Uiso   1.00
C452   C     0.98023   0.53732   0.24155   0.00000  Uiso   1.00
C453   C     0.97856   0.45354   0.24738   0.00000  Uiso   1.00
C454   C     0.68644   0.53731   0.25847   0.00000  Uiso   1.00
C455   C     0.84792   0.53818   0.04711   0.00000  Uiso   1.00
C456   C     0.84789   0.46186   0.45294   0.00000  Uiso   1.00
C457   C     0.81911   0.53818   0.45294   0.00000  Uiso   1.00
C458   C     0.81927   0.46180   0.04701   0.00000  Uiso   1.00
C459   C     0.84760   0.53830   0.09311   0.00000  Uiso   1.00
C460   C     0.84755   0.46172   0.40695   0.00000  Uiso   1.00
C461   C     0.81926   0.53828   0.40694   0.00000  Uiso   1.00
C462   C     0.91345   0.49937   0.24711   0.00000  Uiso   1.00
C463   C     0.81944   0.46168   0.09300   0.00000  Uiso   1.00
C464   C     0.83348   0.49999   0.11602   0.00000  Uiso   1.00
C465   C     0.83335   0.49999   0.38398   0.00000  Uiso   1.00
C466   C     0.83361   0.50000   0.02406   0.00000  Uiso   1.00
C467   C     0.83355   0.50002   0.47594   0.00000  Uiso   1.00
C468   C     0.95786   0.49651   0.24384   0.00000  Uiso   1.00
C469   C     0.70880   0.49651   0.25618   0.00000  Uiso   1.00
C470   C     0.71042   0.40724   0.25481   0.00000  Uiso   1.00
C471   C     0.72285   0.39132   0.20758   0.00000  Uiso   1.00
C472   C     0.73452   0.34133   0.20695   0.00000  Uiso   1.00
C473   C     0.83336   0.50000   0.16388   0.00000  Uiso   1.00
C474   C     0.96471   0.57945   0.21692   0.00000  Uiso   1.00
C475   C     0.95192   0.56851   0.16877   0.00000  Uiso   1.00
C476   C     0.94345   0.61187   0.14236   0.00000  Uiso   1.00
C477   C     0.95625   0.40724   0.24521   0.00000  Uiso   1.00
C478   C     0.94381   0.39132   0.29243   0.00000  Uiso   1.00
C479   C     0.93214   0.34133   0.29306   0.00000  Uiso   1.00
C480   C     0.70196   0.57944   0.28311   0.00000  Uiso   1.00
C481   C     0.71476   0.56850   0.33125   0.00000  Uiso   1.00
C482   C     0.72324   0.61186   0.35767   0.00000  Uiso   1.00
C483   C     0.83333   0.50000   0.33612   0.00000  Uiso   1.00
C484   C     0.82498   0.35732   0.28811   0.00000  Uiso   1.00
C485   C     0.84150   0.64267   0.21186   0.00000  Uiso   1.00
C486   C     0.84169   0.35733   0.21189   0.00000  Uiso   1.00
C487   C     0.82517   0.64267   0.28815   0.00000  Uiso   1.00
C488   C     0.68811   0.45354   0.25264   0.00000  Uiso   1.00
H489   H     0.81819   0.37540   0.31857   0.00000  Uiso   1.00
H490   H     0.85889   0.43210   0.38940   0.00000  Uiso   1.00
H491   H     0.80795   0.56792   0.38939   0.00000  Uiso   1.00
H492   H     0.80810   0.43203   0.11051   0.00000  Uiso   1.00
H493   H     0.75686   0.33376   0.23368   0.00000  Uiso   1.00
H494   H     0.70685   0.65384   0.21214   0.00000  Uiso   1.00
H495   H     0.74809   0.66565   0.17421   0.00000  Uiso   1.00
H496   H     0.69714   0.39646   0.18378   0.00000  Uiso   1.00
H497   H     0.74899   0.41125   0.19454   0.00000  Uiso   1.00
H498   H     0.73607   0.40647   0.27895   0.00000  Uiso   1.00
H499   H     0.69195   0.38072   0.27136   0.00000  Uiso   1.00
H500   H     0.84789   0.62456   0.18133   0.00000  Uiso   1.00
H501   H     0.91938   0.63239   0.15895   0.00000  Uiso   1.00
H502   H     0.97178   0.63259   0.13961   0.00000  Uiso   1.00
H503   H     0.93288   0.60294   0.10827   0.00000  Uiso   1.00
H504   H     0.97683   0.54935   0.15191   0.00000  Uiso   1.00
H505   H     0.92389   0.54717   0.16841   0.00000  Uiso   1.00
H506   H     0.93964   0.59650   0.23509   0.00000  Uiso   1.00
H507   H     0.98939   0.60497   0.21453   0.00000  Uiso   1.00
H508   H     0.90980   0.33376   0.26632   0.00000  Uiso   1.00
H509   H     0.95981   0.65384   0.28787   0.00000  Uiso   1.00
H510   H     0.91856   0.66565   0.32580   0.00000  Uiso   1.00
H511   H     0.84848   0.37540   0.18143   0.00000  Uiso   1.00
H512   H     0.96951   0.39645   0.31623   0.00000  Uiso   1.00
H513   H     0.91767   0.41125   0.30547   0.00000  Uiso   1.00
H514   H     0.93061   0.40647   0.22105   0.00000  Uiso   1.00
H515   H     0.97472   0.38072   0.22866   0.00000  Uiso   1.00
H516   H     0.74732   0.63236   0.34108   0.00000  Uiso   1.00
H517   H     0.69491   0.63259   0.36040   0.00000  Uiso   1.00
H518   H     0.73379   0.60293   0.39176   0.00000  Uiso   1.00
H519   H     0.68986   0.54933   0.34811   0.00000  Uiso   1.00
H520   H     0.74279   0.54716   0.33161   0.00000  Uiso   1.00
H521   H     0.72703   0.59649   0.26493   0.00000  Uiso   1.00
H522   H     0.81878   0.62456   0.31867   0.00000  Uiso   1.00
H523   H     0.67728   0.60497   0.28550   0.00000  Uiso   1.00
H524   H     0.85959   0.56762   0.02955   0.00000  Uiso   1.00
H525   H     0.85965   0.43246   0.47055   0.00000  Uiso   1.00
H526   H     0.80742   0.56759   0.47054   0.00000  Uiso   1.00
H527   H     0.80761   0.43238   0.02936   0.00000  Uiso   1.00
H528   H     0.85879   0.56797   0.11069   0.00000  Uiso   1.00
N529   N     0.83333   0.61907   0.25000   0.00000  Uiso   1.00
N530   N     0.83333   0.38093   0.25000   0.00000  Uiso   1.00
O531   O     0.77226   0.53821   0.25000   0.00000  Uiso   1.00
O532   O     0.89441   0.46179   0.25001   0.00000  Uiso   1.00
O533   O     0.89441   0.53821   0.25001   0.00000  Uiso   1.00
O534   O     0.77226   0.46179   0.25000   0.00000  Uiso   1.00
O535   O     0.83333   0.53822   0.18453   0.00000  Uiso   1.00
O536   O     0.83334   0.46178   0.31547   0.00000  Uiso   1.00
O537   O     0.83334   0.53822   0.31547   0.00000  Uiso   1.00
O538   O     0.83333   0.46178   0.18453   0.00000  Uiso   1.00
Zn539  Zn    0.83333   0.55104   0.25000   0.00000  Uiso   1.00
Zn540  Zn    0.83333   0.44896   0.25000   0.00000  Uiso   1.00
C541   C     0.08655   0.83271   0.25289   0.00000  Uiso   1.00
C542   C     0.31356   0.87065   0.24155   0.00000  Uiso   1.00
C543   C     0.31189   0.78687   0.24738   0.00000  Uiso   1.00
C544   C     0.01978   0.87065   0.25847   0.00000  Uiso   1.00
C545   C     0.18125   0.87151   0.04711   0.00000  Uiso   1.00
C546   C     0.18122   0.79519   0.45294   0.00000  Uiso   1.00
C547   C     0.15244   0.87151   0.45294   0.00000  Uiso   1.00
C548   C     0.15261   0.79513   0.04701   0.00000  Uiso   1.00
C549   C     0.18093   0.87163   0.09311   0.00000  Uiso   1.00
C550   C     0.18088   0.79506   0.40695   0.00000  Uiso   1.00
C551   C     0.15259   0.87161   0.40694   0.00000  Uiso   1.00
C552   C     0.24678   0.83271   0.24711   0.00000  Uiso   1.00
C553   C     0.15278   0.79501   0.09300   0.00000  Uiso   1.00
C554   C     0.16681   0.83333   0.11602   0.00000  Uiso   1.00
C555   C     0.16668   0.83333   0.38398   0.00000  Uiso   1.00
C556   C     0.16694   0.83333   0.02406   0.00000  Uiso   1.00
C557   C     0.16689   0.83336   0.47594   0.00000  Uiso   1.00
C558   C     0.29120   0.82984   0.24384   0.00000  Uiso   1.00
C559   C     0.04214   0.82984   0.25618   0.00000  Uiso   1.00
C560   C     0.04375   0.74058   0.25481   0.00000  Uiso   1.00
C561   C     0.05618   0.72466   0.20758   0.00000  Uiso   1.00
C562   C     0.06785   0.67466   0.20695   0.00000  Uiso   1.00
C563   C     0.16669   0.83333   0.16388   0.00000  Uiso   1.00
C564   C     0.29804   0.91278   0.21692   0.00000  Uiso   1.00
C565   C     0.28525   0.90184   0.16877   0.00000  Uiso   1.00
C566   C     0.27678   0.94521   0.14236   0.00000  Uiso   1.00
C567   C     0.28958   0.74058   0.24521   0.00000  Uiso   1.00
C568   C     0.27714   0.72465   0.29243   0.00000  Uiso   1.00
C569   C     0.26547   0.67466   0.29306   0.00000  Uiso   1.00
C570   C     0.03530   0.91278   0.28311   0.00000  Uiso   1.00
C571   C     0.04810   0.90183   0.33125   0.00000  Uiso   1.00
C572   C     0.05657   0.94519   0.35767   0.00000  Uiso   1.00
C573   C     0.16666   0.83333   0.33612   0.00000  Uiso   1.00
C574   C     0.15832   0.69066   0.28811   0.00000  Uiso   1.00
C575   C     0.17483   0.97600   0.21186   0.00000  Uiso   1.00
C576   C     0.17502   0.69066   0.21189   0.00000  Uiso   1.00
C577   C     0.15850   0.97600   0.28815   0.00000  Uiso   1.00
C578   C     0.02144   0.78687   0.25264   0.00000  Uiso   1.00
H579   H     0.15153   0.70873   0.31857   0.00000  Uiso   1.00
H580   H     0.19222   0.76543   0.38940   0.00000  Uiso   1.00
H581   H     0.14128   0.90125   0.38939   0.00000  Uiso   1.00
H582   H     0.14143   0.76537   0.11051   0.00000  Uiso   1.00
H583   H     0.09020   0.66709   0.23368   0.00000  Uiso   1.00
H584   H     0.04018   0.98717   0.21214   0.00000  Uiso   1.00
H585   H     0.08142   0.99898   0.17421   0.00000  Uiso   1.00
H586   H     0.03047   0.72979   0.18378   0.00000  Uiso   1.00
H587   H     0.08233   0.74458   0.19454   0.00000  Uiso   1.00
H588   H     0.06940   0.73981   0.27895   0.00000  Uiso   1.00
H589   H     0.02528   0.71405   0.27136   0.00000  Uiso   1.00
H590   H     0.18122   0.95790   0.18133   0.00000  Uiso   1.00
H591   H     0.25271   0.96572   0.15895   0.00000  Uiso   1.00
H592   H     0.30512   0.96592   0.13961   0.00000  Uiso   1.00
H593   H     0.26622   0.93627   0.10827   0.00000  Uiso   1.00
H594   H     0.31016   0.88268   0.15191   0.00000  Uiso   1.00
H595   H     0.25723   0.88050   0.16841   0.00000  Uiso   1.00
H596   H     0.27297   0.92983   0.23509   0.00000  Uiso   1.00
H597   H     0.32272   0.93831   0.21453   0.00000  Uiso   1.00
H598   H     0.24314   0.66709   0.26632   0.00000  Uiso   1.00
H599   H     0.29314   0.98717   0.28787   0.00000  Uiso   1.00
H600   H     0.25190   0.99898   0.32580   0.00000  Uiso   1.00
H601   H     0.18181   0.70873   0.18143   0.00000  Uiso   1.00
H602   H     0.30285   0.72979   0.31623   0.00000  Uiso   1.00
H603   H     0.25100   0.74458   0.30547   0.00000  Uiso   1.00
H604   H     0.26394   0.73981   0.22105   0.00000  Uiso   1.00
H605   H     0.30805   0.71405   0.22866   0.00000  Uiso   1.00
H606   H     0.08066   0.96569   0.34108   0.00000  Uiso   1.00
H607   H     0.02824   0.96592   0.36040   0.00000  Uiso   1.00
H608   H     0.06712   0.93626   0.39176   0.00000  Uiso   1.00
H609   H     0.02319   0.88267   0.34811   0.00000  Uiso   1.00
H610   H     0.07612   0.88049   0.33161   0.00000  Uiso   1.00
H611   H     0.06037   0.92983   0.26493   0.00000  Uiso   1.00
H612   H     0.15212   0.95790   0.31867   0.00000  Uiso   1.00
H613   H     0.01062   0.93830   0.28550   0.00000  Uiso   1.00
H614   H     0.19293   0.90095   0.02955   0.00000  Uiso   1.00
H615   H     0.19298   0.76579   0.47055   0.00000  Uiso   1.00
H616   H     0.14076   0.90092   0.47054   0.00000  Uiso   1.00
H617   H     0.14094   0.76571   0.02936   0.00000  Uiso   1.00
H618   H     0.19213   0.90130   0.11069   0.00000  Uiso   1.00
N619   N     0.16667   0.95240   0.25000   0.00000  Uiso   1.00
N620   N     0.16667   0.71427   0.25000   0.00000  Uiso   1.00
O621   O     0.10559   0.87154   0.25000   0.00000  Uiso   1.00
O622   O     0.22774   0.79513   0.25001   0.00000  Uiso   1.00
O623   O     0.22774   0.87154   0.25001   0.00000  Uiso   1.00
O624   O     0.10559   0.79513   0.25000   0.00000  Uiso   1.00
O625   O     0.16666   0.87155   0.18453   0.00000  Uiso   1.00
O626   O     0.16667   0.79511   0.31547   0.00000  Uiso   1.00
O627   O     0.16667   0.87155   0.31547   0.00000  Uiso   1.00
O628   O     0.16666   0.79511   0.18453   0.00000  Uiso   1.00
Zn629  Zn    0.16667   0.88437   0.25000   0.00000  Uiso   1.00
Zn630  Zn    0.16667   0.78229   0.25000   0.00000  Uiso   1.00
C631   C     0.41988   0.83271   0.25289   0.00000  Uiso   1.00
C632   C     0.64689   0.87065   0.24155   0.00000  Uiso   1.00
C633   C     0.64522   0.78687   0.24738   0.00000  Uiso   1.00
C634   C     0.35311   0.87065   0.25847   0.00000  Uiso   1.00
C635   C     0.51459   0.87151   0.04711   0.00000  Uiso   1.00
C636   C     0.51456   0.79519   0.45294   0.00000  Uiso   1.00
C637   C     0.48577   0.87151   0.45294   0.00000  Uiso   1.00
C638   C     0.48594   0.79513   0.04701   0.00000  Uiso   1.00
C639   C     0.51427   0.87163   0.09311   0.00000  Uiso   1.00
C640   C     0.51422   0.79506   0.40695   0.00000  Uiso   1.00
C641   C     0.48592   0.87161   0.40694   0.00000  Uiso   1.00
C642   C     0.58012   0.83271   0.24711   0.00000  Uiso   1.00
C643   C     0.48611   0.79501   0.09300   0.00000  Uiso   1.00
C644   C     0.50014   0.83333   0.11602   0.00000  Uiso   1.00
C645   C     0.50002   0.83333   0.38398   0.00000  Uiso   1.00
C646   C     0.50027   0.83333   0.02406   0.00000  Uiso   1.00
C647   C     0.50022   0.83336   0.47594   0.00000  Uiso   1.00
C648   C     0.62453   0.82984   0.24384   0.00000  Uiso   1.00
C649   C     0.37547   0.82984   0.25618   0.00000  Uiso   1.00
C650   C     0.37708   0.74058   0.25481   0.00000  Uiso   1.00
C651   C     0.38952   0.72466   0.20758   0.00000  Uiso   1.00
C652   C     0.40119   0.67466   0.20695   0.00000  Uiso   1.00
C653   C     0.50002   0.83333   0.16388   0.00000  Uiso   1.00
C654   C     0.63138   0.91278   0.21692   0.00000  Uiso   1.00
C655   C     0.61858   0.90184   0.16877   0.00000  Uiso   1.00
C656   C     0.61012   0.94521   0.14236   0.00000  Uiso   1.00
C657   C     0.62292   0.74058   0.24521   0.00000  Uiso   1.00
C658   C     0.61048   0.72465   0.29243   0.00000  Uiso   1.00
C659   C     0.59881   0.67466   0.29306   0.00000  Uiso   1.00
C660   C     0.36863   0.91278   0.28311   0.00000  Uiso   1.00
C661   C     0.38143   0.90183   0.33125   0.00000  Uiso   1.00
C662   C     0.38990   0.94519   0.35767   0.00000  Uiso   1.00
C663   C     0.50000   0.83333   0.33612   0.00000  Uiso   1.00
C664   C     0.49165   0.69066   0.28811   0.00000  Uiso   1.00
C665   C     0.50817   0.97600   0.21186   0.00000  Uiso   1.00
C666   C     0.50835   0.69066   0.21189   0.00000  Uiso   1.00
C667   C     0.49184   0.97600   0.28815   0.00000  Uiso   1.00
C668   C     0.35478   0.78687   0.25264   0.00000  Uiso   1.00
H669   H     0.48486   0.70873   0.31857   0.00000  Uiso   1.00
H670   H     0.52555   0.76543   0.38940   0.00000  Uiso   1.00
H671   H     0.47461   0.90125   0.38939   0.00000  Uiso   1.00
H672   H     0.47477   0.76537   0.11051   0.00000  Uiso   1.00
H673   H     0.42353   0.66709   0.23368   0.00000  Uiso   1.00
H674   H     0.37352   0.98717   0.21214   0.00000  Uiso   1.00
H675   H     0.41475   0.99898   0.17421   0.00000  Uiso   1.00
H676   H     0.36381   0.72979   0.18378   0.00000  Uiso   1.00
H677   H     0.41566   0.74458   0.19454   0.00000  Uiso   1.00
H678   H     0.40273   0.73981   0.27895   0.00000  Uiso   1.00
H679   H     0.35861   0.71405   0.27136   0.00000  Uiso   1.00
H680   H     0.51455   0.95790   0.18133   0.00000  Uiso   1.00
H681   H     0.58605   0.96572   0.15895   0.00000  Uiso   1.00
H682   H     0.63845   0.96592   0.13961   0.00000  Uiso   1.00
H683   H     0.59955   0.93627   0.10827   0.00000  Uiso   1.00
H684   H     0.64349   0.88268   0.15191   0.00000  Uiso   1.00
H685   H     0.59056   0.88050   0.16841   0.00000  Uiso   1.00
H686   H     0.60630   0.92983   0.23509   0.00000  Uiso   1.00
H687   H     0.65605   0.93831   0.21453   0.00000  Uiso   1.00
H688   H     0.57647   0.66709   0.26632   0.00000  Uiso   1.00
H689   H     0.62647   0.98717   0.28787   0.00000  Uiso   1.00
H690   H     0.58523   0.99898   0.32580   0.00000  Uiso   1.00
H691   H     0.51514   0.70873   0.18143   0.00000  Uiso   1.00
H692   H     0.63618   0.72979   0.31623   0.00000  Uiso   1.00
H693   H     0.58433   0.74458   0.30547   0.00000  Uiso   1.00
H694   H     0.59727   0.73981   0.22105   0.00000  Uiso   1.00
H695   H     0.64139   0.71405   0.22866   0.00000  Uiso   1.00
H696   H     0.41399   0.96569   0.34108   0.00000  Uiso   1.00
H697   H     0.36158   0.96592   0.36040   0.00000  Uiso   1.00
H698   H     0.40045   0.93626   0.39176   0.00000  Uiso   1.00
H699   H     0.35652   0.88267   0.34811   0.00000  Uiso   1.00
H700   H     0.40946   0.88049   0.33161   0.00000  Uiso   1.00
H701   H     0.39370   0.92983   0.26493   0.00000  Uiso   1.00
H702   H     0.48545   0.95790   0.31867   0.00000  Uiso   1.00
H703   H     0.34395   0.93830   0.28550   0.00000  Uiso   1.00
H704   H     0.52626   0.90095   0.02955   0.00000  Uiso   1.00
H705   H     0.52631   0.76579   0.47055   0.00000  Uiso   1.00
H706   H     0.47409   0.90092   0.47054   0.00000  Uiso   1.00
H707   H     0.47428   0.76571   0.02936   0.00000  Uiso   1.00
H708   H     0.52546   0.90130   0.11069   0.00000  Uiso   1.00
N709   N     0.50000   0.95240   0.25000   0.00000  Uiso   1.00
N710   N     0.50000   0.71427   0.25000   0.00000  Uiso   1.00
O711   O     0.43892   0.87154   0.25000   0.00000  Uiso   1.00
O712   O     0.56108   0.79513   0.25001   0.00000  Uiso   1.00
O713   O     0.56108   0.87154   0.25001   0.00000  Uiso   1.00
O714   O     0.43892   0.79513   0.25000   0.00000  Uiso   1.00
O715   O     0.50000   0.87155   0.18453   0.00000  Uiso   1.00
O716   O     0.50000   0.79511   0.31547   0.00000  Uiso   1.00
O717   O     0.50000   0.87155   0.31547   0.00000  Uiso   1.00
O718   O     0.50000   0.79511   0.18453   0.00000  Uiso   1.00
Zn719  Zn    0.50000   0.88437   0.25000   0.00000  Uiso   1.00
Zn720  Zn    0.50000   0.78229   0.25000   0.00000  Uiso   1.00
C721   C     0.75322   0.83271   0.25289   0.00000  Uiso   1.00
C722   C     0.98023   0.87065   0.24155   0.00000  Uiso   1.00
C723   C     0.97856   0.78687   0.24738   0.00000  Uiso   1.00
C724   C     0.68644   0.87065   0.25847   0.00000  Uiso   1.00
C725   C     0.84792   0.87151   0.04711   0.00000  Uiso   1.00
C726   C     0.84789   0.79519   0.45294   0.00000  Uiso   1.00
C727   C     0.81911   0.87151   0.45294   0.00000  Uiso   1.00
C728   C     0.81927   0.79513   0.04701   0.00000  Uiso   1.00
C729   C     0.84760   0.87163   0.09311   0.00000  Uiso   1.00
C730   C     0.84755   0.79506   0.40695   0.00000  Uiso   1.00
C731   C     0.81926   0.87161   0.40694   0.00000  Uiso   1.00
C732   C     0.91345   0.83271   0.24711   0.00000  Uiso   1.00
C733   C     0.81944   0.79501   0.09300   0.00000  Uiso   1.00
C734   C     0.83348   0.83333   0.11602   0.00000  Uiso   1.00
C735   C     0.83335   0.83333   0.38398   0.00000  Uiso   1.00
C736   C     0.83361   0.83333   0.02406   0.00000  Uiso   1.00
C737   C     0.83355   0.83336   0.47594   0.00000  Uiso   1.00
C738   C     0.95786   0.82984   0.24384   0.00000  Uiso   1.00
C739   C     0.70880   0.82984   0.25618   0.00000  Uiso   1.00
C740   C     0.71042   0.74058   0.25481   0.00000  Uiso   1.00
C741   C     0.72285   0.72466   0.20758   0.00000  Uiso   1.00
C742   C     0.73452   0.67466   0.20695   0.00000  Uiso   1.00
C743   C     0.83336   0.83333   0.16388   0.00000  Uiso   1.00
C744   C     0.96471   0.91278   0.21692   0.00000  Uiso   1.00
C745   C     0.95192   0.90184   0.16877   0.00000  Uiso   1.00
C746   C     0.94345   0.94521   0.14236   0.00000  Uiso   1.00
C747   C     0.95625   0.74058   0.24521   0.00000  Uiso   1.00
C748   C     0.94381   0.72465   0.29243   0.00000  Uiso   1.00
C749   C     0.93214   0.67466   0.29306   0.00000  Uiso   1.00
C750   C     0.70196   0.91278   0.28311   0.00000  Uiso   1.00
C751   C     0.71476   0.90183   0.33125   0.00000  Uiso   1.00
C752   C     0.72324   0.94519   0.35767   0.00000  Uiso   1.00
C753   C     0.83333   0.83333   0.33612   0.00000  Uiso   1.00
C754   C     0.82498   0.69066   0.28811   0.00000  Uiso   1.00
C755   C     0.84150   0.97600   0.21186   0.00000  Uiso   1.00
C756   C     0.84169   0.69066   0.21189   0.00000  Uiso   1.00
C757   C     0.82517   0.97600   0.28815   0.00000  Uiso   1.00
C758   C     0.68811   0.78687   0.25264   0.00000  Uiso   1.00
H759   H     0.81819   0.70873   0.31857   0.00000  Uiso   1.00
H760   H     0.85889   0.76543   0.38940   0.00000  Uiso   1.00
H761   H     0.80795   0.90125   0.38939   0.00000  Uiso   1.00
H762   H     0.80810   0.76537   0.11051   0.00000  Uiso   1.00
H763   H     0.75686   0.66709   0.23368   0.00000  Uiso   1.00
H764   H     0.70685   0.98717   0.21214   0.00000  Uiso   1.00
H765   H     0.74809   0.99898   0.17421   0.00000  Uiso   1.00
H766   H     0.69714   0.72979   0.18378   0.00000  Uiso   1.00
H767   H     0.74899   0.74458   0.19454   0.00000  Uiso   1.00
H768   H     0.73607   0.73981   0.27895   0.00000  Uiso   1.00
H769   H     0.69195   0.71405   0.27136   0.00000  Uiso   1.00
H770   H     0.84789   0.95790   0.18133   0.00000  Uiso   1.00
H771   H     0.91938   0.96572   0.15895   0.00000  Uiso   1.00
H772   H     0.97178   0.96592   0.13961   0.00000  Uiso   1.00
H773   H     0.93288   0.93627   0.10827   0.00000  Uiso   1.00
H774   H     0.97683   0.88268   0.15191   0.00000  Uiso   1.00
H775   H     0.92389   0.88050   0.16841   0.00000  Uiso   1.00
H776   H     0.93964   0.92983   0.23509   0.00000  Uiso   1.00
H777   H     0.98939   0.93831   0.21453   0.00000  Uiso   1.00
H778   H     0.90980   0.66709   0.26632   0.00000  Uiso   1.00
H779   H     0.95981   0.98717   0.28787   0.00000  Uiso   1.00
H780   H     0.91856   0.99898   0.32580   0.00000  Uiso   1.00
H781   H     0.84848   0.70873   0.18143   0.00000  Uiso   1.00
H782   H     0.96951   0.72979   0.31623   0.00000  Uiso   1.00
H783   H     0.91767   0.74458   0.30547   0.00000  Uiso   1.00
H784   H     0.93061   0.73981   0.22105   0.00000  Uiso   1.00
H785   H     0.97472   0.71405   0.22866   0.00000  Uiso   1.00
H786   H     0.74732   0.96569   0.34108   0.00000  Uiso   1.00
H787   H     0.69491   0.96592   0.36040   0.00000  Uiso   1.00
H788   H     0.73379   0.93626   0.39176   0.00000  Uiso   1.00
H789   H     0.68986   0.88267   0.34811   0.00000  Uiso   1.00
H790   H     0.74279   0.88049   0.33161   0.00000  Uiso   1.00
H791   H     0.72703   0.92983   0.26493   0.00000  Uiso   1.00
H792   H     0.81878   0.95790   0.31867   0.00000  Uiso   1.00
H793   H     0.67728   0.93830   0.28550   0.00000  Uiso   1.00
H794   H     0.85959   0.90095   0.02955   0.00000  Uiso   1.00
H795   H     0.85965   0.76579   0.47055   0.00000  Uiso   1.00
H796   H     0.80742   0.90092   0.47054   0.00000  Uiso   1.00
H797   H     0.80761   0.76571   0.02936   0.00000  Uiso   1.00
H798   H     0.85879   0.90130   0.11069   0.00000  Uiso   1.00
N799   N     0.83333   0.95240   0.25000   0.00000  Uiso   1.00
N800   N     0.83333   0.71427   0.25000   0.00000  Uiso   1.00
O801   O     0.77226   0.87154   0.25000   0.00000  Uiso   1.00
O802   O     0.89441   0.79513   0.25001   0.00000  Uiso   1.00
O803   O     0.89441   0.87154   0.25001   0.00000  Uiso   1.00
O804   O     0.77226   0.79513   0.25000   0.00000  Uiso   1.00
O805   O     0.83333   0.87155   0.18453   0.00000  Uiso   1.00
O806   O     0.83334   0.79511   0.31547   0.00000  Uiso   1.00
O807   O     0.83334   0.87155   0.31547   0.00000  Uiso   1.00
O808   O     0.83333   0.79511   0.18453   0.00000  Uiso   1.00
Zn809  Zn    0.83333   0.88437   0.25000   0.00000  Uiso   1.00
Zn810  Zn    0.83333   0.78229   0.25000   0.00000  Uiso   1.00
C811   C     0.08655   0.16604   0.75289   0.00000  Uiso   1.00
C812   C     0.31356   0.20398   0.74155   0.00000  Uiso   1.00
C813   C     0.31189   0.12021   0.74738   0.00000  Uiso   1.00
C814   C     0.01978   0.20398   0.75847   0.00000  Uiso   1.00
C815   C     0.18125   0.20485   0.54711   0.00000  Uiso   1.00
C816   C     0.18122   0.12852   0.95294   0.00000  Uiso   1.00
C817   C     0.15244   0.20484   0.95294   0.00000  Uiso   1.00
C818   C     0.15261   0.12846   0.54701   0.00000  Uiso   1.00
C819   C     0.18093   0.20496   0.59311   0.00000  Uiso   1.00
C820   C     0.18088   0.12839   0.90695   0.00000  Uiso   1.00
C821   C     0.15259   0.20495   0.90694   0.00000  Uiso   1.00
C822   C     0.24678   0.16604   0.74711   0.00000  Uiso   1.00
C823   C     0.15278   0.12834   0.59300   0.00000  Uiso   1.00
C824   C     0.16681   0.16666   0.61602   0.00000  Uiso   1.00
C825   C     0.16668   0.16666   0.88398   0.00000  Uiso   1.00
C826   C     0.16694   0.16666   0.52406   0.00000  Uiso   1.00
C827   C     0.16689   0.16669   0.97594   0.00000  Uiso   1.00
C828   C     0.29120   0.16317   0.74384   0.00000  Uiso   1.00
C829   C     0.04214   0.16317   0.75618   0.00000  Uiso   1.00
C830   C     0.04375   0.07391   0.75481   0.00000  Uiso   1.00
C831   C     0.05618   0.05799   0.70758   0.00000  Uiso   1.00
C832   C     0.06785   0.00799   0.70695   0.00000  Uiso   1.00
C833   C     0.16669   0.16667   0.66388   0.00000  Uiso   1.00
C834   C     0.29804   0.24611   0.71692   0.00000  Uiso   1.00
C835   C     0.28525   0.23517   0.66877   0.00000  Uiso   1.00
C836   C     0.27678   0.27854   0.64236   0.00000  Uiso   1.00
C837   C     0.28958   0.07391   0.74521   0.00000  Uiso   1.00
C838   C     0.27714   0.05799   0.79243   0.00000  Uiso   1.00
C839   C     0.26547   0.00799   0.79306   0.00000  Uiso   1.00
C840   C     0.03530   0.24611   0.78311   0.00000  Uiso   1.00
C841   C     0.04810   0.23516   0.83125   0.00000  Uiso   1.00
C842   C     0.05657   0.27853   0.85767   0.00000  Uiso   1.00
C843   C     0.16666   0.16667   0.83612   0.00000  Uiso   1.00
C844   C     0.15832   0.02399   0.78811   0.00000  Uiso   1.00
C845   C     0.17483   0.30934   0.71186   0.00000  Uiso   1.00
C846   C     0.17502   0.02399   0.71189   0.00000  Uiso   1.00
C847   C     0.15850   0.30933   0.78815   0.00000  Uiso   1.00
C848   C     0.02144   0.12021   0.75264   0.00000  Uiso   1.00
H849   H     0.15153   0.04206   0.81857   0.00000  Uiso   1.00
H850   H     0.19222   0.09877   0.88940   0.00000  Uiso   1.00
H851   H     0.14128   0.23459   0.88939   0.00000  Uiso   1.00
H852   H     0.14143   0.09870   0.61051   0.00000  Uiso   1.00
H853   H     0.09020   0.00043   0.73368   0.00000  Uiso   1.00
H854   H     0.04018   0.32051   0.71214   0.00000  Uiso   1.00
H855   H     0.08142   0.33232   0.67421   0.00000  Uiso   1.00
H856   H     0.03047   0.06312   0.68378   0.00000  Uiso   1.00
H857   H     0.08233   0.07792   0.69454   0.00000  Uiso   1.00
H858   H     0.06940   0.07314   0.77895   0.00000  Uiso   1.00
H859   H     0.02528   0.04739   0.77136   0.00000  Uiso   1.00
H860   H     0.18122   0.29123   0.68133   0.00000  Uiso   1.00
H861   H     0.25271   0.29906   0.65895   0.00000  Uiso   1.00
H862   H     0.30512   0.29925   0.63961   0.00000  Uiso   1.00
H863   H     0.26622   0.26961   0.60827   0.00000  Uiso   1.00
H864   H     0.31016   0.21601   0.65191   0.00000  Uiso   1.00
H865   H     0.25723   0.21384   0.66841   0.00000  Uiso   1.00
H866   H     0.27297   0.26316   0.73509   0.00000  Uiso   1.00
H867   H     0.32272   0.27164   0.71453   0.00000  Uiso   1.00
H868   H     0.24314   0.00043   0.76632   0.00000  Uiso   1.00
H869   H     0.29314   0.32051   0.78787   0.00000  Uiso   1.00
H870   H     0.25190   0.33232   0.82580   0.00000  Uiso   1.00
H871   H     0.18181   0.04207   0.68143   0.00000  Uiso   1.00
H872   H     0.30285   0.06312   0.81623   0.00000  Uiso   1.00
H873   H     0.25100   0.07792   0.80547   0.00000  Uiso   1.00
H874   H     0.26394   0.07314   0.72105   0.00000  Uiso   1.00
H875   H     0.30805   0.04739   0.72866   0.00000  Uiso   1.00
H876   H     0.08066   0.29903   0.84108   0.00000  Uiso   1.00
H877   H     0.02824   0.29926   0.86040   0.00000  Uiso   1.00
H878   H     0.06712   0.26959   0.89176   0.00000  Uiso   1.00
H879   H     0.02319   0.21600   0.84811   0.00000  Uiso   1.00
H880   H     0.07612   0.21383   0.83161   0.00000  Uiso   1.00
H881   H     0.06037   0.26316   0.76493   0.00000  Uiso   1.00
H882   H     0.15212   0.29123   0.81867   0.00000  Uiso   1.00
H883   H     0.01062   0.27163   0.78550   0.00000  Uiso   1.00
H884   H     0.19293   0.23428   0.52955   0.00000  Uiso   1.00
H885   H     0.19298   0.09913   0.97055   0.00000  Uiso   1.00
H886   H     0.14076   0.23425   0.97054   0.00000  Uiso   1.00
H887   H     0.14094   0.09905   0.52936   0.00000  Uiso   1.00
H888   H     0.19213   0.23463   0.61069   0.00000  Uiso   1.00
N889   N     0.16667   0.28573   0.75000   0.00000  Uiso   1.00
N890   N     0.16667   0.04760   0.75000   0.00000  Uiso   1.00
O891   O     0.10559   0.20487   0.75000   0.00000  Uiso   1.00
O892   O     0.22774   0.12846   0.75001   0.00000  Uiso   1.00
O893   O     0.22774   0.20487   0.75001   0.00000  Uiso   1.00
O894   O     0.10559   0.12846   0.75000   0.00000  Uiso   1.00
O895   O     0.16666   0.20489   0.68453   0.00000  Uiso   1.00
O896   O     0.16667   0.12845   0.81547   0.00000  Uiso   1.00
O897   O     0.16667   0.20489   0.81547   0.00000  Uiso   1.00
O898   O     0.16666   0.12845   0.68453   0.00000  Uiso   1.00
Zn899  Zn    0.16667   0.21771   0.75000   0.00000  Uiso   1.00
Zn900  Zn    0.16667   0.11563   0.75000   0.00000  Uiso   1.00
C901   C     0.41988   0.16604   0.75289   0.00000  Uiso   1.00
C902   C     0.64689   0.20398   0.74155   0.00000  Uiso   1.00
C903   C     0.64522   0.12021   0.74738   0.00000  Uiso   1.00
C904   C     0.35311   0.20398   0.75847   0.00000  Uiso   1.00
C905   C     0.51459   0.20485   0.54711   0.00000  Uiso   1.00
C906   C     0.51456   0.12852   0.95294   0.00000  Uiso   1.00
C907   C     0.48577   0.20484   0.95294   0.00000  Uiso   1.00
C908   C     0.48594   0.12846   0.54701   0.00000  Uiso   1.00
C909   C     0.51427   0.20496   0.59311   0.00000  Uiso   1.00
C910   C     0.51422   0.12839   0.90695   0.00000  Uiso   1.00
C911   C     0.48592   0.20495   0.90694   0.00000  Uiso   1.00
C912   C     0.58012   0.16604   0.74711   0.00000  Uiso   1.00
C913   C     0.48611   0.12834   0.59300   0.00000  Uiso   1.00
C914   C     0.50014   0.16666   0.61602   0.00000  Uiso   1.00
C915   C     0.50002   0.16666   0.88398   0.00000  Uiso   1.00
C916   C     0.50027   0.16666   0.52406   0.00000  Uiso   1.00
C917   C     0.50022   0.16669   0.97594   0.00000  Uiso   1.00
C918   C     0.62453   0.16317   0.74384   0.00000  Uiso   1.00
C919   C     0.37547   0.16317   0.75618   0.00000  Uiso   1.00
C920   C     0.37708   0.07391   0.75481   0.00000  Uiso   1.00
C921   C     0.38952   0.05799   0.70758   0.00000  Uiso   1.00
C922   C     0.40119   0.00799   0.70695   0.00000  Uiso   1.00
C923   C     0.50002   0.16667   0.66388   0.00000  Uiso   1.00
C924   C     0.63138   0.24611   0.71692   0.00000  Uiso   1.00
C925   C     0.61858   0.23517   0.66877   0.00000  Uiso   1.00
C926   C     0.61012   0.27854   0.64236   0.00000  Uiso   1.00
C927   C     0.62292   0.07391   0.74521   0.00000  Uiso   1.00
C928   C     0.61048   0.05799   0.79243   0.00000  Uiso   1.00
C929   C     0.59881   0.00799   0.79306   0.00000  Uiso   1.00
C930   C     0.36863   0.24611   0.78311   0.00000  Uiso   1.00
C931   C     0.38143   0.23516   0.83125   0.00000  Uiso   1.00
C932   C     0.38990   0.27853   0.85767   0.00000  Uiso   1.00
C933   C     0.50000   0.16667   0.83612   0.00000  Uiso   1.00
C934   C     0.49165   0.02399   0.78811   0.00000  Uiso   1.00
C935   C     0.50817   0.30934   0.71186   0.00000  Uiso   1.00
C936   C     0.50835   0.02399   0.71189   0.00000  Uiso   1.00
C937   C     0.49184   0.30933   0.78815   0.00000  Uiso   1.00
C938   C     0.35478   0.12021   0.75264   0.00000  Uiso   1.00
H939   H     0.48486   0.04206   0.81857   0.00000  Uiso   1.00
H940   H     0.52555   0.09877   0.88940   0.00000  Uiso   1.00
H941   H     0.47461   0.23459   0.88939   0.00000  Uiso   1.00
H942   H     0.47477   0.09870   0.61051   0.00000  Uiso   1.00
H943   H     0.42353   0.00043   0.73368   0.00000  Uiso   1.00
H944   H     0.37352   0.32051   0.71214   0.00000  Uiso   1.00
H945   H     0.41475   0.33232   0.67421   0.00000  Uiso   1.00
H946   H     0.36381   0.06312   0.68378   0.00000  Uiso   1.00
H947   H     0.41566   0.07792   0.69454   0.00000  Uiso   1.00
H948   H     0.40273   0.07314   0.77895   0.00000  Uiso   1.00
H949   H     0.35861   0.04739   0.77136   0.00000  Uiso   1.00
H950   H     0.51455   0.29123   0.68133   0.00000  Uiso   1.00
H951   H     0.58605   0.29906   0.65895   0.00000  Uiso   1.00
H952   H     0.63845   0.29925   0.63961   0.00000  Uiso   1.00
H953   H     0.59955   0.26961   0.60827   0.00000  Uiso   1.00
H954   H     0.64349   0.21601   0.65191   0.00000  Uiso   1.00
H955   H     0.59056   0.21384   0.66841   0.00000  Uiso   1.00
H956   H     0.60630   0.26316   0.73509   0.00000  Uiso   1.00
H957   H     0.65605   0.27164   0.71453   0.00000  Uiso   1.00
H958   H     0.57647   0.00043   0.76632   0.00000  Uiso   1.00
H959   H     0.62647   0.32051   0.78787   0.00000  Uiso   1.00
H960   H     0.58523   0.33232   0.82580   0.00000  Uiso   1.00
H961   H     0.51514   0.04207   0.68143   0.00000  Uiso   1.00
H962   H     0.63618   0.06312   0.81623   0.00000  Uiso   1.00
H963   H     0.58433   0.07792   0.80547   0.00000  Uiso   1.00
H964   H     0.59727   0.07314   0.72105   0.00000  Uiso   1.00
H965   H     0.64139   0.04739   0.72866   0.00000  Uiso   1.00
H966   H     0.41399   0.29903   0.84108   0.00000  Uiso   1.00
H967   H     0.36158   0.29926   0.86040   0.00000  Uiso   1.00
H968   H     0.40045   0.26959   0.89176   0.00000  Uiso   1.00
H969   H     0.35652   0.21600   0.84811   0.00000  Uiso   1.00
H970   H     0.40946   0.21383   0.83161   0.00000  Uiso   1.00
H971   H     0.39370   0.26316   0.76493   0.00000  Uiso   1.00
H972   H     0.48545   0.29123   0.81867   0.00000  Uiso   1.00
H973   H     0.34395   0.27163   0.78550   0.00000  Uiso   1.00
H974   H     0.52626   0.23428   0.52955   0.00000  Uiso   1.00
H975   H     0.52631   0.09913   0.97055   0.00000  Uiso   1.00
H976   H     0.47409   0.23425   0.97054   0.00000  Uiso   1.00
H977   H     0.47428   0.09905   0.52936   0.00000  Uiso   1.00
H978   H     0.52546   0.23463   0.61069   0.00000  Uiso   1.00
N979   N     0.50000   0.28573   0.75000   0.00000  Uiso   1.00
N980   N     0.50000   0.04760   0.75000   0.00000  Uiso   1.00
O981   O     0.43892   0.20487   0.75000   0.00000  Uiso   1.00
O982   O     0.56108   0.12846   0.75001   0.00000  Uiso   1.00
O983   O     0.56108   0.20487   0.75001   0.00000  Uiso   1.00
O984   O     0.43892   0.12846   0.75000   0.00000  Uiso   1.00
O985   O     0.50000   0.20489   0.68453   0.00000  Uiso   1.00
O986   O     0.50000   0.12845   0.81547   0.00000  Uiso   1.00
O987   O     0.50000   0.20489   0.81547   0.00000  Uiso   1.00
O988   O     0.50000   0.12845   0.68453   0.00000  Uiso   1.00
Zn989  Zn    0.50000   0.21771   0.75000   0.00000  Uiso   1.00
Zn990  Zn    0.50000   0.11563   0.75000   0.00000  Uiso   1.00
C991   C     0.75322   0.16604   0.75289   0.00000  Uiso   1.00
C992   C     0.98023   0.20398   0.74155   0.00000  Uiso   1.00
C993   C     0.97856   0.12021   0.74738   0.00000  Uiso   1.00
C994   C     0.68644   0.20398   0.75847   0.00000  Uiso   1.00
C995   C     0.84792   0.20485   0.54711   0.00000  Uiso   1.00
C996   C     0.84789   0.12852   0.95294   0.00000  Uiso   1.00
C997   C     0.81911   0.20484   0.95294   0.00000  Uiso   1.00
C998   C     0.81927   0.12846   0.54701   0.00000  Uiso   1.00
C999   C     0.84760   0.20496   0.59311   0.00000  Uiso   1.00
C1000  C     0.84755   0.12839   0.90695   0.00000  Uiso   1.00
C1001  C     0.81926   0.20495   0.90694   0.00000  Uiso   1.00
C1002  C     0.91345   0.16604   0.74711   0.00000  Uiso   1.00
C1003  C     0.81944   0.12834   0.59300   0.00000  Uiso   1.00
C1004  C     0.83348   0.16666   0.61602   0.00000  Uiso   1.00
C1005  C     0.83335   0.16666   0.88398   0.00000  Uiso   1.00
C1006  C     0.83361   0.16666   0.52406   0.00000  Uiso   1.00
C1007  C     0.83355   0.16669   0.97594   0.00000  Uiso   1.00
C1008  C     0.95786   0.16317   0.74384   0.00000  Uiso   1.00
C1009  C     0.70880   0.16317   0.75618   0.00000  Uiso   1.00
C1010  C     0.71042   0.07391   0.75481   0.00000  Uiso   1.00
C1011  C     0.72285   0.05799   0.70758   0.00000  Uiso   1.00
C1012  C     0.73452   0.00799   0.70695   0.00000  Uiso   1.00
C1013  C     0.83336   0.16667   0.66388   0.00000  Uiso   1.00
C1014  C     0.96471   0.24611   0.71692   0.00000  Uiso   1.00
C1015  C     0.95192   0.23517   0.66877   0.00000  Uiso   1.00
C1016  C     0.94345   0.27854   0.64236   0.00000  Uiso   1.00
C1017  C     0.95625   0.07391   0.74521   0.00000  Uiso   1.00
C1018  C     0.94381   0.05799   0.79243   0.00000  Uiso   1.00
C1019  C     0.93214   0.00799   0.79306   0.00000  Uiso   1.00
C1020  C     0.70196   0.24611   0.78311   0.00000  Uiso   1.00
C1021  C     0.71476   0.23516   0.83125   0.00000  Uiso   1.00
C1022  C     0.72324   0.27853   0.85767   0.00000  Uiso   1.00
C1023  C     0.83333   0.16667   0.83612   0.00000  Uiso   1.00
C1024  C     0.82498   0.02399   0.78811   0.00000  Uiso   1.00
C1025  C     0.84150   0.30934   0.71186   0.00000  Uiso   1.00
C1026  C     0.84169   0.02399   0.71189   0.00000  Uiso   1.00
C1027  C     0.82517   0.30933   0.78815   0.00000  Uiso   1.00
C1028  C     0.68811   0.12021   0.75264   0.00000  Uiso   1.00
H1029  H     0.81819   0.04206   0.81857   0.00000  Uiso   1.00
H1030  H     0.85889   0.09877   0.88940   0.00000  Uiso   1.00
H1031  H     0.80795   0.23459   0.88939   0.00000  Uiso   1.00
H1032  H     0.80810   0.09870   0.61051   0.00000  Uiso   1.00
H1033  H     0.75686   0.00043   0.73368   0.00000  Uiso   1.00
H1034  H     0.70685   0.32051   0.71214   0.00000  Uiso   1.00
H1035  H     0.74809   0.33232   0.67421   0.00000  Uiso   1.00
H1036  H     0.69714   0.06312   0.68378   0.00000  Uiso   1.00
H1037  H     0.74899   0.07792   0.69454   0.00000  Uiso   1.00
H1038  H     0.73607   0.07314   0.77895   0.00000  Uiso   1.00
H1039  H     0.69195   0.04739   0.77136   0.00000  Uiso   1.00
H1040  H     0.84789   0.29123   0.68133   0.00000  Uiso   1.00
H1041  H     0.91938   0.29906   0.65895   0.00000  Uiso   1.00
H1042  H     0.97178   0.29925   0.63961   0.00000  Uiso   1.00
H1043  H     0.93288   0.26961   0.60827   0.00000  Uiso   1.00
H1044  H     0.97683   0.21601   0.65191   0.00000  Uiso   1.00
H1045  H     0.92389   0.21384   0.66841   0.00000  Uiso   1.00
H1046  H     0.93964   0.26316   0.73509   0.00000  Uiso   1.00
H1047  H     0.98939   0.27164   0.71453   0.00000  Uiso   1.00
H1048  H     0.90980   0.00043   0.76632   0.00000  Uiso   1.00
H1049  H     0.95981   0.32051   0.78787   0.00000  Uiso   1.00
H1050  H     0.91856   0.33232   0.82580   0.00000  Uiso   1.00
H1051  H     0.84848   0.04207   0.68143   0.00000  Uiso   1.00
H1052  H     0.96951   0.06312   0.81623   0.00000  Uiso   1.00
H1053  H     0.91767   0.07792   0.80547   0.00000  Uiso   1.00
H1054  H     0.93061   0.07314   0.72105   0.00000  Uiso   1.00
H1055  H     0.97472   0.04739   0.72866   0.00000  Uiso   1.00
H1056  H     0.74732   0.29903   0.84108   0.00000  Uiso   1.00
H1057  H     0.69491   0.29926   0.86040   0.00000  Uiso   1.00
H1058  H     0.73379   0.26959   0.89176   0.00000  Uiso   1.00
H1059  H     0.68986   0.21600   0.84811   0.00000  Uiso   1.00
H1060  H     0.74279   0.21383   0.83161   0.00000  Uiso   1.00
H1061  H     0.72703   0.26316   0.76493   0.00000  Uiso   1.00
H1062  H     0.81878   0.29123   0.81867   0.00000  Uiso   1.00
H1063  H     0.67728   0.27163   0.78550   0.00000  Uiso   1.00
H1064  H     0.85959   0.23428   0.52955   0.00000  Uiso   1.00
H1065  H     0.85965   0.09913   0.97055   0.00000  Uiso   1.00
H1066  H     0.80742   0.23425   0.97054   0.00000  Uiso   1.00
H1067  H     0.80761   0.09905   0.52936   0.00000  Uiso   1.00
H1068  H     0.85879   0.23463   0.61069   0.00000  Uiso   1.00
N1069  N     0.83333   0.28573   0.75000   0.00000  Uiso   1.00
N1070  N     0.83333   0.04760   0.75000   0.00000  Uiso   1.00
O1071  O     0.77226   0.20487   0.75000   0.00000  Uiso   1.00
O1072  O     0.89441   0.12846   0.75001   0.00000  Uiso   1.00
O1073  O     0.89441   0.20487   0.75001   0.00000  Uiso   1.00
O1074  O     0.77226   0.12846   0.75000   0.00000  Uiso   1.00
O1075  O     0.83333   0.20489   0.68453   0.00000  Uiso   1.00
O1076  O     0.83334   0.12845   0.81547   0.00000  Uiso   1.00
O1077  O     0.83334   0.20489   0.81547   0.00000  Uiso   1.00
O1078  O     0.83333   0.12845   0.68453   0.00000  Uiso   1.00
Zn1079 Zn    0.83333   0.21771   0.75000   0.00000  Uiso   1.00
Zn1080 Zn    0.83333   0.11563   0.75000   0.00000  Uiso   1.00
C1081  C     0.08655   0.49937   0.75289   0.00000  Uiso   1.00
C1082  C     0.31356   0.53732   0.74155   0.00000  Uiso   1.00
C1083  C     0.31189   0.45354   0.74738   0.00000  Uiso   1.00
C1084  C     0.01978   0.53731   0.75847   0.00000  Uiso   1.00
C1085  C     0.18125   0.53818   0.54711   0.00000  Uiso   1.00
C1086  C     0.18122   0.46186   0.95294   0.00000  Uiso   1.00
C1087  C     0.15244   0.53818   0.95294   0.00000  Uiso   1.00
C1088  C     0.15261   0.46180   0.54701   0.00000  Uiso   1.00
C1089  C     0.18093   0.53830   0.59311   0.00000  Uiso   1.00
C1090  C     0.18088   0.46172   0.90695   0.00000  Uiso   1.00
C1091  C     0.15259   0.53828   0.90694   0.00000  Uiso   1.00
C1092  C     0.24678   0.49937   0.74711   0.00000  Uiso   1.00
C1093  C     0.15278   0.46168   0.59300   0.00000  Uiso   1.00
C1094  C     0.16681   0.49999   0.61602   0.00000  Uiso   1.00
C1095  C     0.16668   0.49999   0.88398   0.00000  Uiso   1.00
C1096  C     0.16694   0.50000   0.52406   0.00000  Uiso   1.00
C1097  C     0.16689   0.50002   0.97594   0.00000  Uiso   1.00
C1098  C     0.29120   0.49651   0.74384   0.00000  Uiso   1.00
C1099  C     0.04214   0.49651   0.75618   0.00000  Uiso   1.00
C1100  C     0.04375   0.40724   0.75481   0.00000  Uiso   1.00
C1101  C     0.05618   0.39132   0.70758   0.00000  Uiso   1.00
C1102  C     0.06785   0.34133   0.70695   0.00000  Uiso   1.00
C1103  C     0.16669   0.50000   0.66388   0.00000  Uiso   1.00
C1104  C     0.29804   0.57945   0.71692   0.00000  Uiso   1.00
C1105  C     0.28525   0.56851   0.66877   0.00000  Uiso   1.00
C1106  C     0.27678   0.61187   0.64236   0.00000  Uiso   1.00
C1107  C     0.28958   0.40724   0.74521   0.00000  Uiso   1.00
C1108  C     0.27714   0.39132   0.79243   0.00000  Uiso   1.00
C1109  C     0.26547   0.34133   0.79306   0.00000  Uiso   1.00
C1110  C     0.03530   0.57944   0.78311   0.00000  Uiso   1.00
C1111  C     0.04810   0.56850   0.83125   0.00000  Uiso   1.00
C1112  C     0.05657   0.61186   0.85767   0.00000  Uiso   1.00
C1113  C     0.16666   0.50000   0.83612   0.00000  Uiso   1.00
C1114  C     0.15832   0.35732   0.78811   0.00000  Uiso   1.00
C1115  C     0.17483   0.64267   0.71186   0.00000  Uiso   1.00
C1116  C     0.17502   0.35733   0.71189   0.00000  Uiso   1.00
C1117  C     0.15850   0.64267   0.78815   0.00000  Uiso   1.00
C1118  C     0.02144   0.45354   0.75264   0.00000  Uiso   1.00
H1119  H     0.15153   0.37540   0.81857   0.00000  Uiso   1.00
H1120  H     0.19222   0.43210   0.88940   0.00000  Uiso   1.00
H1121  H     0.14128   0.56792   0.88939   0.00000  Uiso   1.00
H1122  H     0.14143   0.43203   0.61051   0.00000  Uiso   1.00
H1123  H     0.09020   0.33376   0.73368   0.00000  Uiso   1.00
H1124  H     0.04018   0.65384   0.71214   0.00000  Uiso   1.00
H1125  H     0.08142   0.66565   0.67421   0.00000  Uiso   1.00
H1126  H     0.03047   0.39646   0.68378   0.00000  Uiso   1.00
H1127  H     0.08233   0.41125   0.69454   0.00000  Uiso   1.00
H1128  H     0.06940   0.40647   0.77895   0.00000  Uiso   1.00
H1129  H     0.02528   0.38072   0.77136   0.00000  Uiso   1.00
H1130  H     0.18122   0.62456   0.68133   0.00000  Uiso   1.00
H1131  H     0.25271   0.63239   0.65895   0.00000  Uiso   1.00
H1132  H     0.30512   0.63259   0.63961   0.00000  Uiso   1.00
H1133  H     0.26622   0.60294   0.60827   0.00000  Uiso   1.00
H1134  H     0.31016   0.54935   0.65191   0.00000  Uiso   1.00
H1135  H     0.25723   0.54717   0.66841   0.00000  Uiso   1.00
H1136  H     0.27297   0.59650   0.73509   0.00000  Uiso   1.00
H1137  H     0.32272   0.60497   0.71453   0.00000  Uiso   1.00
H1138  H     0.24314   0.33376   0.76632   0.00000  Uiso   1.00
H1139  H     0.29314   0.65384   0.78787   0.00000  Uiso   1.00
H1140  H     0.25190   0.66565   0.82580   0.00000  Uiso   1.00
H1141  H     0.18181   0.37540   0.68143   0.00000  Uiso   1.00
H1142  H     0.30285   0.39645   0.81623   0.00000  Uiso   1.00
H1143  H     0.25100   0.41125   0.80547   0.00000  Uiso   1.00
H1144  H     0.26394   0.40647   0.72105   0.00000  Uiso   1.00
H1145  H     0.30805   0.38072   0.72866   0.00000  Uiso   1.00
H1146  H     0.08066   0.63236   0.84108   0.00000  Uiso   1.00
H1147  H     0.02824   0.63259   0.86040   0.00000  Uiso   1.00
H1148  H     0.06712   0.60293   0.89176   0.00000  Uiso   1.00
H1149  H     0.02319   0.54933   0.84811   0.00000  Uiso   1.00
H1150  H     0.07612   0.54716   0.83161   0.00000  Uiso   1.00
H1151  H     0.06037   0.59649   0.76493   0.00000  Uiso   1.00
H1152  H     0.15212   0.62456   0.81867   0.00000  Uiso   1.00
H1153  H     0.01062   0.60497   0.78550   0.00000  Uiso   1.00
H1154  H     0.19293   0.56762   0.52955   0.00000  Uiso   1.00
H1155  H     0.19298   0.43246   0.97055   0.00000  Uiso   1.00
H1156  H     0.14076   0.56759   0.97054   0.00000  Uiso   1.00
H1157  H     0.14094   0.43238   0.52936   0.00000  Uiso   1.00
H1158  H     0.19213   0.56797   0.61069   0.00000  Uiso   1.00
N1159  N     0.16667   0.61907   0.75000   0.00000  Uiso   1.00
N1160  N     0.16667   0.38093   0.75000   0.00000  Uiso   1.00
O1161  O     0.10559   0.53821   0.75000   0.00000  Uiso   1.00
O1162  O     0.22774   0.46179   0.75001   0.00000  Uiso   1.00
O1163  O     0.22774   0.53821   0.75001   0.00000  Uiso   1.00
O1164  O     0.10559   0.46179   0.75000   0.00000  Uiso   1.00
O1165  O     0.16666   0.53822   0.68453   0.00000  Uiso   1.00
O1166  O     0.16667   0.46178   0.81547   0.00000  Uiso   1.00
O1167  O     0.16667   0.53822   0.81547   0.00000  Uiso   1.00
O1168  O     0.16666   0.46178   0.68453   0.00000  Uiso   1.00
Zn1169 Zn    0.16667   0.55104   0.75000   0.00000  Uiso   1.00
Zn1170 Zn    0.16667   0.44896   0.75000   0.00000  Uiso   1.00
C1171  C     0.41988   0.49937   0.75289   0.00000  Uiso   1.00
C1172  C     0.64689   0.53732   0.74155   0.00000  Uiso   1.00
C1173  C     0.64522   0.45354   0.74738   0.00000  Uiso   1.00
C1174  C     0.35311   0.53731   0.75847   0.00000  Uiso   1.00
C1175  C     0.51459   0.53818   0.54711   0.00000  Uiso   1.00
C1176  C     0.51456   0.46186   0.95294   0.00000  Uiso   1.00
C1177  C     0.48577   0.53818   0.95294   0.00000  Uiso   1.00
C1178  C     0.48594   0.46180   0.54701   0.00000  Uiso   1.00
C1179  C     0.51427   0.53830   0.59311   0.00000  Uiso   1.00
C1180  C     0.51422   0.46172   0.90695   0.00000  Uiso   1.00
C1181  C     0.48592   0.53828   0.90694   0.00000  Uiso   1.00
C1182  C     0.58012   0.49937   0.74711   0.00000  Uiso   1.00
C1183  C     0.48611   0.46168   0.59300   0.00000  Uiso   1.00
C1184  C     0.50014   0.49999   0.61602   0.00000  Uiso   1.00
C1185  C     0.50002   0.49999   0.88398   0.00000  Uiso   1.00
C1186  C     0.50027   0.50000   0.52406   0.00000  Uiso   1.00
C1187  C     0.50022   0.50002   0.97594   0.00000  Uiso   1.00
C1188  C     0.62453   0.49651   0.74384   0.00000  Uiso   1.00
C1189  C     0.37547   0.49651   0.75618   0.00000  Uiso   1.00
C1190  C     0.37708   0.40724   0.75481   0.00000  Uiso   1.00
C1191  C     0.38952   0.39132   0.70758   0.00000  Uiso   1.00
C1192  C     0.40119   0.34133   0.70695   0.00000  Uiso   1.00
C1193  C     0.50002   0.50000   0.66388   0.00000  Uiso   1.00
C1194  C     0.63138   0.57945   0.71692   0.00000  Uiso   1.00
C1195  C     0.61858   0.56851   0.66877   0.00000  Uiso   1.00
C1196  C     0.61012   0.61187   0.64236   0.00000  Uiso   1.00
C1197  C     0.62292   0.40724   0.74521   0.00000  Uiso   1.00
C1198  C     0.61048   0.39132   0.79243   0.00000  Uiso   1.00
C1199  C     0.59881   0.34133   0.79306   0.00000  Uiso   1.00
C1200  C     0.36863   0.57944   0.78311   0.00000  Uiso   1.00
C1201  C     0.38143   0.56850   0.83125   0.00000  Uiso   1.00
C1202  C     0.38990   0.61186   0.85767   0.00000  Uiso   1.00
C1203  C     0.50000   0.50000   0.83612   0.00000  Uiso   1.00
C1204  C     0.49165   0.35732   0.78811   0.00000  Uiso   1.00
C1205  C     0.50817   0.64267   0.71186   0.00000  Uiso   1.00
C1206  C     0.50835   0.35733   0.71189   0.00000  Uiso   1.00
C1207  C     0.49184   0.64267   0.78815   0.00000  Uiso   1.00
C1208  C     0.35478   0.45354   0.75264   0.00000  Uiso   1.00
H1209  H     0.48486   0.37540   0.81857   0.00000  Uiso   1.00
H1210  H     0.52555   0.43210   0.88940   0.00000  Uiso   1.00
H1211  H     0.47461   0.56792   0.88939   0.00000  Uiso   1.00
H1212  H     0.47477   0.43203   0.61051   0.00000  Uiso   1.00
H1213  H     0.42353   0.33376   0.73368   0.00000  Uiso   1.00
H1214  H     0.37352   0.65384   0.71214   0.00000  Uiso   1.00
H1215  H     0.41475   0.66565   0.67421   0.00000  Uiso   1.00
H1216  H     0.36381   0.39646   0.68378   0.00000  Uiso   1.00
H1217  H     0.41566   0.41125   0.69454   0.00000  Uiso   1.00
H1218  H     0.40273   0.40647   0.77895   0.00000  Uiso   1.00
H1219  H     0.35861   0.38072   0.77136   0.00000  Uiso   1.00
H1220  H     0.51455   0.62456   0.68133   0.00000  Uiso   1.00
H1221  H     0.58605   0.63239   0.65895   0.00000  Uiso   1.00
H1222  H     0.63845   0.63259   0.63961   0.00000  Uiso   1.00
H1223  H     0.59955   0.60294   0.60827   0.00000  Uiso   1.00
H1224  H     0.64349   0.54935   0.65191   0.00000  Uiso   1.00
H1225  H     0.59056   0.54717   0.66841   0.00000  Uiso   1.00
H1226  H     0.60630   0.59650   0.73509   0.00000  Uiso   1.00
H1227  H     0.65605   0.60497   0.71453   0.00000  Uiso   1.00
H1228  H     0.57647   0.33376   0.76632   0.00000  Uiso   1.00
H1229  H     0.62647   0.65384   0.78787   0.00000  Uiso   1.00
H1230  H     0.58523   0.66565   0.82580   0.00000  Uiso   1.00
H1231  H     0.51514   0.37540   0.68143   0.00000  Uiso   1.00
H1232  H     0.63618   0.39645   0.81623   0.00000  Uiso   1.00
H1233  H     0.58433   0.41125   0.80547   0.00000  Uiso   1.00
H1234  H     0.59727   0.40647   0.72105   0.00000  Uiso   1.00
H1235  H     0.64139   0.38072   0.72866   0.00000  Uiso   1.00
H1236  H     0.41399   0.63236   0.84108   0.00000  Uiso   1.00
H1237  H     0.36158   0.63259   0.86040   0.00000  Uiso   1.00
H1238  H     0.40045   0.60293   0.89176   0.00000  Uiso   1.00
H1239  H     0.35652   0.54933   0.84811   0.00000  Uiso   1.00
H1240  H     0.40946   0.54716   0.83161   0.00000  Uiso   1.00
H1241  H     0.39370   0.59649   0.76493   0.00000  Uiso   1.00
H1242  H     0.48545   0.62456   0.81867   0.00000  Uiso   1.00
H1243  H     0.34395   0.60497   0.78550   0.00000  Uiso   1.00
H1244  H     0.52626   0.56762   0.52955   0.00000  Uiso   1.00
H1245  H     0.52631   0.43246   0.97055   0.00000  Uiso   1.00
H1246  H     0.47409   0.56759   0.97054   0.00000  Uiso   1.00
H1247  H     0.47428   0.43238   0.52936   0.00000  Uiso   1.00
H1248  H     0.52546   0.56797   0.61069   0.00000  Uiso   1.00
N1249  N     0.50000   0.61907   0.75000   0.00000  Uiso   1.00
N1250  N     0.50000   0.38093   0.75000   0.00000  Uiso   1.00
O1251  O     0.43892   0.53821   0.75000   0.00000  Uiso   1.00
O1252  O     0.56108   0.46179   0.75001   0.00000  Uiso   1.00
O1253  O     0.56108   0.53821   0.75001   0.00000  Uiso   1.00
O1254  O     0.43892   0.46179   0.75000   0.00000  Uiso   1.00
O1255  O     0.50000   0.53822   0.68453   0.00000  Uiso   1.00
O1256  O     0.50000   0.46178   0.81547   0.00000  Uiso   1.00
O1257  O     0.50000   0.53822   0.81547   0.00000  Uiso   1.00
O1258  O     0.50000   0.46178   0.68453   0.00000  Uiso   1.00
Zn1259 Zn    0.50000   0.55104   0.75000   0.00000  Uiso   1.00
Zn1260 Zn    0.50000   0.44896   0.75000   0.00000  Uiso   1.00
C1261  C     0.75322   0.49937   0.75289   0.00000  Uiso   1.00
C1262  C     0.98023   0.53732   0.74155   0.00000  Uiso   1.00
C1263  C     0.97856   0.45354   0.74738   0.00000  Uiso   1.00
C1264  C     0.68644   0.53731   0.75847   0.00000  Uiso   1.00
C1265  C     0.84792   0.53818   0.54711   0.00000  Uiso   1.00
C1266  C     0.84789   0.46186   0.95294   0.00000  Uiso   1.00
C1267  C     0.81911   0.53818   0.95294   0.00000  Uiso   1.00
C1268  C     0.81927   0.46180   0.54701   0.00000  Uiso   1.00
C1269  C     0.84760   0.53830   0.59311   0.00000  Uiso   1.00
C1270  C     0.84755   0.46172   0.90695   0.00000  Uiso   1.00
C1271  C     0.81926   0.53828   0.90694   0.00000  Uiso   1.00
C1272  C     0.91345   0.49937   0.74711   0.00000  Uiso   1.00
C1273  C     0.81944   0.46168   0.59300   0.00000  Uiso   1.00
C1274  C     0.83348   0.49999   0.61602   0.00000  Uiso   1.00
C1275  C     0.83335   0.49999   0.88398   0.00000  Uiso   1.00
C1276  C     0.83361   0.50000   0.52406   0.00000  Uiso   1.00
C1277  C     0.83355   0.50002   0.97594   0.00000  Uiso   1.00
C1278  C     0.95786   0.49651   0.74384   0.00000  Uiso   1.00
C1279  C     0.70880   0.49651   0.75618   0.00000  Uiso   1.00
C1280  C     0.71042   0.40724   0.75481   0.00000  Uiso   1.00
C1281  C     0.72285   0.39132   0.70758   0.00000  Uiso   1.00
C1282  C     0.73452   0.34133   0.70695   0.00000  Uiso   1.00
C1283  C     0.83336   0.50000   0.66388   0.00000  Uiso   1.00
C1284  C     0.96471   0.57945   0.71692   0.00000  Uiso   1.00
C1285  C     0.95192   0.56851   0.66877   0.00000  Uiso   1.00
C1286  C     0.94345   0.61187   0.64236   0.00000  Uiso   1.00
C1287  C     0.95625   0.40724   0.74521   0.00000  Uiso   1.00
C1288  C     0.94381   0.39132   0.79243   0.00000  Uiso   1.00
C1289  C     0.93214   0.34133   0.79306   0.00000  Uiso   1.00
C1290  C     0.70196   0.57944   0.78311   0.00000  Uiso   1.00
C1291  C     0.71476   0.56850   0.83125   0.00000  Uiso   1.00
C1292  C     0.72324   0.61186   0.85767   0.00000  Uiso   1.00
C1293  C     0.83333   0.50000   0.83612   0.00000  Uiso   1.00
C1294  C     0.82498   0.35732   0.78811   0.00000  Uiso   1.00
C1295  C     0.84150   0.64267   0.71186   0.00000  Uiso   1.00
C1296  C     0.84169   0.35733   0.71189   0.00000  Uiso   1.00
C1297  C     0.82517   0.64267   0.78815   0.00000  Uiso   1.00
C1298  C     0.68811   0.45354   0.75264   0.00000  Uiso   1.00
H1299  H     0.81819   0.37540   0.81857   0.00000  Uiso   1.00
H1300  H     0.85889   0.43210   0.88940   0.00000  Uiso   1.00
H1301  H     0.80795   0.56792   0.88939   0.00000  Uiso   1.00
H1302  H     0.80810   0.43203   0.61051   0.00000  Uiso   1.00
H1303  H     0.75686   0.33376   0.73368   0.00000  Uiso   1.00
H1304  H     0.70685   0.65384   0.71214   0.00000  Uiso   1.00
H1305  H     0.74809   0.66565   0.67421   0.00000  Uiso   1.00
H1306  H     0.69714   0.39646   0.68378   0.00000  Uiso   1.00
H1307  H     0.74899   0.41125   0.69454   0.00000  Uiso   1.00
H1308  H     0.73607   0.40647   0.77895   0.00000  Uiso   1.00
H1309  H     0.69195   0.38072   0.77136   0.00000  Uiso   1.00
H1310  H     0.84789   0.62456   0.68133   0.00000  Uiso   1.00
H1311  H     0.91938   0.63239   0.65895   0.00000  Uiso   1.00
H1312  H     0.97178   0.63259   0.63961   0.00000  Uiso   1.00
H1313  H     0.93288   0.60294   0.60827   0.00000  Uiso   1.00
H1314  H     0.97683   0.54935   0.65191   0.00000  Uiso   1.00
H1315  H     0.92389   0.54717   0.66841   0.00000  Uiso   1.00
H1316  H     0.93964   0.59650   0.73509   0.00000  Uiso   1.00
H1317  H     0.98939   0.60497   0.71453   0.00000  Uiso   1.00
H1318  H     0.90980   0.33376   0.76632   0.00000  Uiso   1.00
H1319  H     0.95981   0.65384   0.78787   0.00000  Uiso   1.00
H1320  H     0.91856   0.66565   0.82580   0.00000  Uiso   1.00
H1321  H     0.84848   0.37540   0.68143   0.00000  Uiso   1.00
H1322  H     0.96951   0.39645   0.81623   0.00000  Uiso   1.00
H1323  H     0.91767   0.41125   0.80547   0.00000  Uiso   1.00
H1324  H     0.93061   0.40647   0.72105   0.00000  Uiso   1.00
H1325  H     0.97472   0.38072   0.72866   0.00000  Uiso   1.00
H1326  H     0.74732   0.63236   0.84108   0.00000  Uiso   1.00
H1327  H     0.69491   0.63259   0.86040   0.00000  Uiso   1.00
H1328  H     0.73379   0.60293   0.89176   0.00000  Uiso   1.00
H1329  H     0.68986   0.54933   0.84811   0.00000  Uiso   1.00
H1330  H     0.74279   0.54716   0.83161   0.00000  Uiso   1.00
H1331  H     0.72703   0.59649   0.76493   0.00000  Uiso   1.00
H1332  H     0.81878   0.62456   0.81867   0.00000  Uiso   1.00
H1333  H     0.67728   0.60497   0.78550   0.00000  Uiso   1.00
H1334  H     0.85959   0.56762   0.52955   0.00000  Uiso   1.00
H1335  H     0.85965   0.43246   0.97055   0.00000  Uiso   1.00
H1336  H     0.80742   0.56759   0.97054   0.00000  Uiso   1.00
H1337  H     0.80761   0.43238   0.52936   0.00000  Uiso   1.00
H1338  H     0.85879   0.56797   0.61069   0.00000  Uiso   1.00
N1339  N     0.83333   0.61907   0.75000   0.00000  Uiso   1.00
N1340  N     0.83333   0.38093   0.75000   0.00000  Uiso   1.00
O1341  O     0.77226   0.53821   0.75000   0.00000  Uiso   1.00
O1342  O     0.89441   0.46179   0.75001   0.00000  Uiso   1.00
O1343  O     0.89441   0.53821   0.75001   0.00000  Uiso   1.00
O1344  O     0.77226   0.46179   0.75000   0.00000  Uiso   1.00
O1345  O     0.83333   0.53822   0.68453   0.00000  Uiso   1.00
O1346  O     0.83334   0.46178   0.81547   0.00000  Uiso   1.00
O1347  O     0.83334   0.53822   0.81547   0.00000  Uiso   1.00
O1348  O     0.83333   0.46178   0.68453   0.00000  Uiso   1.00
Zn1349 Zn    0.83333   0.55104   0.75000   0.00000  Uiso   1.00
Zn1350 Zn    0.83333   0.44896   0.75000   0.00000  Uiso   1.00
C1351  C     0.08655   0.83271   0.75289   0.00000  Uiso   1.00
C1352  C     0.31356   0.87065   0.74155   0.00000  Uiso   1.00
C1353  C     0.31189   0.78687   0.74738   0.00000  Uiso   1.00
C1354  C     0.01978   0.87065   0.75847   0.00000  Uiso   1.00
C1355  C     0.18125   0.87151   0.54711   0.00000  Uiso   1.00
C1356  C     0.18122   0.79519   0.95294   0.00000  Uiso   1.00
C1357  C     0.15244   0.87151   0.95294   0.00000  Uiso   1.00
C1358  C     0.15261   0.79513   0.54701   0.00000  Uiso   1.00
C1359  C     0.18093   0.87163   0.59311   0.00000  Uiso   1.00
C1360  C     0.18088   0.79506   0.90695   0.00000  Uiso   1.00
C1361  C     0.15259   0.87161   0.90694   0.00000  Uiso   1.00
C1362  C     0.24678   0.83271   0.74711   0.00000  Uiso   1.00
C1363  C     0.15278   0.79501   0.59300   0.00000  Uiso   1.00
C1364  C     0.16681   0.83333   0.61602   0.00000  Uiso   1.00
C1365  C     0.16668   0.83333   0.88398   0.00000  Uiso   1.00
C1366  C     0.16694   0.83333   0.52406   0.00000  Uiso   1.00
C1367  C     0.16689   0.83336   0.97594   0.00000  Uiso   1.00
C1368  C     0.29120   0.82984   0.74384   0.00000  Uiso   1.00
C1369  C     0.04214   0.82984   0.75618   0.00000  Uiso   1.00
C1370  C     0.04375   0.74058   0.75481   0.00000  Uiso   1.00
C1371  C     0.05618   0.72466   0.70758   0.00000  Uiso   1.00
C1372  C     0.06785   0.67466   0.70695   0.00000  Uiso   1.00
C1373  C     0.16669   0.83333   0.66388   0.00000  Uiso   1.00
C1374  C     0.29804   0.91278   0.71692   0.00000  Uiso   1.00
C1375  C     0.28525   0.90184   0.66877   0.00000  Uiso   1.00
C1376  C     0.27678   0.94521   0.64236   0.00000  Uiso   1.00
C1377  C     0.28958   0.74058   0.74521   0.00000  Uiso   1.00
C1378  C     0.27714   0.72465   0.79243   0.00000  Uiso   1.00
C1379  C     0.26547   0.67466   0.79306   0.00000  Uiso   1.00
C1380  C     0.03530   0.91278   0.78311   0.00000  Uiso   1.00
C1381  C     0.04810   0.90183   0.83125   0.00000  Uiso   1.00
C1382  C     0.05657   0.94519   0.85767   0.00000  Uiso   1.00
C1383  C     0.16666   0.83333   0.83612   0.00000  Uiso   1.00
C1384  C     0.15832   0.69066   0.78811   0.00000  Uiso   1.00
C1385  C     0.17483   0.97600   0.71186   0.00000  Uiso   1.00
C1386  C     0.17502   0.69066   0.71189   0.00000  Uiso   1.00
C1387  C     0.15850   0.97600   0.78815   0.00000  Uiso   1.00
C1388  C     0.02144   0.78687   0.75264   0.00000  Uiso   1.00
H1389  H     0.15153   0.70873   0.81857   0.00000  Uiso   1.00
H1390  H     0.19222   0.76543   0.88940   0.00000  Uiso   1.00
H1391  H     0.14128   0.90125   0.88939   0.00000  Uiso   1.00
H1392  H     0.14143   0.76537   0.61051   0.00000  Uiso   1.00
H1393  H     0.09020   0.66709   0.73368   0.00000  Uiso   1.00
H1394  H     0.04018   0.98717   0.71214   0.00000  Uiso   1.00
H1395  H     0.08142   0.99898   0.67421   0.00000  Uiso   1.00
H1396  H     0.03047   0.72979   0.68378   0.00000  Uiso   1.00
H1397  H     0.08233   0.74458   0.69454   0.00000  Uiso   1.00
H1398  H     0.06940   0.73981   0.77895   0.00000  Uiso   1.00
H1399  H     0.02528   0.71405   0.77136   0.00000  Uiso   1.00
H1400  H     0.18122   0.95790   0.68133   0.00000  Uiso   1.00
H1401  H     0.25271   0.96572   0.65895   0.00000  Uiso   1.00
H1402  H     0.30512   0.96592   0.63961   0.00000  Uiso   1.00
H1403  H     0.26622   0.93627   0.60827   0.00000  Uiso   1.00
H1404  H     0.31016   0.88268   0.65191   0.00000  Uiso   1.00
H1405  H     0.25723   0.88050   0.66841   0.00000  Uiso   1.00
H1406  H     0.27297   0.92983   0.73509   0.00000  Uiso   1.00
H1407  H     0.32272   0.93831   0.71453   0.00000  Uiso   1.00
H1408  H     0.24314   0.66709   0.76632   0.00000  Uiso   1.00
H1409  H     0.29314   0.98717   0.78787   0.00000  Uiso   1.00
H1410  H     0.25190   0.99898   0.82580   0.00000  Uiso   1.00
H1411  H     0.18181   0.70873   0.68143   0.00000  Uiso   1.00
H1412  H     0.30285   0.72979   0.81623   0.00000  Uiso   1.00
H1413  H     0.25100   0.74458   0.80547   0.00000  Uiso   1.00
H1414  H     0.26394   0.73981   0.72105   0.00000  Uiso   1.00
H1415  H     0.30805   0.71405   0.72866   0.00000  Uiso   1.00
H1416  H     0.08066   0.96569   0.84108   0.00000  Uiso   1.00
H1417  H     0.02824   0.96592   0.86040   0.00000  Uiso   1.00
H1418  H     0.06712   0.93626   0.89176   0.00000  Uiso   1.00
H1419  H     0.02319   0.88267   0.84811   0.00000  Uiso   1.00
H1420  H     0.07612   0.88049   0.83161   0.00000  Uiso   1.00
H1421  H     0.06037   0.92983   0.76493   0.00000  Uiso   1.00
H1422  H     0.15212   0.95790   0.81867   0.00000  Uiso   1.00
H1423  H     0.01062   0.93830   0.78550   0.00000  Uiso   1.00
H1424  H     0.19293   0.90095   0.52955   0.00000  Uiso   1.00
H1425  H     0.19298   0.76579   0.97055   0.00000  Uiso   1.00
H1426  H     0.14076   0.90092   0.97054   0.00000  Uiso   1.00
H1427  H     0.14094   0.76571   0.52936   0.00000  Uiso   1.00
H1428  H     0.19213   0.90130   0.61069   0.00000  Uiso   1.00
N1429  N     0.16667   0.95240   0.75000   0.00000  Uiso   1.00
N1430  N     0.16667   0.71427   0.75000   0.00000  Uiso   1.00
O1431  O     0.10559   0.87154   0.75000   0.00000  Uiso   1.00
O1432  O     0.22774   0.79513   0.75001   0.00000  Uiso   1.00
O1433  O     0.22774   0.87154   0.75001   0.00000  Uiso   1.00
O1434  O     0.10559   0.79513   0.75000   0.00000  Uiso   1.00
O1435  O     0.16666   0.87155   0.68453   0.00000  Uiso   1.00
O1436  O     0.16667   0.79511   0.81547   0.00000  Uiso   1.00
O1437  O     0.16667   0.87155   0.81547   0.00000  Uiso   1.00
O1438  O     0.16666   0.79511   0.68453   0.00000  Uiso   1.00
Zn1439 Zn    0.16667   0.88437   0.75000   0.00000  Uiso   1.00
Zn1440 Zn    0.16667   0.78229   0.75000   0.00000  Uiso   1.00
C1441  C     0.41988   0.83271   0.75289   0.00000  Uiso   1.00
C1442  C     0.64689   0.87065   0.74155   0.00000  Uiso   1.00
C1443  C     0.64522   0.78687   0.74738   0.00000  Uiso   1.00
C1444  C     0.35311   0.87065   0.75847   0.00000  Uiso   1.00
C1445  C     0.51459   0.87151   0.54711   0.00000  Uiso   1.00
C1446  C     0.51456   0.79519   0.95294   0.00000  Uiso   1.00
C1447  C     0.48577   0.87151   0.95294   0.00000  Uiso   1.00
C1448  C     0.48594   0.79513   0.54701   0.00000  Uiso   1.00
C1449  C     0.51427   0.87163   0.59311   0.00000  Uiso   1.00
C1450  C     0.51422   0.79506   0.90695   0.00000  Uiso   1.00
C1451  C     0.48592   0.87161   0.90694   0.00000  Uiso   1.00
C1452  C     0.58012   0.83271   0.74711   0.00000  Uiso   1.00
C1453  C     0.48611   0.79501   0.59300   0.00000  Uiso   1.00
C1454  C     0.50014   0.83333   0.61602   0.00000  Uiso   1.00
C1455  C     0.50002   0.83333   0.88398   0.00000  Uiso   1.00
C1456  C     0.50027   0.83333   0.52406   0.00000  Uiso   1.00
C1457  C     0.50022   0.83336   0.97594   0.00000  Uiso   1.00
C1458  C     0.62453   0.82984   0.74384   0.00000  Uiso   1.00
C1459  C     0.37547   0.82984   0.75618   0.00000  Uiso   1.00
C1460  C     0.37708   0.74058   0.75481   0.00000  Uiso   1.00
C1461  C     0.38952   0.72466   0.70758   0.00000  Uiso   1.00
C1462  C     0.40119   0.67466   0.70695   0.00000  Uiso   1.00
C1463  C     0.50002   0.83333   0.66388   0.00000  Uiso   1.00
C1464  C     0.63138   0.91278   0.71692   0.00000  Uiso   1.00
C1465  C     0.61858   0.90184   0.66877   0.00000  Uiso   1.00
C1466  C     0.61012   0.94521   0.64236   0.00000  Uiso   1.00
C1467  C     0.62292   0.74058   0.74521   0.00000  Uiso   1.00
C1468  C     0.61048   0.72465   0.79243   0.00000  Uiso   1.00
C1469  C     0.59881   0.67466   0.79306   0.00000  Uiso   1.00
C1470  C     0.36863   0.91278   0.78311   0.00000  Uiso   1.00
C1471  C     0.38143   0.90183   0.83125   0.00000  Uiso   1.00
C1472  C     0.38990   0.94519   0.85767   0.00000  Uiso   1.00
C1473  C     0.50000   0.83333   0.83612   0.00000  Uiso   1.00
C1474  C     0.49165   0.69066   0.78811   0.00000  Uiso   1.00
C1475  C     0.50817   0.97600   0.71186   0.00000  Uiso   1.00
C1476  C     0.50835   0.69066   0.71189   0.00000  Uiso   1.00
C1477  C     0.49184   0.97600   0.78815   0.00000  Uiso   1.00
C1478  C     0.35478   0.78687   0.75264   0.00000  Uiso   1.00
H1479  H     0.48486   0.70873   0.81857   0.00000  Uiso   1.00
H1480  H     0.52555   0.76543   0.88940   0.00000  Uiso   1.00
H1481  H     0.47461   0.90125   0.88939   0.00000  Uiso   1.00
H1482  H     0.47477   0.76537   0.61051   0.00000  Uiso   1.00
H1483  H     0.42353   0.66709   0.73368   0.00000  Uiso   1.00
H1484  H     0.37352   0.98717   0.71214   0.00000  Uiso   1.00
H1485  H     0.41475   0.99898   0.67421   0.00000  Uiso   1.00
H1486  H     0.36381   0.72979   0.68378   0.00000  Uiso   1.00
H1487  H     0.41566   0.74458   0.69454   0.00000  Uiso   1.00
H1488  H     0.40273   0.73981   0.77895   0.00000  Uiso   1.00
H1489  H     0.35861   0.71405   0.77136   0.00000  Uiso   1.00
H1490  H     0.51455   0.95790   0.68133   0.00000  Uiso   1.00
H1491  H     0.58605   0.96572   0.65895   0.00000  Uiso   1.00
H1492  H     0.63845   0.96592   0.63961   0.00000  Uiso   1.00
H1493  H     0.59955   0.93627   0.60827   0.00000  Uiso   1.00
H1494  H     0.64349   0.88268   0.65191   0.00000  Uiso   1.00
H1495  H     0.59056   0.88050   0.66841   0.00000  Uiso   1.00
H1496  H     0.60630   0.92983   0.73509   0.00000  Uiso   1.00
H1497  H     0.65605   0.93831   0.71453   0.00000  Uiso   1.00
H1498  H     0.57647   0.66709   0.76632   0.00000  Uiso   1.00
H1499  H     0.62647   0.98717   0.78787   0.00000  Uiso   1.00
H1500  H     0.58523   0.99898   0.82580   0.00000  Uiso   1.00
H1501  H     0.51514   0.70873   0.68143   0.00000  Uiso   1.00
H1502  H     0.63618   0.72979   0.81623   0.00000  Uiso   1.00
H1503  H     0.58433   0.74458   0.80547   0.00000  Uiso   1.00
H1504  H     0.59727   0.73981   0.72105   0.00000  Uiso   1.00
H1505  H     0.64139   0.71405   0.72866   0.00000  Uiso   1.00
H1506  H     0.41399   0.96569   0.84108   0.00000  Uiso   1.00
H1507  H     0.36158   0.96592   0.86040   0.00000  Uiso   1.00
H1508  H     0.40045   0.93626   0.89176   0.00000  Uiso   1.00
H1509  H     0.35652   0.88267   0.84811   0.00000  Uiso   1.00
H1510  H     0.40946   0.88049   0.83161   0.00000  Uiso   1.00
H1511  H     0.39370   0.92983   0.76493   0.00000  Uiso   1.00
H1512  H     0.48545   0.95790   0.81867   0.00000  Uiso   1.00
H1513  H     0.34395   0.93830   0.78550   0.00000  Uiso   1.00
H1514  H     0.52626   0.90095   0.52955   0.00000  Uiso   1.00
H1515  H     0.52631   0.76579   0.97055   0.00000  Uiso   1.00
H1516  H     0.47409   0.90092   0.97054   0.00000  Uiso   1.00
H1517  H     0.47428   0.76571   0.52936   0.00000  Uiso   1.00
H1518  H     0.52546   0.90130   0.61069   0.00000  Uiso   1.00
N1519  N     0.50000   0.95240   0.75000   0.00000  Uiso   1.00
N1520  N     0.50000   0.71427   0.75000   0.00000  Uiso   1.00
O1521  O     0.43892   0.87154   0.75000   0.00000  Uiso   1.00
O1522  O     0.56108   0.79513   0.75001   0.00000  Uiso   1.00
O1523  O     0.56108   0.87154   0.75001   0.00000  Uiso   1.00
O1524  O     0.43892   0.79513   0.75000   0.00000  Uiso   1.00
O1525  O     0.50000   0.87155   0.68453   0.00000  Uiso   1.00
O1526  O     0.50000   0.79511   0.81547   0.00000  Uiso   1.00
O1527  O     0.50000   0.87155   0.81547   0.00000  Uiso   1.00
O1528  O     0.50000   0.79511   0.68453   0.00000  Uiso   1.00
Zn1529 Zn    0.50000   0.88437   0.75000   0.00000  Uiso   1.00
Zn1530 Zn    0.50000   0.78229   0.75000   0.00000  Uiso   1.00
C1531  C     0.75322   0.83271   0.75289   0.00000  Uiso   1.00
C1532  C     0.98023   0.87065   0.74155   0.00000  Uiso   1.00
C1533  C     0.97856   0.78687   0.74738   0.00000  Uiso   1.00
C1534  C     0.68644   0.87065   0.75847   0.00000  Uiso   1.00
C1535  C     0.84792   0.87151   0.54711   0.00000  Uiso   1.00
C1536  C     0.84789   0.79519   0.95294   0.00000  Uiso   1.00
C1537  C     0.81911   0.87151   0.95294   0.00000  Uiso   1.00
C1538  C     0.81927   0.79513   0.54701   0.00000  Uiso   1.00
C1539  C     0.84760   0.87163   0.59311   0.00000  Uiso   1.00
C1540  C     0.84755   0.79506   0.90695   0.00000  Uiso   1.00
C1541  C     0.81926   0.87161   0.90694   0.00000  Uiso   1.00
C1542  C     0.91345   0.83271   0.74711   0.00000  Uiso   1.00
C1543  C     0.81944   0.79501   0.59300   0.00000  Uiso   1.00
C1544  C     0.83348   0.83333   0.61602   0.00000  Uiso   1.00
C1545  C     0.83335   0.83333   0.88398   0.00000  Uiso   1.00
C1546  C     0.83361   0.83333   0.52406   0.00000  Uiso   1.00
C1547  C     0.83355   0.83336   0.97594   0.00000  Uiso   1.00
C1548  C     0.95786   0.82984   0.74384   0.00000  Uiso   1.00
C1549  C     0.70880   0.82984   0.75618   0.00000  Uiso   1.00
C1550  C     0.71042   0.74058   0.75481   0.00000  Uiso   1.00
C1551  C     0.72285   0.72466   0.70758   0.00000  Uiso   1.00
C1552  C     0.73452   0.67466   0.70695   0.00000  Uiso   1.00
C1553  C     0.83336   0.83333   0.66388   0.00000  Uiso   1.00
C1554  C     0.96471   0.91278   0.71692   0.00000  Uiso   1.00
C1555  C     0.95192   0.90184   0.66877   0.00000  Uiso   1.00
C1556  C     0.94345   0.94521   0.64236   0.00000  Uiso   1.00
C1557  C     0.95625   0.74058   0.74521   0.00000  Uiso   1.00
C1558  C     0.94381   0.72465   0.79243   0.00000  Uiso   1.00
C1559  C     0.93214   0.67466   0.79306   0.00000  Uiso   1.00
C1560  C     0.70196   0.91278   0.78311   0.00000  Uiso   1.00
C1561  C     0.71476   0.90183   0.83125   0.00000  Uiso   1.00
C1562  C     0.72324   0.94519   0.85767   0.00000  Uiso   1.00
C1563  C     0.83333   0.83333   0.83612   0.00000  Uiso   1.00
C1564  C     0.82498   0.69066   0.78811   0.00000  Uiso   1.00
C1565  C     0.84150   0.97600   0.71186   0.00000  Uiso   1.00
C1566  C     0.84169   0.69066   0.71189   0.00000  Uiso   1.00
C1567  C     0.82517   0.97600   0.78815   0.00000  Uiso   1.00
C1568  C     0.68811   0.78687   0.75264   0.00000  Uiso   1.00
H1569  H     0.81819   0.70873   0.81857   0.00000  Uiso   1.00
H1570  H     0.85889   0.76543   0.88940   0.00000  Uiso   1.00
H1571  H     0.80795   0.90125   0.88939   0.00000  Uiso   1.00
H1572  H     0.80810   0.76537   0.61051   0.00000  Uiso   1.00
H1573  H     0.75686   0.66709   0.73368   0.00000  Uiso   1.00
H1574  H     0.70685   0.98717   0.71214   0.00000  Uiso   1.00
H1575  H     0.74809   0.99898   0.67421   0.00000  Uiso   1.00
H1576  H     0.69714   0.72979   0.68378   0.00000  Uiso   1.00
H1577  H     0.74899   0.74458   0.69454   0.00000  Uiso   1.00
H1578  H     0.73607   0.73981   0.77895   0.00000  Uiso   1.00
H1579  H     0.69195   0.71405   0.77136   0.00000  Uiso   1.00
H1580  H     0.84789   0.95790   0.68133   0.00000  Uiso   1.00
H1581  H     0.91938   0.96572   0.65895   0.00000  Uiso   1.00
H1582  H     0.97178   0.96592   0.63961   0.00000  Uiso   1.00
H1583  H     0.93288   0.93627   0.60827   0.00000  Uiso   1.00
H1584  H     0.97683   0.88268   0.65191   0.00000  Uiso   1.00
H1585  H     0.92389   0.88050   0.66841   0.00000  Uiso   1.00
H1586  H     0.93964   0.92983   0.73509   0.00000  Uiso   1.00
H1587  H     0.98939   0.93831   0.71453   0.00000  Uiso   1.00
H1588  H     0.90980   0.66709   0.76632   0.00000  Uiso   1.00
H1589  H     0.95981   0.98717   0.78787   0.00000  Uiso   1.00
H1590  H     0.91856   0.99898   0.82580   0.00000  Uiso   1.00
H1591  H     0.84848   0.70873   0.68143   0.00000  Uiso   1.00
H1592  H     0.96951   0.72979   0.81623   0.00000  Uiso   1.00
H1593  H     0.91767   0.74458   0.80547   0.00000  Uiso   1.00
H1594  H     0.93061   0.73981   0.72105   0.00000  Uiso   1.00
H1595  H     0.97472   0.71405   0.72866   0.00000  Uiso   1.00
H1596  H     0.74732   0.96569   0.84108   0.00000  Uiso   1.00
H1597  H     0.69491   0.96592   0.86040   0.00000  Uiso   1.00
H1598  H     0.73379   0.93626   0.89176   0.00000  Uiso   1.00
H1599  H     0.68986   0.88267   0.84811   0.00000  Uiso   1.00
H1600  H     0.74279   0.88049   0.83161   0.00000  Uiso   1.00
H1601  H     0.72703   0.92983   0.76493   0.00000  Uiso   1.00
H1602  H     0.81878   0.95790   0.81867   0.00000  Uiso   1.00
H1603  H     0.67728   0.93830   0.78550   0.00000  Uiso   1.00
H1604  H     0.85959   0.90095   0.52955   0.00000  Uiso   1.00
H1605  H     0.85965   0.76579   0.97055   0.00000  Uiso   1.00
H1606  H     0.80742   0.90092   0.97054   0.00000  Uiso   1.00
H1607  H     0.80761   0.76571   0.52936   0.00000  Uiso   1.00
H1608  H     0.85879   0.90130   0.61069   0.00000  Uiso   1.00
N1609  N     0.83333   0.95240   0.75000   0.00000  Uiso   1.00
N1610  N     0.83333   0.71427   0.75000   0.00000  Uiso   1.00
O1611  O     0.77226   0.87154   0.75000   0.00000  Uiso   1.00
O1612  O     0.89441   0.79513   0.75001   0.00000  Uiso   1.00
O1613  O     0.89441   0.87154   0.75001   0.00000  Uiso   1.00
O1614  O     0.77226   0.79513   0.75000   0.00000  Uiso   1.00
O1615  O     0.83333   0.87155   0.68453   0.00000  Uiso   1.00
O1616  O     0.83334   0.79511   0.81547   0.00000  Uiso   1.00
O1617  O     0.83334   0.87155   0.81547   0.00000  Uiso   1.00
O1618  O     0.83333   0.79511   0.68453   0.00000  Uiso   1.00
Zn1619 Zn    0.83333   0.88437   0.75000   0.00000  Uiso   1.00
Zn1620 Zn    0.83333   0.78229   0.75000   0.00000  Uiso   1.00
loop_
_geom_bond_atom_site_label_1
_geom_bond_atom_site_label_2
_geom_bond_distance
_geom_bond_site_symmetry_2
_ccdc_geom_bond_type
C1     O84     1.272   .     A
C1     O81     1.304   .     A
C1     C19     1.456   .     S
C2     C18     1.407   .     A
C2     C24     1.529   .     S
C2     C94     1.387   .     S
C3     C18     1.437   .     A
C3     C27     1.546   .     S
C3     C128    1.409   .     S
C4     C19     1.407   .     A
C4     C30     1.529   .     S
C4     C182    1.387   1_455 S
C5     H74     1.083   .     S
C5     C16     1.399   .     A
C5     C9      1.380   .     A
C6     H75     1.083   .     S
C6     C17     1.399   .     A
C6     C10     1.380   .     A
C7     C11     1.380   .     A
C7     C17     1.399   .     A
C7     H76     1.083   .     S
C8     C13     1.380   .     A
C8     C16     1.399   .     A
C8     H77     1.083   .     S
C9     C14     1.399   .     A
C9     H78     1.083   .     S
C10    C15     1.399   .     A
C10    H40     1.084   .     S
C11    C15     1.399   .     A
C11    H41     1.083   .     S
C12    O83     1.304   .     A
C12    O82     1.272   .     A
C12    C18     1.456   .     S
C13    H42     1.084   .     S
C13    C14     1.399   .     A
C14    C23     1.436   .     S
C15    C33     1.436   .     S
C16    C827    1.443   1_554 S
C17    C826    1.443   .     S
C19    C38     1.437   .     A
C20    H49     1.105   .     S
C20    C38     1.546   .     S
C20    H48     1.107   .     S
C20    C21     1.547   .     S
C21    C22     1.520   .     S
C21    H46     1.111   .     S
C21    H47     1.108   .     S
C22    H43     1.106   .     S
C22    H584    1.103   1_545 S
C22    H585    1.110   1_545 S
C23    O88     1.284   .     A
C23    O85     1.284   .     A
C24    H57     1.104   .     S
C24    C25     1.537   .     S
C24    H56     1.105   .     S
C25    H54     1.112   .     S
C25    C26     1.527   .     S
C25    H55     1.110   .     S
C26    H52     1.111   .     S
C26    H53     1.110   .     S
C26    H51     1.110   .     S
C27    H65     1.105   .     S
C27    H64     1.107   .     S
C27    C28     1.547   .     S
C28    C29     1.520   .     S
C28    H63     1.108   .     S
C28    H62     1.111   .     S
C29    H58     1.106   .     S
C29    H599    1.103   1_545 S
C29    H600    1.110   1_545 S
C30    H71     1.105   .     S
C30    C31     1.537   .     S
C30    H73     1.104   .     S
C31    H70     1.110   .     S
C31    C32     1.527   .     S
C31    H69     1.112   .     S
C32    H68     1.110   .     S
C32    H67     1.111   .     S
C32    H66     1.110   .     S
C33    O86     1.284   .     A
C33    O87     1.284   .     A
C34    N80     1.366   .     A
C34    H39     1.081   .     S
C34    C577    1.412   1_545 S
C35    H50     1.080   .     S
C35    N79     1.365   .     A
C35    C306    1.412   .     S
C36    N80     1.366   .     A
C36    H61     1.081   .     S
C36    C575    1.412   1_545 S
C37    N79     1.365   .     A
C37    H72     1.080   .     S
C37    C304    1.412   .     S
C38    C183    1.409   1_455 S
H44    C292    1.103   .     S
H45    C292    1.110   .     S
H59    C299    1.103   .     S
H60    C299    1.110   .     S
N79    Zn89    2.002   .     S
N80    Zn90    2.002   .     S
O81    Zn89    2.030   .     S
O82    Zn90    2.030   .     S
O83    Zn89    2.030   .     S
O84    Zn90    2.030   .     S
O85    Zn89    2.000   .     S
O86    Zn90    2.000   .     S
O87    Zn89    2.000   .     S
O88    Zn90    2.000   .     S
C91    O174    1.272   .     A
C91    O171    1.304   .     A
C91    C109    1.456   .     S
C92    C108    1.407   .     A
C92    C114    1.529   .     S
C92    C184    1.387   .     S
C93    C108    1.437   .     A
C93    C117    1.546   .     S
C93    C218    1.409   .     S
C94    C109    1.407   .     A
C94    C120    1.529   .     S
C95    H164    1.083   .     S
C95    C106    1.399   .     A
C95    C99     1.380   .     A
C96    H165    1.083   .     S
C96    C107    1.399   .     A
C96    C100    1.380   .     A
C97    C101    1.380   .     A
C97    C107    1.399   .     A
C97    H166    1.083   .     S
C98    C103    1.380   .     A
C98    C106    1.399   .     A
C98    H167    1.083   .     S
C99    C104    1.399   .     A
C99    H168    1.083   .     S
C100   C105    1.399   .     A
C100   H130    1.084   .     S
C101   C105    1.399   .     A
C101   H131    1.083   .     S
C102   O173    1.304   .     A
C102   O172    1.272   .     A
C102   C108    1.456   .     S
C103   H132    1.084   .     S
C103   C104    1.399   .     A
C104   C113    1.436   .     S
C105   C123    1.436   .     S
C106   C917    1.443   1_554 S
C107   C916    1.443   .     S
C109   C128    1.437   .     A
C110   H139    1.105   .     S
C110   C128    1.546   .     S
C110   H138    1.107   .     S
C110   C111    1.547   .     S
C111   C112    1.520   .     S
C111   H136    1.111   .     S
C111   H137    1.108   .     S
C112   H133    1.106   .     S
C112   H674    1.103   1_545 S
C112   H675    1.110   1_545 S
C113   O178    1.284   .     A
C113   O175    1.284   .     A
C114   H147    1.104   .     S
C114   C115    1.537   .     S
C114   H146    1.105   .     S
C115   H144    1.112   .     S
C115   C116    1.527   .     S
C115   H145    1.110   .     S
C116   H142    1.111   .     S
C116   H143    1.110   .     S
C116   H141    1.110   .     S
C117   H155    1.105   .     S
C117   H154    1.107   .     S
C117   C118    1.547   .     S
C118   C119    1.520   .     S
C118   H153    1.108   .     S
C118   H152    1.111   .     S
C119   H148    1.106   .     S
C119   H689    1.103   1_545 S
C119   H690    1.110   1_545 S
C120   H161    1.105   .     S
C120   C121    1.537   .     S
C120   H163    1.104   .     S
C121   H160    1.110   .     S
C121   C122    1.527   .     S
C121   H159    1.112   .     S
C122   H158    1.110   .     S
C122   H157    1.111   .     S
C122   H156    1.110   .     S
C123   O176    1.284   .     A
C123   O177    1.284   .     A
C124   N170    1.366   .     A
C124   H129    1.081   .     S
C124   C667    1.412   1_545 S
C125   H140    1.080   .     S
C125   N169    1.365   .     A
C125   C396    1.412   .     S
C126   N170    1.366   .     A
C126   H151    1.081   .     S
C126   C665    1.412   1_545 S
C127   N169    1.365   .     A
C127   H162    1.080   .     S
C127   C394    1.412   .     S
H134   C382    1.103   .     S
H135   C382    1.110   .     S
H149   C389    1.103   .     S
H150   C389    1.110   .     S
N169   Zn179   2.002   .     S
N170   Zn180   2.002   .     S
O171   Zn179   2.030   .     S
O172   Zn180   2.030   .     S
O173   Zn179   2.030   .     S
O174   Zn180   2.030   .     S
O175   Zn179   2.000   .     S
O176   Zn180   2.000   .     S
O177   Zn179   2.000   .     S
O178   Zn180   2.000   .     S
C181   O264    1.272   .     A
C181   O261    1.304   .     A
C181   C199    1.456   .     S
C182   C198    1.407   .     A
C182   C204    1.529   .     S
C182   C4      1.387   1_655 S
C183   C198    1.437   .     A
C183   C207    1.546   .     S
C183   C38     1.409   1_655 S
C184   C199    1.407   .     A
C184   C210    1.529   .     S
C185   H254    1.083   .     S
C185   C196    1.399   .     A
C185   C189    1.380   .     A
C186   H255    1.083   .     S
C186   C197    1.399   .     A
C186   C190    1.380   .     A
C187   C191    1.380   .     A
C187   C197    1.399   .     A
C187   H256    1.083   .     S
C188   C193    1.380   .     A
C188   C196    1.399   .     A
C188   H257    1.083   .     S
C189   C194    1.399   .     A
C189   H258    1.083   .     S
C190   C195    1.399   .     A
C190   H220    1.084   .     S
C191   C195    1.399   .     A
C191   H221    1.083   .     S
C192   O263    1.304   .     A
C192   O262    1.272   .     A
C192   C198    1.456   .     S
C193   H222    1.084   .     S
C193   C194    1.399   .     A
C194   C203    1.436   .     S
C195   C213    1.436   .     S
C196   C1007   1.443   1_554 S
C197   C1006   1.443   .     S
C199   C218    1.437   .     A
C200   H229    1.105   .     S
C200   C218    1.546   .     S
C200   H228    1.107   .     S
C200   C201    1.547   .     S
C201   C202    1.520   .     S
C201   H226    1.111   .     S
C201   H227    1.108   .     S
C202   H223    1.106   .     S
C202   H764    1.103   1_545 S
C202   H765    1.110   1_545 S
C203   O268    1.284   .     A
C203   O265    1.284   .     A
C204   H237    1.104   .     S
C204   C205    1.537   .     S
C204   H236    1.105   .     S
C205   H234    1.112   .     S
C205   C206    1.527   .     S
C205   H235    1.110   .     S
C206   H232    1.111   .     S
C206   H233    1.110   .     S
C206   H231    1.110   .     S
C207   H245    1.105   .     S
C207   H244    1.107   .     S
C207   C208    1.547   .     S
C208   C209    1.520   .     S
C208   H243    1.108   .     S
C208   H242    1.111   .     S
C209   H238    1.106   .     S
C209   H779    1.103   1_545 S
C209   H780    1.110   1_545 S
C210   H251    1.105   .     S
C210   C211    1.537   .     S
C210   H253    1.104   .     S
C211   H250    1.110   .     S
C211   C212    1.527   .     S
C211   H249    1.112   .     S
C212   H248    1.110   .     S
C212   H247    1.111   .     S
C212   H246    1.110   .     S
C213   O266    1.284   .     A
C213   O267    1.284   .     A
C214   N260    1.366   .     A
C214   H219    1.081   .     S
C214   C757    1.412   1_545 S
C215   H230    1.080   .     S
C215   N259    1.365   .     A
C215   C486    1.412   .     S
C216   N260    1.366   .     A
C216   H241    1.081   .     S
C216   C755    1.412   1_545 S
C217   N259    1.365   .     A
C217   H252    1.080   .     S
C217   C484    1.412   .     S
H224   C472    1.103   .     S
H225   C472    1.110   .     S
H239   C479    1.103   .     S
H240   C479    1.110   .     S
N259   Zn269   2.002   .     S
N260   Zn270   2.002   .     S
O261   Zn269   2.030   .     S
O262   Zn270   2.030   .     S
O263   Zn269   2.030   .     S
O264   Zn270   2.030   .     S
O265   Zn269   2.000   .     S
O266   Zn270   2.000   .     S
O267   Zn269   2.000   .     S
O268   Zn270   2.000   .     S
C271   O354    1.272   .     A
C271   O351    1.304   .     A
C271   C289    1.456   .     S
C272   C288    1.407   .     A
C272   C294    1.529   .     S
C272   C364    1.387   .     S
C273   C288    1.437   .     A
C273   C297    1.546   .     S
C273   C398    1.409   .     S
C274   C289    1.407   .     A
C274   C300    1.529   .     S
C274   C452    1.387   1_455 S
C275   H344    1.083   .     S
C275   C286    1.399   .     A
C275   C279    1.380   .     A
C276   H345    1.083   .     S
C276   C287    1.399   .     A
C276   C280    1.380   .     A
C277   C281    1.380   .     A
C277   C287    1.399   .     A
C277   H346    1.083   .     S
C278   C283    1.380   .     A
C278   C286    1.399   .     A
C278   H347    1.083   .     S
C279   C284    1.399   .     A
C279   H348    1.083   .     S
C280   C285    1.399   .     A
C280   H310    1.084   .     S
C281   C285    1.399   .     A
C281   H311    1.083   .     S
C282   O353    1.304   .     A
C282   O352    1.272   .     A
C282   C288    1.456   .     S
C283   H312    1.084   .     S
C283   C284    1.399   .     A
C284   C293    1.436   .     S
C285   C303    1.436   .     S
C286   C1097   1.443   1_554 S
C287   C1096   1.443   .     S
C289   C308    1.437   .     A
C290   H319    1.105   .     S
C290   C308    1.546   .     S
C290   H318    1.107   .     S
C290   C291    1.547   .     S
C291   C292    1.520   .     S
C291   H316    1.111   .     S
C291   H317    1.108   .     S
C292   H313    1.106   .     S
C293   O358    1.284   .     A
C293   O355    1.284   .     A
C294   H327    1.104   .     S
C294   C295    1.537   .     S
C294   H326    1.105   .     S
C295   H324    1.112   .     S
C295   C296    1.527   .     S
C295   H325    1.110   .     S
C296   H322    1.111   .     S
C296   H323    1.110   .     S
C296   H321    1.110   .     S
C297   H335    1.105   .     S
C297   H334    1.107   .     S
C297   C298    1.547   .     S
C298   C299    1.520   .     S
C298   H333    1.108   .     S
C298   H332    1.111   .     S
C299   H328    1.106   .     S
C300   H341    1.105   .     S
C300   C301    1.537   .     S
C300   H343    1.104   .     S
C301   H340    1.110   .     S
C301   C302    1.527   .     S
C301   H339    1.112   .     S
C302   H338    1.110   .     S
C302   H337    1.111   .     S
C302   H336    1.110   .     S
C303   O356    1.284   .     A
C303   O357    1.284   .     A
C304   N350    1.366   .     A
C304   H309    1.081   .     S
C305   H320    1.080   .     S
C305   N349    1.365   .     A
C305   C576    1.412   .     S
C306   N350    1.366   .     A
C306   H331    1.081   .     S
C307   N349    1.365   .     A
C307   H342    1.080   .     S
C307   C574    1.412   .     S
C308   C453    1.409   1_455 S
H314   C562    1.103   .     S
H315   C562    1.110   .     S
H329   C569    1.103   .     S
H330   C569    1.110   .     S
N349   Zn359   2.002   .     S
N350   Zn360   2.002   .     S
O351   Zn359   2.030   .     S
O352   Zn360   2.030   .     S
O353   Zn359   2.030   .     S
O354   Zn360   2.030   .     S
O355   Zn359   2.000   .     S
O356   Zn360   2.000   .     S
O357   Zn359   2.000   .     S
O358   Zn360   2.000   .     S
C361   O444    1.272   .     A
C361   O441    1.304   .     A
C361   C379    1.456   .     S
C362   C378    1.407   .     A
C362   C384    1.529   .     S
C362   C454    1.387   .     S
C363   C378    1.437   .     A
C363   C387    1.546   .     S
C363   C488    1.409   .     S
C364   C379    1.407   .     A
C364   C390    1.529   .     S
C365   H434    1.083   .     S
C365   C376    1.399   .     A
C365   C369    1.380   .     A
C366   H435    1.083   .     S
C366   C377    1.399   .     A
C366   C370    1.380   .     A
C367   C371    1.380   .     A
C367   C377    1.399   .     A
C367   H436    1.083   .     S
C368   C373    1.380   .     A
C368   C376    1.399   .     A
C368   H437    1.083   .     S
C369   C374    1.399   .     A
C369   H438    1.083   .     S
C370   C375    1.399   .     A
C370   H400    1.084   .     S
C371   C375    1.399   .     A
C371   H401    1.083   .     S
C372   O443    1.304   .     A
C372   O442    1.272   .     A
C372   C378    1.456   .     S
C373   H402    1.084   .     S
C373   C374    1.399   .     A
C374   C383    1.436   .     S
C375   C393    1.436   .     S
C376   C1187   1.443   1_554 S
C377   C1186   1.443   .     S
C379   C398    1.437   .     A
C380   H409    1.105   .     S
C380   C398    1.546   .     S
C380   H408    1.107   .     S
C380   C381    1.547   .     S
C381   C382    1.520   .     S
C381   H406    1.111   .     S
C381   H407    1.108   .     S
C382   H403    1.106   .     S
C383   O448    1.284   .     A
C383   O445    1.284   .     A
C384   H417    1.104   .     S
C384   C385    1.537   .     S
C384   H416    1.105   .     S
C385   H414    1.112   .     S
C385   C386    1.527   .     S
C385   H415    1.110   .     S
C386   H412    1.111   .     S
C386   H413    1.110   .     S
C386   H411    1.110   .     S
C387   H425    1.105   .     S
C387   H424    1.107   .     S
C387   C388    1.547   .     S
C388   C389    1.520   .     S
C388   H423    1.108   .     S
C388   H422    1.111   .     S
C389   H418    1.106   .     S
C390   H431    1.105   .     S
C390   C391    1.537   .     S
C390   H433    1.104   .     S
C391   H430    1.110   .     S
C391   C392    1.527   .     S
C391   H429    1.112   .     S
C392   H428    1.110   .     S
C392   H427    1.111   .     S
C392   H426    1.110   .     S
C393   O446    1.284   .     A
C393   O447    1.284   .     A
C394   N440    1.366   .     A
C394   H399    1.081   .     S
C395   H410    1.080   .     S
C395   N439    1.365   .     A
C395   C666    1.412   .     S
C396   N440    1.366   .     A
C396   H421    1.081   .     S
C397   N439    1.365   .     A
C397   H432    1.080   .     S
C397   C664    1.412   .     S
H404   C652    1.103   .     S
H405   C652    1.110   .     S
H419   C659    1.103   .     S
H420   C659    1.110   .     S
N439   Zn449   2.002   .     S
N440   Zn450   2.002   .     S
O441   Zn449   2.030   .     S
O442   Zn450   2.030   .     S
O443   Zn449   2.030   .     S
O444   Zn450   2.030   .     S
O445   Zn449   2.000   .     S
O446   Zn450   2.000   .     S
O447   Zn449   2.000   .     S
O448   Zn450   2.000   .     S
C451   O534    1.272   .     A
C451   O531    1.304   .     A
C451   C469    1.456   .     S
C452   C468    1.407   .     A
C452   C474    1.529   .     S
C452   C274    1.387   1_655 S
C453   C468    1.437   .     A
C453   C477    1.546   .     S
C453   C308    1.409   1_655 S
C454   C469    1.407   .     A
C454   C480    1.529   .     S
C455   H524    1.083   .     S
C455   C466    1.399   .     A
C455   C459    1.380   .     A
C456   H525    1.083   .     S
C456   C467    1.399   .     A
C456   C460    1.380   .     A
C457   C461    1.380   .     A
C457   C467    1.399   .     A
C457   H526    1.083   .     S
C458   C463    1.380   .     A
C458   C466    1.399   .     A
C458   H527    1.083   .     S
C459   C464    1.399   .     A
C459   H528    1.083   .     S
C460   C465    1.399   .     A
C460   H490    1.084   .     S
C461   C465    1.399   .     A
C461   H491    1.083   .     S
C462   O533    1.304   .     A
C462   O532    1.272   .     A
C462   C468    1.456   .     S
C463   H492    1.084   .     S
C463   C464    1.399   .     A
C464   C473    1.436   .     S
C465   C483    1.436   .     S
C466   C1277   1.443   1_554 S
C467   C1276   1.443   .     S
C469   C488    1.437   .     A
C470   H499    1.105   .     S
C470   C488    1.546   .     S
C470   H498    1.107   .     S
C470   C471    1.547   .     S
C471   C472    1.520   .     S
C471   H496    1.111   .     S
C471   H497    1.108   .     S
C472   H493    1.106   .     S
C473   O538    1.284   .     A
C473   O535    1.284   .     A
C474   H507    1.104   .     S
C474   C475    1.537   .     S
C474   H506    1.105   .     S
C475   H504    1.112   .     S
C475   C476    1.527   .     S
C475   H505    1.110   .     S
C476   H502    1.111   .     S
C476   H503    1.110   .     S
C476   H501    1.110   .     S
C477   H515    1.105   .     S
C477   H514    1.107   .     S
C477   C478    1.547   .     S
C478   C479    1.520   .     S
C478   H513    1.108   .     S
C478   H512    1.111   .     S
C479   H508    1.106   .     S
C480   H521    1.105   .     S
C480   C481    1.537   .     S
C480   H523    1.104   .     S
C481   H520    1.110   .     S
C481   C482    1.527   .     S
C481   H519    1.112   .     S
C482   H518    1.110   .     S
C482   H517    1.111   .     S
C482   H516    1.110   .     S
C483   O536    1.284   .     A
C483   O537    1.284   .     A
C484   N530    1.366   .     A
C484   H489    1.081   .     S
C485   H500    1.080   .     S
C485   N529    1.365   .     A
C485   C756    1.412   .     S
C486   N530    1.366   .     A
C486   H511    1.081   .     S
C487   N529    1.365   .     A
C487   H522    1.080   .     S
C487   C754    1.412   .     S
H494   C742    1.103   .     S
H495   C742    1.110   .     S
H509   C749    1.103   .     S
H510   C749    1.110   .     S
N529   Zn539   2.002   .     S
N530   Zn540   2.002   .     S
O531   Zn539   2.030   .     S
O532   Zn540   2.030   .     S
O533   Zn539   2.030   .     S
O534   Zn540   2.030   .     S
O535   Zn539   2.000   .     S
O536   Zn540   2.000   .     S
O537   Zn539   2.000   .     S
O538   Zn540   2.000   .     S
C541   O624    1.272   .     A
C541   O621    1.304   .     A
C541   C559    1.456   .     S
C542   C558    1.407   .     A
C542   C564    1.529   .     S
C542   C634    1.387   .     S
C543   C558    1.437   .     A
C543   C567    1.546   .     S
C543   C668    1.409   .     S
C544   C559    1.407   .     A
C544   C570    1.529   .     S
C544   C722    1.387   1_455 S
C545   H614    1.083   .     S
C545   C556    1.399   .     A
C545   C549    1.380   .     A
C546   H615    1.083   .     S
C546   C557    1.399   .     A
C546   C550    1.380   .     A
C547   C551    1.380   .     A
C547   C557    1.399   .     A
C547   H616    1.083   .     S
C548   C553    1.380   .     A
C548   C556    1.399   .     A
C548   H617    1.083   .     S
C549   C554    1.399   .     A
C549   H618    1.083   .     S
C550   C555    1.399   .     A
C550   H580    1.084   .     S
C551   C555    1.399   .     A
C551   H581    1.083   .     S
C552   O623    1.304   .     A
C552   O622    1.272   .     A
C552   C558    1.456   .     S
C553   H582    1.084   .     S
C553   C554    1.399   .     A
C554   C563    1.436   .     S
C555   C573    1.436   .     S
C556   C1367   1.443   1_554 S
C557   C1366   1.443   .     S
C559   C578    1.437   .     A
C560   H589    1.105   .     S
C560   C578    1.546   .     S
C560   H588    1.107   .     S
C560   C561    1.547   .     S
C561   C562    1.520   .     S
C561   H586    1.111   .     S
C561   H587    1.108   .     S
C562   H583    1.106   .     S
C563   O628    1.284   .     A
C563   O625    1.284   .     A
C564   H597    1.104   .     S
C564   C565    1.537   .     S
C564   H596    1.105   .     S
C565   H594    1.112   .     S
C565   C566    1.527   .     S
C565   H595    1.110   .     S
C566   H592    1.111   .     S
C566   H593    1.110   .     S
C566   H591    1.110   .     S
C567   H605    1.105   .     S
C567   H604    1.107   .     S
C567   C568    1.547   .     S
C568   C569    1.520   .     S
C568   H603    1.108   .     S
C568   H602    1.111   .     S
C569   H598    1.106   .     S
C570   H611    1.105   .     S
C570   C571    1.537   .     S
C570   H613    1.104   .     S
C571   H610    1.110   .     S
C571   C572    1.527   .     S
C571   H609    1.112   .     S
C572   H608    1.110   .     S
C572   H607    1.111   .     S
C572   H606    1.110   .     S
C573   O626    1.284   .     A
C573   O627    1.284   .     A
C574   N620    1.366   .     A
C574   H579    1.081   .     S
C575   H590    1.080   .     S
C575   N619    1.365   .     A
C575   C36     1.412   1_565 S
C576   N620    1.366   .     A
C576   H601    1.081   .     S
C577   N619    1.365   .     A
C577   H612    1.080   .     S
C577   C34     1.412   1_565 S
C578   C723    1.409   1_455 S
H584   C22     1.103   1_565 S
H585   C22     1.110   1_565 S
H599   C29     1.103   1_565 S
H600   C29     1.110   1_565 S
N619   Zn629   2.002   .     S
N620   Zn630   2.002   .     S
O621   Zn629   2.030   .     S
O622   Zn630   2.030   .     S
O623   Zn629   2.030   .     S
O624   Zn630   2.030   .     S
O625   Zn629   2.000   .     S
O626   Zn630   2.000   .     S
O627   Zn629   2.000   .     S
O628   Zn630   2.000   .     S
C631   O714    1.272   .     A
C631   O711    1.304   .     A
C631   C649    1.456   .     S
C632   C648    1.407   .     A
C632   C654    1.529   .     S
C632   C724    1.387   .     S
C633   C648    1.437   .     A
C633   C657    1.546   .     S
C633   C758    1.409   .     S
C634   C649    1.407   .     A
C634   C660    1.529   .     S
C635   H704    1.083   .     S
C635   C646    1.399   .     A
C635   C639    1.380   .     A
C636   H705    1.083   .     S
C636   C647    1.399   .     A
C636   C640    1.380   .     A
C637   C641    1.380   .     A
C637   C647    1.399   .     A
C637   H706    1.083   .     S
C638   C643    1.380   .     A
C638   C646    1.399   .     A
C638   H707    1.083   .     S
C639   C644    1.399   .     A
C639   H708    1.083   .     S
C640   C645    1.399   .     A
C640   H670    1.084   .     S
C641   C645    1.399   .     A
C641   H671    1.083   .     S
C642   O713    1.304   .     A
C642   O712    1.272   .     A
C642   C648    1.456   .     S
C643   H672    1.084   .     S
C643   C644    1.399   .     A
C644   C653    1.436   .     S
C645   C663    1.436   .     S
C646   C1457   1.443   1_554 S
C647   C1456   1.443   .     S
C649   C668    1.437   .     A
C650   H679    1.105   .     S
C650   C668    1.546   .     S
C650   H678    1.107   .     S
C650   C651    1.547   .     S
C651   C652    1.520   .     S
C651   H676    1.111   .     S
C651   H677    1.108   .     S
C652   H673    1.106   .     S
C653   O718    1.284   .     A
C653   O715    1.284   .     A
C654   H687    1.104   .     S
C654   C655    1.537   .     S
C654   H686    1.105   .     S
C655   H684    1.112   .     S
C655   C656    1.527   .     S
C655   H685    1.110   .     S
C656   H682    1.111   .     S
C656   H683    1.110   .     S
C656   H681    1.110   .     S
C657   H695    1.105   .     S
C657   H694    1.107   .     S
C657   C658    1.547   .     S
C658   C659    1.520   .     S
C658   H693    1.108   .     S
C658   H692    1.111   .     S
C659   H688    1.106   .     S
C660   H701    1.105   .     S
C660   C661    1.537   .     S
C660   H703    1.104   .     S
C661   H700    1.110   .     S
C661   C662    1.527   .     S
C661   H699    1.112   .     S
C662   H698    1.110   .     S
C662   H697    1.111   .     S
C662   H696    1.110   .     S
C663   O716    1.284   .     A
C663   O717    1.284   .     A
C664   N710    1.366   .     A
C664   H669    1.081   .     S
C665   H680    1.080   .     S
C665   N709    1.365   .     A
C665   C126    1.412   1_565 S
C666   N710    1.366   .     A
C666   H691    1.081   .     S
C667   N709    1.365   .     A
C667   H702    1.080   .     S
C667   C124    1.412   1_565 S
H674   C112    1.103   1_565 S
H675   C112    1.110   1_565 S
H689   C119    1.103   1_565 S
H690   C119    1.110   1_565 S
N709   Zn719   2.002   .     S
N710   Zn720   2.002   .     S
O711   Zn719   2.030   .     S
O712   Zn720   2.030   .     S
O713   Zn719   2.030   .     S
O714   Zn720   2.030   .     S
O715   Zn719   2.000   .     S
O716   Zn720   2.000   .     S
O717   Zn719   2.000   .     S
O718   Zn720   2.000   .     S
C721   O804    1.272   .     A
C721   O801    1.304   .     A
C721   C739    1.456   .     S
C722   C738    1.407   .     A
C722   C744    1.529   .     S
C722   C544    1.387   1_655 S
C723   C738    1.437   .     A
C723   C747    1.546   .     S
C723   C578    1.409   1_655 S
C724   C739    1.407   .     A
C724   C750    1.529   .     S
C725   H794    1.083   .     S
C725   C736    1.399   .     A
C725   C729    1.380   .     A
C726   H795    1.083   .     S
C726   C737    1.399   .     A
C726   C730    1.380   .     A
C727   C731    1.380   .     A
C727   C737    1.399   .     A
C727   H796    1.083   .     S
C728   C733    1.380   .     A
C728   C736    1.399   .     A
C728   H797    1.083   .     S
C729   C734    1.399   .     A
C729   H798    1.083   .     S
C730   C735    1.399   .     A
C730   H760    1.084   .     S
C731   C735    1.399   .     A
C731   H761    1.083   .     S
C732   O803    1.304   .     A
C732   O802    1.272   .     A
C732   C738    1.456   .     S
C733   H762    1.084   .     S
C733   C734    1.399   .     A
C734   C743    1.436   .     S
C735   C753    1.436   .     S
C736   C1547   1.443   1_554 S
C737   C1546   1.443   .     S
C739   C758    1.437   .     A
C740   H769    1.105   .     S
C740   C758    1.546   .     S
C740   H768    1.107   .     S
C740   C741    1.547   .     S
C741   C742    1.520   .     S
C741   H766    1.111   .     S
C741   H767    1.108   .     S
C742   H763    1.106   .     S
C743   O808    1.284   .     A
C743   O805    1.284   .     A
C744   H777    1.104   .     S
C744   C745    1.537   .     S
C744   H776    1.105   .     S
C745   H774    1.112   .     S
C745   C746    1.527   .     S
C745   H775    1.110   .     S
C746   H772    1.111   .     S
C746   H773    1.110   .     S
C746   H771    1.110   .     S
C747   H785    1.105   .     S
C747   H784    1.107   .     S
C747   C748    1.547   .     S
C748   C749    1.520   .     S
C748   H783    1.108   .     S
C748   H782    1.111   .     S
C749   H778    1.106   .     S
C750   H791    1.105   .     S
C750   C751    1.537   .     S
C750   H793    1.104   .     S
C751   H790    1.110   .     S
C751   C752    1.527   .     S
C751   H789    1.112   .     S
C752   H788    1.110   .     S
C752   H787    1.111   .     S
C752   H786    1.110   .     S
C753   O806    1.284   .     A
C753   O807    1.284   .     A
C754   N800    1.366   .     A
C754   H759    1.081   .     S
C755   H770    1.080   .     S
C755   N799    1.365   .     A
C755   C216    1.412   1_565 S
C756   N800    1.366   .     A
C756   H781    1.081   .     S
C757   N799    1.365   .     A
C757   H792    1.080   .     S
C757   C214    1.412   1_565 S
H764   C202    1.103   1_565 S
H765   C202    1.110   1_565 S
H779   C209    1.103   1_565 S
H780   C209    1.110   1_565 S
N799   Zn809   2.002   .     S
N800   Zn810   2.002   .     S
O801   Zn809   2.030   .     S
O802   Zn810   2.030   .     S
O803   Zn809   2.030   .     S
O804   Zn810   2.030   .     S
O805   Zn809   2.000   .     S
O806   Zn810   2.000   .     S
O807   Zn809   2.000   .     S
O808   Zn810   2.000   .     S
C811   O894    1.272   .     A
C811   O891    1.304   .     A
C811   C829    1.456   .     S
C812   C828    1.407   .     A
C812   C834    1.529   .     S
C812   C904    1.387   .     S
C813   C828    1.437   .     A
C813   C837    1.546   .     S
C813   C938    1.409   .     S
C814   C829    1.407   .     A
C814   C840    1.529   .     S
C814   C992    1.387   1_455 S
C815   H884    1.083   .     S
C815   C826    1.399   .     A
C815   C819    1.380   .     A
C816   H885    1.083   .     S
C816   C827    1.399   .     A
C816   C820    1.380   .     A
C817   C821    1.380   .     A
C817   C827    1.399   .     A
C817   H886    1.083   .     S
C818   C823    1.380   .     A
C818   C826    1.399   .     A
C818   H887    1.083   .     S
C819   C824    1.399   .     A
C819   H888    1.083   .     S
C820   C825    1.399   .     A
C820   H850    1.084   .     S
C821   C825    1.399   .     A
C821   H851    1.083   .     S
C822   O893    1.304   .     A
C822   O892    1.272   .     A
C822   C828    1.456   .     S
C823   H852    1.084   .     S
C823   C824    1.399   .     A
C824   C833    1.436   .     S
C825   C843    1.436   .     S
C827   C16     1.443   1_556 S
C829   C848    1.437   .     A
C830   H859    1.105   .     S
C830   C848    1.546   .     S
C830   H858    1.107   .     S
C830   C831    1.547   .     S
C831   C832    1.520   .     S
C831   H856    1.111   .     S
C831   H857    1.108   .     S
C832   H853    1.106   .     S
C832   H1394   1.103   1_545 S
C832   H1395   1.110   1_545 S
C833   O898    1.284   .     A
C833   O895    1.284   .     A
C834   H867    1.104   .     S
C834   C835    1.537   .     S
C834   H866    1.105   .     S
C835   H864    1.112   .     S
C835   C836    1.527   .     S
C835   H865    1.110   .     S
C836   H862    1.111   .     S
C836   H863    1.110   .     S
C836   H861    1.110   .     S
C837   H875    1.105   .     S
C837   H874    1.107   .     S
C837   C838    1.547   .     S
C838   C839    1.520   .     S
C838   H873    1.108   .     S
C838   H872    1.111   .     S
C839   H868    1.106   .     S
C839   H1409   1.103   1_545 S
C839   H1410   1.110   1_545 S
C840   H881    1.105   .     S
C840   C841    1.537   .     S
C840   H883    1.104   .     S
C841   H880    1.110   .     S
C841   C842    1.527   .     S
C841   H879    1.112   .     S
C842   H878    1.110   .     S
C842   H877    1.111   .     S
C842   H876    1.110   .     S
C843   O896    1.284   .     A
C843   O897    1.284   .     A
C844   N890    1.366   .     A
C844   H849    1.081   .     S
C844   C1387   1.412   1_545 S
C845   H860    1.080   .     S
C845   N889    1.365   .     A
C845   C1116   1.412   .     S
C846   N890    1.366   .     A
C846   H871    1.081   .     S
C846   C1385   1.412   1_545 S
C847   N889    1.365   .     A
C847   H882    1.080   .     S
C847   C1114   1.412   .     S
C848   C993    1.409   1_455 S
H854   C1102   1.103   .     S
H855   C1102   1.110   .     S
H869   C1109   1.103   .     S
H870   C1109   1.110   .     S
N889   Zn899   2.002   .     S
N890   Zn900   2.002   .     S
O891   Zn899   2.030   .     S
O892   Zn900   2.030   .     S
O893   Zn899   2.030   .     S
O894   Zn900   2.030   .     S
O895   Zn899   2.000   .     S
O896   Zn900   2.000   .     S
O897   Zn899   2.000   .     S
O898   Zn900   2.000   .     S
C901   O984    1.272   .     A
C901   O981    1.304   .     A
C901   C919    1.456   .     S
C902   C918    1.407   .     A
C902   C924    1.529   .     S
C902   C994    1.387   .     S
C903   C918    1.437   .     A
C903   C927    1.546   .     S
C903   C1028   1.409   .     S
C904   C919    1.407   .     A
C904   C930    1.529   .     S
C905   H974    1.083   .     S
C905   C916    1.399   .     A
C905   C909    1.380   .     A
C906   H975    1.083   .     S
C906   C917    1.399   .     A
C906   C910    1.380   .     A
C907   C911    1.380   .     A
C907   C917    1.399   .     A
C907   H976    1.083   .     S
C908   C913    1.380   .     A
C908   C916    1.399   .     A
C908   H977    1.083   .     S
C909   C914    1.399   .     A
C909   H978    1.083   .     S
C910   C915    1.399   .     A
C910   H940    1.084   .     S
C911   C915    1.399   .     A
C911   H941    1.083   .     S
C912   O983    1.304   .     A
C912   O982    1.272   .     A
C912   C918    1.456   .     S
C913   H942    1.084   .     S
C913   C914    1.399   .     A
C914   C923    1.436   .     S
C915   C933    1.436   .     S
C917   C106    1.443   1_556 S
C919   C938    1.437   .     A
C920   H949    1.105   .     S
C920   C938    1.546   .     S
C920   H948    1.107   .     S
C920   C921    1.547   .     S
C921   C922    1.520   .     S
C921   H946    1.111   .     S
C921   H947    1.108   .     S
C922   H943    1.106   .     S
C922   H1484   1.103   1_545 S
C922   H1485   1.110   1_545 S
C923   O988    1.284   .     A
C923   O985    1.284   .     A
C924   H957    1.104   .     S
C924   C925    1.537   .     S
C924   H956    1.105   .     S
C925   H954    1.112   .     S
C925   C926    1.527   .     S
C925   H955    1.110   .     S
C926   H952    1.111   .     S
C926   H953    1.110   .     S
C926   H951    1.110   .     S
C927   H965    1.105   .     S
C927   H964    1.107   .     S
C927   C928    1.547   .     S
C928   C929    1.520   .     S
C928   H963    1.108   .     S
C928   H962    1.111   .     S
C929   H958    1.106   .     S
C929   H1499   1.103   1_545 S
C929   H1500   1.110   1_545 S
C930   H971    1.105   .     S
C930   C931    1.537   .     S
C930   H973    1.104   .     S
C931   H970    1.110   .     S
C931   C932    1.527   .     S
C931   H969    1.112   .     S
C932   H968    1.110   .     S
C932   H967    1.111   .     S
C932   H966    1.110   .     S
C933   O986    1.284   .     A
C933   O987    1.284   .     A
C934   N980    1.366   .     A
C934   H939    1.081   .     S
C934   C1477   1.412   1_545 S
C935   H950    1.080   .     S
C935   N979    1.365   .     A
C935   C1206   1.412   .     S
C936   N980    1.366   .     A
C936   H961    1.081   .     S
C936   C1475   1.412   1_545 S
C937   N979    1.365   .     A
C937   H972    1.080   .     S
C937   C1204   1.412   .     S
H944   C1192   1.103   .     S
H945   C1192   1.110   .     S
H959   C1199   1.103   .     S
H960   C1199   1.110   .     S
N979   Zn989   2.002   .     S
N980   Zn990   2.002   .     S
O981   Zn989   2.030   .     S
O982   Zn990   2.030   .     S
O983   Zn989   2.030   .     S
O984   Zn990   2.030   .     S
O985   Zn989   2.000   .     S
O986   Zn990   2.000   .     S
O987   Zn989   2.000   .     S
O988   Zn990   2.000   .     S
C991   O1074   1.272   .     A
C991   O1071   1.304   .     A
C991   C1009   1.456   .     S
C992   C1008   1.407   .     A
C992   C1014   1.529   .     S
C992   C814    1.387   1_655 S
C993   C1008   1.437   .     A
C993   C1017   1.546   .     S
C993   C848    1.409   1_655 S
C994   C1009   1.407   .     A
C994   C1020   1.529   .     S
C995   H1064   1.083   .     S
C995   C1006   1.399   .     A
C995   C999    1.380   .     A
C996   H1065   1.083   .     S
C996   C1007   1.399   .     A
C996   C1000   1.380   .     A
C997   C1001   1.380   .     A
C997   C1007   1.399   .     A
C997   H1066   1.083   .     S
C998   C1003   1.380   .     A
C998   C1006   1.399   .     A
C998   H1067   1.083   .     S
C999   C1004   1.399   .     A
C999   H1068   1.083   .     S
C1000  C1005   1.399   .     A
C1000  H1030   1.084   .     S
C1001  C1005   1.399   .     A
C1001  H1031   1.083   .     S
C1002  O1073   1.304   .     A
C1002  O1072   1.272   .     A
C1002  C1008   1.456   .     S
C1003  H1032   1.084   .     S
C1003  C1004   1.399   .     A
C1004  C1013   1.436   .     S
C1005  C1023   1.436   .     S
C1007  C196    1.443   1_556 S
C1009  C1028   1.437   .     A
C1010  H1039   1.105   .     S
C1010  C1028   1.546   .     S
C1010  H1038   1.107   .     S
C1010  C1011   1.547   .     S
C1011  C1012   1.520   .     S
C1011  H1036   1.111   .     S
C1011  H1037   1.108   .     S
C1012  H1033   1.106   .     S
C1012  H1574   1.103   1_545 S
C1012  H1575   1.110   1_545 S
C1013  O1078   1.284   .     A
C1013  O1075   1.284   .     A
C1014  H1047   1.104   .     S
C1014  C1015   1.537   .     S
C1014  H1046   1.105   .     S
C1015  H1044   1.112   .     S
C1015  C1016   1.527   .     S
C1015  H1045   1.110   .     S
C1016  H1042   1.111   .     S
C1016  H1043   1.110   .     S
C1016  H1041   1.110   .     S
C1017  H1055   1.105   .     S
C1017  H1054   1.107   .     S
C1017  C1018   1.547   .     S
C1018  C1019   1.520   .     S
C1018  H1053   1.108   .     S
C1018  H1052   1.111   .     S
C1019  H1048   1.106   .     S
C1019  H1589   1.103   1_545 S
C1019  H1590   1.110   1_545 S
C1020  H1061   1.105   .     S
C1020  C1021   1.537   .     S
C1020  H1063   1.104   .     S
C1021  H1060   1.110   .     S
C1021  C1022   1.527   .     S
C1021  H1059   1.112   .     S
C1022  H1058   1.110   .     S
C1022  H1057   1.111   .     S
C1022  H1056   1.110   .     S
C1023  O1076   1.284   .     A
C1023  O1077   1.284   .     A
C1024  N1070   1.366   .     A
C1024  H1029   1.081   .     S
C1024  C1567   1.412   1_545 S
C1025  H1040   1.080   .     S
C1025  N1069   1.365   .     A
C1025  C1296   1.412   .     S
C1026  N1070   1.366   .     A
C1026  H1051   1.081   .     S
C1026  C1565   1.412   1_545 S
C1027  N1069   1.365   .     A
C1027  H1062   1.080   .     S
C1027  C1294   1.412   .     S
H1034  C1282   1.103   .     S
H1035  C1282   1.110   .     S
H1049  C1289   1.103   .     S
H1050  C1289   1.110   .     S
N1069  Zn1079  2.002   .     S
N1070  Zn1080  2.002   .     S
O1071  Zn1079  2.030   .     S
O1072  Zn1080  2.030   .     S
O1073  Zn1079  2.030   .     S
O1074  Zn1080  2.030   .     S
O1075  Zn1079  2.000   .     S
O1076  Zn1080  2.000   .     S
O1077  Zn1079  2.000   .     S
O1078  Zn1080  2.000   .     S
C1081  O1164   1.272   .     A
C1081  O1161   1.304   .     A
C1081  C1099   1.456   .     S
C1082  C1098   1.407   .     A
C1082  C1104   1.529   .     S
C1082  C1174   1.387   .     S
C1083  C1098   1.437   .     A
C1083  C1107   1.546   .     S
C1083  C1208   1.409   .     S
C1084  C1099   1.407   .     A
C1084  C1110   1.529   .     S
C1084  C1262   1.387   1_455 S
C1085  H1154   1.083   .     S
C1085  C1096   1.399   .     A
C1085  C1089   1.380   .     A
C1086  H1155   1.083   .     S
C1086  C1097   1.399   .     A
C1086  C1090   1.380   .     A
C1087  C1091   1.380   .     A
C1087  C1097   1.399   .     A
C1087  H1156   1.083   .     S
C1088  C1093   1.380   .     A
C1088  C1096   1.399   .     A
C1088  H1157   1.083   .     S
C1089  C1094   1.399   .     A
C1089  H1158   1.083   .     S
C1090  C1095   1.399   .     A
C1090  H1120   1.084   .     S
C1091  C1095   1.399   .     A
C1091  H1121   1.083   .     S
C1092  O1163   1.304   .     A
C1092  O1162   1.272   .     A
C1092  C1098   1.456   .     S
C1093  H1122   1.084   .     S
C1093  C1094   1.399   .     A
C1094  C1103   1.436   .     S
C1095  C1113   1.436   .     S
C1097  C286    1.443   1_556 S
C1099  C1118   1.437   .     A
C1100  H1129   1.105   .     S
C1100  C1118   1.546   .     S
C1100  H1128   1.107   .     S
C1100  C1101   1.547   .     S
C1101  C1102   1.520   .     S
C1101  H1126   1.111   .     S
C1101  H1127   1.108   .     S
C1102  H1123   1.106   .     S
C1103  O1168   1.284   .     A
C1103  O1165   1.284   .     A
C1104  H1137   1.104   .     S
C1104  C1105   1.537   .     S
C1104  H1136   1.105   .     S
C1105  H1134   1.112   .     S
C1105  C1106   1.527   .     S
C1105  H1135   1.110   .     S
C1106  H1132   1.111   .     S
C1106  H1133   1.110   .     S
C1106  H1131   1.110   .     S
C1107  H1145   1.105   .     S
C1107  H1144   1.107   .     S
C1107  C1108   1.547   .     S
C1108  C1109   1.520   .     S
C1108  H1143   1.108   .     S
C1108  H1142   1.111   .     S
C1109  H1138   1.106   .     S
C1110  H1151   1.105   .     S
C1110  C1111   1.537   .     S
C1110  H1153   1.104   .     S
C1111  H1150   1.110   .     S
C1111  C1112   1.527   .     S
C1111  H1149   1.112   .     S
C1112  H1148   1.110   .     S
C1112  H1147   1.111   .     S
C1112  H1146   1.110   .     S
C1113  O1166   1.284   .     A
C1113  O1167   1.284   .     A
C1114  N1160   1.366   .     A
C1114  H1119   1.081   .     S
C1115  H1130   1.080   .     S
C1115  N1159   1.365   .     A
C1115  C1386   1.412   .     S
C1116  N1160   1.366   .     A
C1116  H1141   1.081   .     S
C1117  N1159   1.365   .     A
C1117  H1152   1.080   .     S
C1117  C1384   1.412   .     S
C1118  C1263   1.409   1_455 S
H1124  C1372   1.103   .     S
H1125  C1372   1.110   .     S
H1139  C1379   1.103   .     S
H1140  C1379   1.110   .     S
N1159  Zn1169  2.002   .     S
N1160  Zn1170  2.002   .     S
O1161  Zn1169  2.030   .     S
O1162  Zn1170  2.030   .     S
O1163  Zn1169  2.030   .     S
O1164  Zn1170  2.030   .     S
O1165  Zn1169  2.000   .     S
O1166  Zn1170  2.000   .     S
O1167  Zn1169  2.000   .     S
O1168  Zn1170  2.000   .     S
C1171  O1254   1.272   .     A
C1171  O1251   1.304   .     A
C1171  C1189   1.456   .     S
C1172  C1188   1.407   .     A
C1172  C1194   1.529   .     S
C1172  C1264   1.387   .     S
C1173  C1188   1.437   .     A
C1173  C1197   1.546   .     S
C1173  C1298   1.409   .     S
C1174  C1189   1.407   .     A
C1174  C1200   1.529   .     S
C1175  H1244   1.083   .     S
C1175  C1186   1.399   .     A
C1175  C1179   1.380   .     A
C1176  H1245   1.083   .     S
C1176  C1187   1.399   .     A
C1176  C1180   1.380   .     A
C1177  C1181   1.380   .     A
C1177  C1187   1.399   .     A
C1177  H1246   1.083   .     S
C1178  C1183   1.380   .     A
C1178  C1186   1.399   .     A
C1178  H1247   1.083   .     S
C1179  C1184   1.399   .     A
C1179  H1248   1.083   .     S
C1180  C1185   1.399   .     A
C1180  H1210   1.084   .     S
C1181  C1185   1.399   .     A
C1181  H1211   1.083   .     S
C1182  O1253   1.304   .     A
C1182  O1252   1.272   .     A
C1182  C1188   1.456   .     S
C1183  H1212   1.084   .     S
C1183  C1184   1.399   .     A
C1184  C1193   1.436   .     S
C1185  C1203   1.436   .     S
C1187  C376    1.443   1_556 S
C1189  C1208   1.437   .     A
C1190  H1219   1.105   .     S
C1190  C1208   1.546   .     S
C1190  H1218   1.107   .     S
C1190  C1191   1.547   .     S
C1191  C1192   1.520   .     S
C1191  H1216   1.111   .     S
C1191  H1217   1.108   .     S
C1192  H1213   1.106   .     S
C1193  O1258   1.284   .     A
C1193  O1255   1.284   .     A
C1194  H1227   1.104   .     S
C1194  C1195   1.537   .     S
C1194  H1226   1.105   .     S
C1195  H1224   1.112   .     S
C1195  C1196   1.527   .     S
C1195  H1225   1.110   .     S
C1196  H1222   1.111   .     S
C1196  H1223   1.110   .     S
C1196  H1221   1.110   .     S
C1197  H1235   1.105   .     S
C1197  H1234   1.107   .     S
C1197  C1198   1.547   .     S
C1198  C1199   1.520   .     S
C1198  H1233   1.108   .     S
C1198  H1232   1.111   .     S
C1199  H1228   1.106   .     S
C1200  H1241   1.105   .     S
C1200  C1201   1.537   .     S
C1200  H1243   1.104   .     S
C1201  H1240   1.110   .     S
C1201  C1202   1.527   .     S
C1201  H1239   1.112   .     S
C1202  H1238   1.110   .     S
C1202  H1237   1.111   .     S
C1202  H1236   1.110   .     S
C1203  O1256   1.284   .     A
C1203  O1257   1.284   .     A
C1204  N1250   1.366   .     A
C1204  H1209   1.081   .     S
C1205  H1220   1.080   .     S
C1205  N1249   1.365   .     A
C1205  C1476   1.412   .     S
C1206  N1250   1.366   .     A
C1206  H1231   1.081   .     S
C1207  N1249   1.365   .     A
C1207  H1242   1.080   .     S
C1207  C1474   1.412   .     S
H1214  C1462   1.103   .     S
H1215  C1462   1.110   .     S
H1229  C1469   1.103   .     S
H1230  C1469   1.110   .     S
N1249  Zn1259  2.002   .     S
N1250  Zn1260  2.002   .     S
O1251  Zn1259  2.030   .     S
O1252  Zn1260  2.030   .     S
O1253  Zn1259  2.030   .     S
O1254  Zn1260  2.030   .     S
O1255  Zn1259  2.000   .     S
O1256  Zn1260  2.000   .     S
O1257  Zn1259  2.000   .     S
O1258  Zn1260  2.000   .     S
C1261  O1344   1.272   .     A
C1261  O1341   1.304   .     A
C1261  C1279   1.456   .     S
C1262  C1278   1.407   .     A
C1262  C1284   1.529   .     S
C1262  C1084   1.387   1_655 S
C1263  C1278   1.437   .     A
C1263  C1287   1.546   .     S
C1263  C1118   1.409   1_655 S
C1264  C1279   1.407   .     A
C1264  C1290   1.529   .     S
C1265  H1334   1.083   .     S
C1265  C1276   1.399   .     A
C1265  C1269   1.380   .     A
C1266  H1335   1.083   .     S
C1266  C1277   1.399   .     A
C1266  C1270   1.380   .     A
C1267  C1271   1.380   .     A
C1267  C1277   1.399   .     A
C1267  H1336   1.083   .     S
C1268  C1273   1.380   .     A
C1268  C1276   1.399   .     A
C1268  H1337   1.083   .     S
C1269  C1274   1.399   .     A
C1269  H1338   1.083   .     S
C1270  C1275   1.399   .     A
C1270  H1300   1.084   .     S
C1271  C1275   1.399   .     A
C1271  H1301   1.083   .     S
C1272  O1343   1.304   .     A
C1272  O1342   1.272   .     A
C1272  C1278   1.456   .     S
C1273  H1302   1.084   .     S
C1273  C1274   1.399   .     A
C1274  C1283   1.436   .     S
C1275  C1293   1.436   .     S
C1277  C466    1.443   1_556 S
C1279  C1298   1.437   .     A
C1280  H1309   1.105   .     S
C1280  C1298   1.546   .     S
C1280  H1308   1.107   .     S
C1280  C1281   1.547   .     S
C1281  C1282   1.520   .     S
C1281  H1306   1.111   .     S
C1281  H1307   1.108   .     S
C1282  H1303   1.106   .     S
C1283  O1348   1.284   .     A
C1283  O1345   1.284   .     A
C1284  H1317   1.104   .     S
C1284  C1285   1.537   .     S
C1284  H1316   1.105   .     S
C1285  H1314   1.112   .     S
C1285  C1286   1.527   .     S
C1285  H1315   1.110   .     S
C1286  H1312   1.111   .     S
C1286  H1313   1.110   .     S
C1286  H1311   1.110   .     S
C1287  H1325   1.105   .     S
C1287  H1324   1.107   .     S
C1287  C1288   1.547   .     S
C1288  C1289   1.520   .     S
C1288  H1323   1.108   .     S
C1288  H1322   1.111   .     S
C1289  H1318   1.106   .     S
C1290  H1331   1.105   .     S
C1290  C1291   1.537   .     S
C1290  H1333   1.104   .     S
C1291  H1330   1.110   .     S
C1291  C1292   1.527   .     S
C1291  H1329   1.112   .     S
C1292  H1328   1.110   .     S
C1292  H1327   1.111   .     S
C1292  H1326   1.110   .     S
C1293  O1346   1.284   .     A
C1293  O1347   1.284   .     A
C1294  N1340   1.366   .     A
C1294  H1299   1.081   .     S
C1295  H1310   1.080   .     S
C1295  N1339   1.365   .     A
C1295  C1566   1.412   .     S
C1296  N1340   1.366   .     A
C1296  H1321   1.081   .     S
C1297  N1339   1.365   .     A
C1297  H1332   1.080   .     S
C1297  C1564   1.412   .     S
H1304  C1552   1.103   .     S
H1305  C1552   1.110   .     S
H1319  C1559   1.103   .     S
H1320  C1559   1.110   .     S
N1339  Zn1349  2.002   .     S
N1340  Zn1350  2.002   .     S
O1341  Zn1349  2.030   .     S
O1342  Zn1350  2.030   .     S
O1343  Zn1349  2.030   .     S
O1344  Zn1350  2.030   .     S
O1345  Zn1349  2.000   .     S
O1346  Zn1350  2.000   .     S
O1347  Zn1349  2.000   .     S
O1348  Zn1350  2.000   .     S
C1351  O1434   1.272   .     A
C1351  O1431   1.304   .     A
C1351  C1369   1.456   .     S
C1352  C1368   1.407   .     A
C1352  C1374   1.529   .     S
C1352  C1444   1.387   .     S
C1353  C1368   1.437   .     A
C1353  C1377   1.546   .     S
C1353  C1478   1.409   .     S
C1354  C1369   1.407   .     A
C1354  C1380   1.529   .     S
C1354  C1532   1.387   1_455 S
C1355  H1424   1.083   .     S
C1355  C1366   1.399   .     A
C1355  C1359   1.380   .     A
C1356  H1425   1.083   .     S
C1356  C1367   1.399   .     A
C1356  C1360   1.380   .     A
C1357  C1361   1.380   .     A
C1357  C1367   1.399   .     A
C1357  H1426   1.083   .     S
C1358  C1363   1.380   .     A
C1358  C1366   1.399   .     A
C1358  H1427   1.083   .     S
C1359  C1364   1.399   .     A
C1359  H1428   1.083   .     S
C1360  C1365   1.399   .     A
C1360  H1390   1.084   .     S
C1361  C1365   1.399   .     A
C1361  H1391   1.083   .     S
C1362  O1433   1.304   .     A
C1362  O1432   1.272   .     A
C1362  C1368   1.456   .     S
C1363  H1392   1.084   .     S
C1363  C1364   1.399   .     A
C1364  C1373   1.436   .     S
C1365  C1383   1.436   .     S
C1367  C556    1.443   1_556 S
C1369  C1388   1.437   .     A
C1370  H1399   1.105   .     S
C1370  C1388   1.546   .     S
C1370  H1398   1.107   .     S
C1370  C1371   1.547   .     S
C1371  C1372   1.520   .     S
C1371  H1396   1.111   .     S
C1371  H1397   1.108   .     S
C1372  H1393   1.106   .     S
C1373  O1438   1.284   .     A
C1373  O1435   1.284   .     A
C1374  H1407   1.104   .     S
C1374  C1375   1.537   .     S
C1374  H1406   1.105   .     S
C1375  H1404   1.112   .     S
C1375  C1376   1.527   .     S
C1375  H1405   1.110   .     S
C1376  H1402   1.111   .     S
C1376  H1403   1.110   .     S
C1376  H1401   1.110   .     S
C1377  H1415   1.105   .     S
C1377  H1414   1.107   .     S
C1377  C1378   1.547   .     S
C1378  C1379   1.520   .     S
C1378  H1413   1.108   .     S
C1378  H1412   1.111   .     S
C1379  H1408   1.106   .     S
C1380  H1421   1.105   .     S
C1380  C1381   1.537   .     S
C1380  H1423   1.104   .     S
C1381  H1420   1.110   .     S
C1381  C1382   1.527   .     S
C1381  H1419   1.112   .     S
C1382  H1418   1.110   .     S
C1382  H1417   1.111   .     S
C1382  H1416   1.110   .     S
C1383  O1436   1.284   .     A
C1383  O1437   1.284   .     A
C1384  N1430   1.366   .     A
C1384  H1389   1.081   .     S
C1385  H1400   1.080   .     S
C1385  N1429   1.365   .     A
C1385  C846    1.412   1_565 S
C1386  N1430   1.366   .     A
C1386  H1411   1.081   .     S
C1387  N1429   1.365   .     A
C1387  H1422   1.080   .     S
C1387  C844    1.412   1_565 S
C1388  C1533   1.409   1_455 S
H1394  C832    1.103   1_565 S
H1395  C832    1.110   1_565 S
H1409  C839    1.103   1_565 S
H1410  C839    1.110   1_565 S
N1429  Zn1439  2.002   .     S
N1430  Zn1440  2.002   .     S
O1431  Zn1439  2.030   .     S
O1432  Zn1440  2.030   .     S
O1433  Zn1439  2.030   .     S
O1434  Zn1440  2.030   .     S
O1435  Zn1439  2.000   .     S
O1436  Zn1440  2.000   .     S
O1437  Zn1439  2.000   .     S
O1438  Zn1440  2.000   .     S
C1441  O1524   1.272   .     A
C1441  O1521   1.304   .     A
C1441  C1459   1.456   .     S
C1442  C1458   1.407   .     A
C1442  C1464   1.529   .     S
C1442  C1534   1.387   .     S
C1443  C1458   1.437   .     A
C1443  C1467   1.546   .     S
C1443  C1568   1.409   .     S
C1444  C1459   1.407   .     A
C1444  C1470   1.529   .     S
C1445  H1514   1.083   .     S
C1445  C1456   1.399   .     A
C1445  C1449   1.380   .     A
C1446  H1515   1.083   .     S
C1446  C1457   1.399   .     A
C1446  C1450   1.380   .     A
C1447  C1451   1.380   .     A
C1447  C1457   1.399   .     A
C1447  H1516   1.083   .     S
C1448  C1453   1.380   .     A
C1448  C1456   1.399   .     A
C1448  H1517   1.083   .     S
C1449  C1454   1.399   .     A
C1449  H1518   1.083   .     S
C1450  C1455   1.399   .     A
C1450  H1480   1.084   .     S
C1451  C1455   1.399   .     A
C1451  H1481   1.083   .     S
C1452  O1523   1.304   .     A
C1452  O1522   1.272   .     A
C1452  C1458   1.456   .     S
C1453  H1482   1.084   .     S
C1453  C1454   1.399   .     A
C1454  C1463   1.436   .     S
C1455  C1473   1.436   .     S
C1457  C646    1.443   1_556 S
C1459  C1478   1.437   .     A
C1460  H1489   1.105   .     S
C1460  C1478   1.546   .     S
C1460  H1488   1.107   .     S
C1460  C1461   1.547   .     S
C1461  C1462   1.520   .     S
C1461  H1486   1.111   .     S
C1461  H1487   1.108   .     S
C1462  H1483   1.106   .     S
C1463  O1528   1.284   .     A
C1463  O1525   1.284   .     A
C1464  H1497   1.104   .     S
C1464  C1465   1.537   .     S
C1464  H1496   1.105   .     S
C1465  H1494   1.112   .     S
C1465  C1466   1.527   .     S
C1465  H1495   1.110   .     S
C1466  H1492   1.111   .     S
C1466  H1493   1.110   .     S
C1466  H1491   1.110   .     S
C1467  H1505   1.105   .     S
C1467  H1504   1.107   .     S
C1467  C1468   1.547   .     S
C1468  C1469   1.520   .     S
C1468  H1503   1.108   .     S
C1468  H1502   1.111   .     S
C1469  H1498   1.106   .     S
C1470  H1511   1.105   .     S
C1470  C1471   1.537   .     S
C1470  H1513   1.104   .     S
C1471  H1510   1.110   .     S
C1471  C1472   1.527   .     S
C1471  H1509   1.112   .     S
C1472  H1508   1.110   .     S
C1472  H1507   1.111   .     S
C1472  H1506   1.110   .     S
C1473  O1526   1.284   .     A
C1473  O1527   1.284   .     A
C1474  N1520   1.366   .     A
C1474  H1479   1.081   .     S
C1475  H1490   1.080   .     S
C1475  N1519   1.365   .     A
C1475  C936    1.412   1_565 S
C1476  N1520   1.366   .     A
C1476  H1501   1.081   .     S
C1477  N1519   1.365   .     A
C1477  H1512   1.080   .     S
C1477  C934    1.412   1_565 S
H1484  C922    1.103   1_565 S
H1485  C922    1.110   1_565 S
H1499  C929    1.103   1_565 S
H1500  C929    1.110   1_565 S
N1519  Zn1529  2.002   .     S
N1520  Zn1530  2.002   .     S
O1521  Zn1529  2.030   .     S
O1522  Zn1530  2.030   .     S
O1523  Zn1529  2.030   .     S
O1524  Zn1530  2.030   .     S
O1525  Zn1529  2.000   .     S
O1526  Zn1530  2.000   .     S
O1527  Zn1529  2.000   .     S
O1528  Zn1530  2.000   .     S
C1531  O1614   1.272   .     A
C1531  O1611   1.304   .     A
C1531  C1549   1.456   .     S
C1532  C1548   1.407   .     A
C1532  C1554   1.529   .     S
C1532  C1354   1.387   1_655 S
C1533  C1548   1.437   .     A
C1533  C1557   1.546   .     S
C1533  C1388   1.409   1_655 S
C1534  C1549   1.407   .     A
C1534  C1560   1.529   .     S
C1535  H1604   1.083   .     S
C1535  C1546   1.399   .     A
C1535  C1539   1.380   .     A
C1536  H1605   1.083   .     S
C1536  C1547   1.399   .     A
C1536  C1540   1.380   .     A
C1537  C1541   1.380   .     A
C1537  C1547   1.399   .     A
C1537  H1606   1.083   .     S
C1538  C1543   1.380   .     A
C1538  C1546   1.399   .     A
C1538  H1607   1.083   .     S
C1539  C1544   1.399   .     A
C1539  H1608   1.083   .     S
C1540  C1545   1.399   .     A
C1540  H1570   1.084   .     S
C1541  C1545   1.399   .     A
C1541  H1571   1.083   .     S
C1542  O1613   1.304   .     A
C1542  O1612   1.272   .     A
C1542  C1548   1.456   .     S
C1543  H1572   1.084   .     S
C1543  C1544   1.399   .     A
C1544  C1553   1.436   .     S
C1545  C1563   1.436   .     S
C1547  C736    1.443   1_556 S
C1549  C1568   1.437   .     A
C1550  H1579   1.105   .     S
C1550  C1568   1.546   .     S
C1550  H1578   1.107   .     S
C1550  C1551   1.547   .     S
C1551  C1552   1.520   .     S
C1551  H1576   1.111   .     S
C1551  H1577   1.108   .     S
C1552  H1573   1.106   .     S
C1553  O1618   1.284   .     A
C1553  O1615   1.284   .     A
C1554  H1587   1.104   .     S
C1554  C1555   1.537   .     S
C1554  H1586   1.105   .     S
C1555  H1584   1.112   .     S
C1555  C1556   1.527   .     S
C1555  H1585   1.110   .     S
C1556  H1582   1.111   .     S
C1556  H1583   1.110   .     S
C1556  H1581   1.110   .     S
C1557  H1595   1.105   .     S
C1557  H1594   1.107   .     S
C1557  C1558   1.547   .     S
C1558  C1559   1.520   .     S
C1558  H1593   1.108   .     S
C1558  H1592   1.111   .     S
C1559  H1588   1.106   .     S
C1560  H1601   1.105   .     S
C1560  C1561   1.537   .     S
C1560  H1603   1.104   .     S
C1561  H1600   1.110   .     S
C1561  C1562   1.527   .     S
C1561  H1599   1.112   .     S
C1562  H1598   1.110   .     S
C1562  H1597   1.111   .     S
C1562  H1596   1.110   .     S
C1563  O1616   1.284   .     A
C1563  O1617   1.284   .     A
C1564  N1610   1.366   .     A
C1564  H1569   1.081   .     S
C1565  H1580   1.080   .     S
C1565  N1609   1.365   .     A
C1565  C1026   1.412   1_565 S
C1566  N1610   1.366   .     A
C1566  H1591   1.081   .     S
C1567  N1609   1.365   .     A
C1567  H1602   1.080   .     S
C1567  C1024   1.412   1_565 S
H1574  C1012   1.103   1_565 S
H1575  C1012   1.110   1_565 S
H1589  C1019   1.103   1_565 S
H1590  C1019   1.110   1_565 S
N1609  Zn1619  2.002   .     S
N1610  Zn1620  2.002   .     S
O1611  Zn1619  2.030   .     S
O1612  Zn1620  2.030   .     S
O1613  Zn1619  2.030   .     S
O1614  Zn1620  2.030   .     S
O1615  Zn1619  2.000   .     S
O1616  Zn1620  2.000   .     S
O1617  Zn1619  2.000   .     S
O1618  Zn1620  2.000   .     S
