data_str_m3_o1_o16_pcu_sym.80
_audit_creation_date              2020-01-03
_audit_creation_method            'Materials Studio'
_symmetry_space_group_name_H-M    'P1'
_symmetry_Int_Tables_number       1
_symmetry_cell_setting            triclinic
loop_
_symmetry_equiv_pos_as_xyz
  x,y,z
_cell_length_a                    29.4988
_cell_length_b                    32.1695
_cell_length_c                    26.2260
_cell_angle_alpha                 90.1976
_cell_angle_beta                  70.0136
_cell_angle_gamma                 90.0294
loop_
_atom_site_label
_atom_site_type_symbol
_atom_site_fract_x
_atom_site_fract_y
_atom_site_fract_z
_atom_site_U_iso_or_equiv
_atom_site_adp_type
_atom_site_occupancy
C1     C     0.16661   0.24673   0.25027   0.00000  Uiso   1.00
C2     C     0.12279   0.15826   0.41082   0.00000  Uiso   1.00
C3     C     0.20940   0.31208   0.24452   0.00000  Uiso   1.00
C4     C     0.14003   0.16385   0.35205   0.00000  Uiso   1.00
C5     C     0.20939   0.02131   0.24450   0.00000  Uiso   1.00
C6     C     0.16645   0.04248   0.25081   0.00000  Uiso   1.00
C7     C     0.12342   0.02130   0.25763   0.00000  Uiso   1.00
C8     C     0.12343   0.31205   0.25765   0.00000  Uiso   1.00
C9     C     0.16648   0.29088   0.25084   0.00000  Uiso   1.00
C10    C     0.31991   0.14165   0.21513   0.00000  Uiso   1.00
C11    C     0.03455   0.14164   0.21516   0.00000  Uiso   1.00
C12    C     0.14394   0.15324   0.49200   0.00000  Uiso   1.00
C13    C     0.01338   0.19158   0.28500   0.00000  Uiso   1.00
C14    C     0.29873   0.19156   0.28501   0.00000  Uiso   1.00
C15    C     0.16659   0.08661   0.25021   0.00000  Uiso   1.00
C16    C     0.19339   0.16639   0.14773   0.00000  Uiso   1.00
C17    C     0.26199   0.12668   0.00811   0.00000  Uiso   1.00
C18    C     0.20958   0.16007   0.08936   0.00000  Uiso   1.00
C19    C     0.07626   0.17176   0.44172   0.00000  Uiso   1.00
C20    C     0.06259   0.17393   0.49782   0.00000  Uiso   1.00
C21    C     0.09630   0.16585   0.02291   0.00000  Uiso   1.00
C22    C     0.15457   0.14397   0.43689   0.00000  Uiso   1.00
C23    C     0.18139   0.14985   0.01388   0.00000  Uiso   1.00
C24    C     0.22601   0.13032   0.48403   0.00000  Uiso   1.00
C25    C     0.23284   0.11480   0.43154   0.00000  Uiso   1.00
C26    C     0.19690   0.12138   0.40906   0.00000  Uiso   1.00
C27    C     0.17592   0.16715   0.06425   0.00000  Uiso   1.00
C28    C     0.25332   0.14065   0.06099   0.00000  Uiso   1.00
H29    H     0.27987   0.13490   0.08025   0.00000  Uiso   1.00
H30    H     0.14467   0.18567   0.08569   0.00000  Uiso   1.00
H31    H     0.05093   0.18164   0.42246   0.00000  Uiso   1.00
H32    H     0.08385   0.16866   0.06656   0.00000  Uiso   1.00
H33    H     0.02643   0.18372   0.02176   0.00000  Uiso   1.00
H34    H     0.20194   0.10822   0.36956   0.00000  Uiso   1.00
H35    H     0.24295   0.29592   0.23919   0.00000  Uiso   1.00
H36    H     0.26222   0.04929   0.33897   0.00000  Uiso   1.00
H37    H     0.24293   0.03749   0.23916   0.00000  Uiso   1.00
H38    H     0.08988   0.03748   0.26300   0.00000  Uiso   1.00
H39    H     0.08990   0.29586   0.26302   0.00000  Uiso   1.00
H40    H     0.31015   0.12168   0.18725   0.00000  Uiso   1.00
H41    H     0.06118   0.12163   0.18730   0.00000  Uiso   1.00
H42    H     0.02310   0.21147   0.31298   0.00000  Uiso   1.00
H43    H     0.27206   0.21147   0.31298   0.00000  Uiso   1.00
H44    H     0.29629   0.11193   0.48745   0.00000  Uiso   1.00
N45    N     0.04760   0.16668   0.25001   0.00000  Uiso   1.00
N46    N     0.28573   0.16665   0.25000   0.00000  Uiso   1.00
O47    O     0.12846   0.22775   0.25000   0.00000  Uiso   1.00
O48    O     0.29422   0.05117   0.42120   0.00000  Uiso   1.00
O49    O     0.28332   0.07413   0.33114   0.00000  Uiso   1.00
O50    O     0.20490   0.22774   0.25000   0.00000  Uiso   1.00
O51    O     0.10947   0.16666   0.32681   0.00000  Uiso   1.00
O52    O     0.18591   0.16665   0.32681   0.00000  Uiso   1.00
O53    O     0.12843   0.10559   0.24999   0.00000  Uiso   1.00
O54    O     0.20488   0.10558   0.25000   0.00000  Uiso   1.00
O55    O     0.14742   0.16668   0.17319   0.00000  Uiso   1.00
O56    O     0.22387   0.16667   0.17319   0.00000  Uiso   1.00
O57    O     0.32859   0.11770   0.38172   0.00000  Uiso   1.00
S58    S     0.28637   0.08887   0.39153   0.00000  Uiso   1.00
Zn59   Zn    0.11562   0.16667   0.25000   0.00000  Uiso   1.00
Zn60   Zn    0.21771   0.16666   0.25000   0.00000  Uiso   1.00
C61    C     0.49995   0.24673   0.25027   0.00000  Uiso   1.00
C62    C     0.45612   0.15826   0.41082   0.00000  Uiso   1.00
C63    C     0.54274   0.31208   0.24452   0.00000  Uiso   1.00
C64    C     0.47336   0.16385   0.35205   0.00000  Uiso   1.00
C65    C     0.54273   0.02131   0.24450   0.00000  Uiso   1.00
C66    C     0.49978   0.04248   0.25081   0.00000  Uiso   1.00
C67    C     0.45675   0.02130   0.25763   0.00000  Uiso   1.00
C68    C     0.45677   0.31205   0.25765   0.00000  Uiso   1.00
C69    C     0.49981   0.29088   0.25084   0.00000  Uiso   1.00
C70    C     0.65324   0.14165   0.21513   0.00000  Uiso   1.00
C71    C     0.36788   0.14164   0.21516   0.00000  Uiso   1.00
C72    C     0.47728   0.15324   0.49200   0.00000  Uiso   1.00
C73    C     0.34671   0.19158   0.28500   0.00000  Uiso   1.00
C74    C     0.63206   0.19156   0.28501   0.00000  Uiso   1.00
C75    C     0.49992   0.08661   0.25021   0.00000  Uiso   1.00
C76    C     0.52673   0.16639   0.14773   0.00000  Uiso   1.00
C77    C     0.59533   0.12668   0.00811   0.00000  Uiso   1.00
C78    C     0.54291   0.16007   0.08936   0.00000  Uiso   1.00
C79    C     0.40960   0.17176   0.44172   0.00000  Uiso   1.00
C80    C     0.39592   0.17393   0.49782   0.00000  Uiso   1.00
C81    C     0.42963   0.16585   0.02291   0.00000  Uiso   1.00
C82    C     0.48791   0.14397   0.43689   0.00000  Uiso   1.00
C83    C     0.51473   0.14985   0.01388   0.00000  Uiso   1.00
C84    C     0.55934   0.13032   0.48403   0.00000  Uiso   1.00
C85    C     0.56617   0.11480   0.43154   0.00000  Uiso   1.00
C86    C     0.53023   0.12138   0.40906   0.00000  Uiso   1.00
C87    C     0.50926   0.16715   0.06425   0.00000  Uiso   1.00
C88    C     0.58665   0.14065   0.06099   0.00000  Uiso   1.00
H89    H     0.61320   0.13490   0.08025   0.00000  Uiso   1.00
H90    H     0.47801   0.18567   0.08569   0.00000  Uiso   1.00
H91    H     0.38427   0.18164   0.42246   0.00000  Uiso   1.00
H92    H     0.41719   0.16866   0.06656   0.00000  Uiso   1.00
H93    H     0.35977   0.18372   0.02176   0.00000  Uiso   1.00
H94    H     0.53528   0.10822   0.36956   0.00000  Uiso   1.00
H95    H     0.57628   0.29592   0.23919   0.00000  Uiso   1.00
H96    H     0.59556   0.04929   0.33897   0.00000  Uiso   1.00
H97    H     0.57627   0.03749   0.23916   0.00000  Uiso   1.00
H98    H     0.42321   0.03748   0.26300   0.00000  Uiso   1.00
H99    H     0.42323   0.29586   0.26302   0.00000  Uiso   1.00
H100   H     0.64349   0.12168   0.18725   0.00000  Uiso   1.00
H101   H     0.39451   0.12163   0.18730   0.00000  Uiso   1.00
H102   H     0.35643   0.21147   0.31298   0.00000  Uiso   1.00
H103   H     0.60540   0.21147   0.31298   0.00000  Uiso   1.00
H104   H     0.62962   0.11193   0.48745   0.00000  Uiso   1.00
N105   N     0.38093   0.16668   0.25001   0.00000  Uiso   1.00
N106   N     0.61906   0.16665   0.25000   0.00000  Uiso   1.00
O107   O     0.46179   0.22775   0.25000   0.00000  Uiso   1.00
O108   O     0.62755   0.05117   0.42120   0.00000  Uiso   1.00
O109   O     0.61665   0.07413   0.33114   0.00000  Uiso   1.00
O110   O     0.53823   0.22774   0.25000   0.00000  Uiso   1.00
O111   O     0.44280   0.16666   0.32681   0.00000  Uiso   1.00
O112   O     0.51924   0.16665   0.32681   0.00000  Uiso   1.00
O113   O     0.46177   0.10559   0.24999   0.00000  Uiso   1.00
O114   O     0.53821   0.10558   0.25000   0.00000  Uiso   1.00
O115   O     0.48076   0.16668   0.17319   0.00000  Uiso   1.00
O116   O     0.55720   0.16667   0.17319   0.00000  Uiso   1.00
O117   O     0.66192   0.11770   0.38172   0.00000  Uiso   1.00
S118   S     0.61970   0.08887   0.39153   0.00000  Uiso   1.00
Zn119  Zn    0.44896   0.16667   0.25000   0.00000  Uiso   1.00
Zn120  Zn    0.55104   0.16666   0.25000   0.00000  Uiso   1.00
C121   C     0.83328   0.24673   0.25027   0.00000  Uiso   1.00
C122   C     0.78945   0.15826   0.41082   0.00000  Uiso   1.00
C123   C     0.87607   0.31208   0.24452   0.00000  Uiso   1.00
C124   C     0.80669   0.16385   0.35205   0.00000  Uiso   1.00
C125   C     0.87606   0.02131   0.24450   0.00000  Uiso   1.00
C126   C     0.83312   0.04248   0.25081   0.00000  Uiso   1.00
C127   C     0.79009   0.02130   0.25763   0.00000  Uiso   1.00
C128   C     0.79010   0.31205   0.25765   0.00000  Uiso   1.00
C129   C     0.83314   0.29088   0.25084   0.00000  Uiso   1.00
C130   C     0.98657   0.14165   0.21513   0.00000  Uiso   1.00
C131   C     0.70121   0.14164   0.21516   0.00000  Uiso   1.00
C132   C     0.81061   0.15324   0.49200   0.00000  Uiso   1.00
C133   C     0.68004   0.19158   0.28500   0.00000  Uiso   1.00
C134   C     0.96540   0.19156   0.28501   0.00000  Uiso   1.00
C135   C     0.83326   0.08661   0.25021   0.00000  Uiso   1.00
C136   C     0.86006   0.16639   0.14773   0.00000  Uiso   1.00
C137   C     0.92866   0.12668   0.00811   0.00000  Uiso   1.00
C138   C     0.87624   0.16007   0.08936   0.00000  Uiso   1.00
C139   C     0.74293   0.17176   0.44172   0.00000  Uiso   1.00
C140   C     0.72926   0.17393   0.49782   0.00000  Uiso   1.00
C141   C     0.76296   0.16585   0.02291   0.00000  Uiso   1.00
C142   C     0.82124   0.14397   0.43689   0.00000  Uiso   1.00
C143   C     0.84806   0.14985   0.01388   0.00000  Uiso   1.00
C144   C     0.89268   0.13032   0.48403   0.00000  Uiso   1.00
C145   C     0.89950   0.11480   0.43154   0.00000  Uiso   1.00
C146   C     0.86356   0.12138   0.40906   0.00000  Uiso   1.00
C147   C     0.84259   0.16715   0.06425   0.00000  Uiso   1.00
C148   C     0.91999   0.14065   0.06099   0.00000  Uiso   1.00
H149   H     0.94653   0.13490   0.08025   0.00000  Uiso   1.00
H150   H     0.81134   0.18567   0.08569   0.00000  Uiso   1.00
H151   H     0.71760   0.18164   0.42246   0.00000  Uiso   1.00
H152   H     0.75052   0.16866   0.06656   0.00000  Uiso   1.00
H153   H     0.69310   0.18372   0.02176   0.00000  Uiso   1.00
H154   H     0.86861   0.10822   0.36956   0.00000  Uiso   1.00
H155   H     0.90961   0.29592   0.23919   0.00000  Uiso   1.00
H156   H     0.92889   0.04929   0.33897   0.00000  Uiso   1.00
H157   H     0.90960   0.03749   0.23916   0.00000  Uiso   1.00
H158   H     0.75655   0.03748   0.26300   0.00000  Uiso   1.00
H159   H     0.75656   0.29586   0.26302   0.00000  Uiso   1.00
H160   H     0.97682   0.12168   0.18725   0.00000  Uiso   1.00
H161   H     0.72784   0.12163   0.18730   0.00000  Uiso   1.00
H162   H     0.68977   0.21147   0.31298   0.00000  Uiso   1.00
H163   H     0.93873   0.21147   0.31298   0.00000  Uiso   1.00
H164   H     0.96295   0.11193   0.48745   0.00000  Uiso   1.00
N165   N     0.71426   0.16668   0.25001   0.00000  Uiso   1.00
N166   N     0.95239   0.16665   0.25000   0.00000  Uiso   1.00
O167   O     0.79512   0.22775   0.25000   0.00000  Uiso   1.00
O168   O     0.96088   0.05117   0.42120   0.00000  Uiso   1.00
O169   O     0.94999   0.07413   0.33114   0.00000  Uiso   1.00
O170   O     0.87157   0.22774   0.25000   0.00000  Uiso   1.00
O171   O     0.77613   0.16666   0.32681   0.00000  Uiso   1.00
O172   O     0.85258   0.16665   0.32681   0.00000  Uiso   1.00
O173   O     0.79510   0.10559   0.24999   0.00000  Uiso   1.00
O174   O     0.87154   0.10558   0.25000   0.00000  Uiso   1.00
O175   O     0.81409   0.16668   0.17319   0.00000  Uiso   1.00
O176   O     0.89053   0.16667   0.17319   0.00000  Uiso   1.00
O177   O     0.99525   0.11770   0.38172   0.00000  Uiso   1.00
S178   S     0.95303   0.08887   0.39153   0.00000  Uiso   1.00
Zn179  Zn    0.78229   0.16667   0.25000   0.00000  Uiso   1.00
Zn180  Zn    0.88438   0.16666   0.25000   0.00000  Uiso   1.00
C181   C     0.16661   0.58006   0.25027   0.00000  Uiso   1.00
C182   C     0.12279   0.49159   0.41082   0.00000  Uiso   1.00
C183   C     0.20940   0.64541   0.24452   0.00000  Uiso   1.00
C184   C     0.14003   0.49719   0.35205   0.00000  Uiso   1.00
C185   C     0.20939   0.35464   0.24450   0.00000  Uiso   1.00
C186   C     0.16645   0.37581   0.25081   0.00000  Uiso   1.00
C187   C     0.12342   0.35463   0.25763   0.00000  Uiso   1.00
C188   C     0.12343   0.64539   0.25765   0.00000  Uiso   1.00
C189   C     0.16648   0.62421   0.25084   0.00000  Uiso   1.00
C190   C     0.31991   0.47498   0.21513   0.00000  Uiso   1.00
C191   C     0.03455   0.47497   0.21516   0.00000  Uiso   1.00
C192   C     0.14394   0.48657   0.49200   0.00000  Uiso   1.00
C193   C     0.01338   0.52491   0.28500   0.00000  Uiso   1.00
C194   C     0.29873   0.52489   0.28501   0.00000  Uiso   1.00
C195   C     0.16659   0.41995   0.25021   0.00000  Uiso   1.00
C196   C     0.19339   0.49972   0.14773   0.00000  Uiso   1.00
C197   C     0.26199   0.46001   0.00811   0.00000  Uiso   1.00
C198   C     0.20958   0.49341   0.08936   0.00000  Uiso   1.00
C199   C     0.07626   0.50510   0.44172   0.00000  Uiso   1.00
C200   C     0.06259   0.50726   0.49782   0.00000  Uiso   1.00
C201   C     0.09630   0.49918   0.02291   0.00000  Uiso   1.00
C202   C     0.15457   0.47730   0.43689   0.00000  Uiso   1.00
C203   C     0.18139   0.48318   0.01388   0.00000  Uiso   1.00
C204   C     0.22601   0.46365   0.48403   0.00000  Uiso   1.00
C205   C     0.23284   0.44813   0.43154   0.00000  Uiso   1.00
C206   C     0.19690   0.45472   0.40906   0.00000  Uiso   1.00
C207   C     0.17592   0.50049   0.06425   0.00000  Uiso   1.00
C208   C     0.25332   0.47399   0.06099   0.00000  Uiso   1.00
H209   H     0.27987   0.46824   0.08025   0.00000  Uiso   1.00
H210   H     0.14467   0.51901   0.08569   0.00000  Uiso   1.00
H211   H     0.05093   0.51498   0.42246   0.00000  Uiso   1.00
H212   H     0.08385   0.50199   0.06656   0.00000  Uiso   1.00
H213   H     0.02643   0.51706   0.02176   0.00000  Uiso   1.00
H214   H     0.20194   0.44156   0.36956   0.00000  Uiso   1.00
H215   H     0.24295   0.62925   0.23919   0.00000  Uiso   1.00
H216   H     0.26222   0.38262   0.33897   0.00000  Uiso   1.00
H217   H     0.24293   0.37082   0.23916   0.00000  Uiso   1.00
H218   H     0.08988   0.37081   0.26300   0.00000  Uiso   1.00
H219   H     0.08990   0.62920   0.26302   0.00000  Uiso   1.00
H220   H     0.31015   0.45502   0.18725   0.00000  Uiso   1.00
H221   H     0.06118   0.45497   0.18730   0.00000  Uiso   1.00
H222   H     0.02310   0.54480   0.31298   0.00000  Uiso   1.00
H223   H     0.27206   0.54480   0.31298   0.00000  Uiso   1.00
H224   H     0.29629   0.44526   0.48745   0.00000  Uiso   1.00
N225   N     0.04760   0.50001   0.25001   0.00000  Uiso   1.00
N226   N     0.28573   0.49998   0.25000   0.00000  Uiso   1.00
O227   O     0.12846   0.56108   0.25000   0.00000  Uiso   1.00
O228   O     0.29422   0.38450   0.42120   0.00000  Uiso   1.00
O229   O     0.28332   0.40746   0.33114   0.00000  Uiso   1.00
O230   O     0.20490   0.56107   0.25000   0.00000  Uiso   1.00
O231   O     0.10947   0.50000   0.32681   0.00000  Uiso   1.00
O232   O     0.18591   0.49999   0.32681   0.00000  Uiso   1.00
O233   O     0.12843   0.43893   0.24999   0.00000  Uiso   1.00
O234   O     0.20488   0.43892   0.25000   0.00000  Uiso   1.00
O235   O     0.14742   0.50001   0.17319   0.00000  Uiso   1.00
O236   O     0.22387   0.50000   0.17319   0.00000  Uiso   1.00
O237   O     0.32859   0.45103   0.38172   0.00000  Uiso   1.00
S238   S     0.28637   0.42220   0.39153   0.00000  Uiso   1.00
Zn239  Zn    0.11562   0.50001   0.25000   0.00000  Uiso   1.00
Zn240  Zn    0.21771   0.49999   0.25000   0.00000  Uiso   1.00
C241   C     0.49995   0.58006   0.25027   0.00000  Uiso   1.00
C242   C     0.45612   0.49159   0.41082   0.00000  Uiso   1.00
C243   C     0.54274   0.64541   0.24452   0.00000  Uiso   1.00
C244   C     0.47336   0.49719   0.35205   0.00000  Uiso   1.00
C245   C     0.54273   0.35464   0.24450   0.00000  Uiso   1.00
C246   C     0.49978   0.37581   0.25081   0.00000  Uiso   1.00
C247   C     0.45675   0.35463   0.25763   0.00000  Uiso   1.00
C248   C     0.45677   0.64539   0.25765   0.00000  Uiso   1.00
C249   C     0.49981   0.62421   0.25084   0.00000  Uiso   1.00
C250   C     0.65324   0.47498   0.21513   0.00000  Uiso   1.00
C251   C     0.36788   0.47497   0.21516   0.00000  Uiso   1.00
C252   C     0.47728   0.48657   0.49200   0.00000  Uiso   1.00
C253   C     0.34671   0.52491   0.28500   0.00000  Uiso   1.00
C254   C     0.63206   0.52489   0.28501   0.00000  Uiso   1.00
C255   C     0.49992   0.41995   0.25021   0.00000  Uiso   1.00
C256   C     0.52673   0.49972   0.14773   0.00000  Uiso   1.00
C257   C     0.59533   0.46001   0.00811   0.00000  Uiso   1.00
C258   C     0.54291   0.49341   0.08936   0.00000  Uiso   1.00
C259   C     0.40960   0.50510   0.44172   0.00000  Uiso   1.00
C260   C     0.39592   0.50726   0.49782   0.00000  Uiso   1.00
C261   C     0.42963   0.49918   0.02291   0.00000  Uiso   1.00
C262   C     0.48791   0.47730   0.43689   0.00000  Uiso   1.00
C263   C     0.51473   0.48318   0.01388   0.00000  Uiso   1.00
C264   C     0.55934   0.46365   0.48403   0.00000  Uiso   1.00
C265   C     0.56617   0.44813   0.43154   0.00000  Uiso   1.00
C266   C     0.53023   0.45472   0.40906   0.00000  Uiso   1.00
C267   C     0.50926   0.50049   0.06425   0.00000  Uiso   1.00
C268   C     0.58665   0.47399   0.06099   0.00000  Uiso   1.00
H269   H     0.61320   0.46824   0.08025   0.00000  Uiso   1.00
H270   H     0.47801   0.51901   0.08569   0.00000  Uiso   1.00
H271   H     0.38427   0.51498   0.42246   0.00000  Uiso   1.00
H272   H     0.41719   0.50199   0.06656   0.00000  Uiso   1.00
H273   H     0.35977   0.51706   0.02176   0.00000  Uiso   1.00
H274   H     0.53528   0.44156   0.36956   0.00000  Uiso   1.00
H275   H     0.57628   0.62925   0.23919   0.00000  Uiso   1.00
H276   H     0.59556   0.38262   0.33897   0.00000  Uiso   1.00
H277   H     0.57627   0.37082   0.23916   0.00000  Uiso   1.00
H278   H     0.42321   0.37081   0.26300   0.00000  Uiso   1.00
H279   H     0.42323   0.62920   0.26302   0.00000  Uiso   1.00
H280   H     0.64349   0.45502   0.18725   0.00000  Uiso   1.00
H281   H     0.39451   0.45497   0.18730   0.00000  Uiso   1.00
H282   H     0.35643   0.54480   0.31298   0.00000  Uiso   1.00
H283   H     0.60540   0.54480   0.31298   0.00000  Uiso   1.00
H284   H     0.62962   0.44526   0.48745   0.00000  Uiso   1.00
N285   N     0.38093   0.50001   0.25001   0.00000  Uiso   1.00
N286   N     0.61906   0.49998   0.25000   0.00000  Uiso   1.00
O287   O     0.46179   0.56108   0.25000   0.00000  Uiso   1.00
O288   O     0.62755   0.38450   0.42120   0.00000  Uiso   1.00
O289   O     0.61665   0.40746   0.33114   0.00000  Uiso   1.00
O290   O     0.53823   0.56107   0.25000   0.00000  Uiso   1.00
O291   O     0.44280   0.50000   0.32681   0.00000  Uiso   1.00
O292   O     0.51924   0.49999   0.32681   0.00000  Uiso   1.00
O293   O     0.46177   0.43893   0.24999   0.00000  Uiso   1.00
O294   O     0.53821   0.43892   0.25000   0.00000  Uiso   1.00
O295   O     0.48076   0.50001   0.17319   0.00000  Uiso   1.00
O296   O     0.55720   0.50000   0.17319   0.00000  Uiso   1.00
O297   O     0.66192   0.45103   0.38172   0.00000  Uiso   1.00
S298   S     0.61970   0.42220   0.39153   0.00000  Uiso   1.00
Zn299  Zn    0.44896   0.50001   0.25000   0.00000  Uiso   1.00
Zn300  Zn    0.55104   0.49999   0.25000   0.00000  Uiso   1.00
C301   C     0.83328   0.58006   0.25027   0.00000  Uiso   1.00
C302   C     0.78945   0.49159   0.41082   0.00000  Uiso   1.00
C303   C     0.87607   0.64541   0.24452   0.00000  Uiso   1.00
C304   C     0.80669   0.49719   0.35205   0.00000  Uiso   1.00
C305   C     0.87606   0.35464   0.24450   0.00000  Uiso   1.00
C306   C     0.83312   0.37581   0.25081   0.00000  Uiso   1.00
C307   C     0.79009   0.35463   0.25763   0.00000  Uiso   1.00
C308   C     0.79010   0.64539   0.25765   0.00000  Uiso   1.00
C309   C     0.83314   0.62421   0.25084   0.00000  Uiso   1.00
C310   C     0.98657   0.47498   0.21513   0.00000  Uiso   1.00
C311   C     0.70121   0.47497   0.21516   0.00000  Uiso   1.00
C312   C     0.81061   0.48657   0.49200   0.00000  Uiso   1.00
C313   C     0.68004   0.52491   0.28500   0.00000  Uiso   1.00
C314   C     0.96540   0.52489   0.28501   0.00000  Uiso   1.00
C315   C     0.83326   0.41995   0.25021   0.00000  Uiso   1.00
C316   C     0.86006   0.49972   0.14773   0.00000  Uiso   1.00
C317   C     0.92866   0.46001   0.00811   0.00000  Uiso   1.00
C318   C     0.87624   0.49341   0.08936   0.00000  Uiso   1.00
C319   C     0.74293   0.50510   0.44172   0.00000  Uiso   1.00
C320   C     0.72926   0.50726   0.49782   0.00000  Uiso   1.00
C321   C     0.76296   0.49918   0.02291   0.00000  Uiso   1.00
C322   C     0.82124   0.47730   0.43689   0.00000  Uiso   1.00
C323   C     0.84806   0.48318   0.01388   0.00000  Uiso   1.00
C324   C     0.89268   0.46365   0.48403   0.00000  Uiso   1.00
C325   C     0.89950   0.44813   0.43154   0.00000  Uiso   1.00
C326   C     0.86356   0.45472   0.40906   0.00000  Uiso   1.00
C327   C     0.84259   0.50049   0.06425   0.00000  Uiso   1.00
C328   C     0.91999   0.47399   0.06099   0.00000  Uiso   1.00
H329   H     0.94653   0.46824   0.08025   0.00000  Uiso   1.00
H330   H     0.81134   0.51901   0.08569   0.00000  Uiso   1.00
H331   H     0.71760   0.51498   0.42246   0.00000  Uiso   1.00
H332   H     0.75052   0.50199   0.06656   0.00000  Uiso   1.00
H333   H     0.69310   0.51706   0.02176   0.00000  Uiso   1.00
H334   H     0.86861   0.44156   0.36956   0.00000  Uiso   1.00
H335   H     0.90961   0.62925   0.23919   0.00000  Uiso   1.00
H336   H     0.92889   0.38262   0.33897   0.00000  Uiso   1.00
H337   H     0.90960   0.37082   0.23916   0.00000  Uiso   1.00
H338   H     0.75655   0.37081   0.26300   0.00000  Uiso   1.00
H339   H     0.75656   0.62920   0.26302   0.00000  Uiso   1.00
H340   H     0.97682   0.45502   0.18725   0.00000  Uiso   1.00
H341   H     0.72784   0.45497   0.18730   0.00000  Uiso   1.00
H342   H     0.68977   0.54480   0.31298   0.00000  Uiso   1.00
H343   H     0.93873   0.54480   0.31298   0.00000  Uiso   1.00
H344   H     0.96295   0.44526   0.48745   0.00000  Uiso   1.00
N345   N     0.71426   0.50001   0.25001   0.00000  Uiso   1.00
N346   N     0.95239   0.49998   0.25000   0.00000  Uiso   1.00
O347   O     0.79512   0.56108   0.25000   0.00000  Uiso   1.00
O348   O     0.96088   0.38450   0.42120   0.00000  Uiso   1.00
O349   O     0.94999   0.40746   0.33114   0.00000  Uiso   1.00
O350   O     0.87157   0.56107   0.25000   0.00000  Uiso   1.00
O351   O     0.77613   0.50000   0.32681   0.00000  Uiso   1.00
O352   O     0.85258   0.49999   0.32681   0.00000  Uiso   1.00
O353   O     0.79510   0.43893   0.24999   0.00000  Uiso   1.00
O354   O     0.87154   0.43892   0.25000   0.00000  Uiso   1.00
O355   O     0.81409   0.50001   0.17319   0.00000  Uiso   1.00
O356   O     0.89053   0.50000   0.17319   0.00000  Uiso   1.00
O357   O     0.99525   0.45103   0.38172   0.00000  Uiso   1.00
S358   S     0.95303   0.42220   0.39153   0.00000  Uiso   1.00
Zn359  Zn    0.78229   0.50001   0.25000   0.00000  Uiso   1.00
Zn360  Zn    0.88438   0.49999   0.25000   0.00000  Uiso   1.00
C361   C     0.16661   0.91339   0.25027   0.00000  Uiso   1.00
C362   C     0.12279   0.82492   0.41082   0.00000  Uiso   1.00
C363   C     0.20940   0.97874   0.24452   0.00000  Uiso   1.00
C364   C     0.14003   0.83052   0.35205   0.00000  Uiso   1.00
C365   C     0.20939   0.68798   0.24450   0.00000  Uiso   1.00
C366   C     0.16645   0.70915   0.25081   0.00000  Uiso   1.00
C367   C     0.12342   0.68797   0.25763   0.00000  Uiso   1.00
C368   C     0.12343   0.97872   0.25765   0.00000  Uiso   1.00
C369   C     0.16648   0.95755   0.25084   0.00000  Uiso   1.00
C370   C     0.31991   0.80832   0.21513   0.00000  Uiso   1.00
C371   C     0.03455   0.80831   0.21516   0.00000  Uiso   1.00
C372   C     0.14394   0.81991   0.49200   0.00000  Uiso   1.00
C373   C     0.01338   0.85825   0.28500   0.00000  Uiso   1.00
C374   C     0.29873   0.85822   0.28501   0.00000  Uiso   1.00
C375   C     0.16659   0.75328   0.25021   0.00000  Uiso   1.00
C376   C     0.19339   0.83306   0.14773   0.00000  Uiso   1.00
C377   C     0.26199   0.79335   0.00811   0.00000  Uiso   1.00
C378   C     0.20958   0.82674   0.08936   0.00000  Uiso   1.00
C379   C     0.07626   0.83843   0.44172   0.00000  Uiso   1.00
C380   C     0.06259   0.84059   0.49782   0.00000  Uiso   1.00
C381   C     0.09630   0.83251   0.02291   0.00000  Uiso   1.00
C382   C     0.15457   0.81064   0.43689   0.00000  Uiso   1.00
C383   C     0.18139   0.81651   0.01388   0.00000  Uiso   1.00
C384   C     0.22601   0.79698   0.48403   0.00000  Uiso   1.00
C385   C     0.23284   0.78147   0.43154   0.00000  Uiso   1.00
C386   C     0.19690   0.78805   0.40906   0.00000  Uiso   1.00
C387   C     0.17592   0.83382   0.06425   0.00000  Uiso   1.00
C388   C     0.25332   0.80732   0.06099   0.00000  Uiso   1.00
H389   H     0.27987   0.80157   0.08025   0.00000  Uiso   1.00
H390   H     0.14467   0.85234   0.08569   0.00000  Uiso   1.00
H391   H     0.05093   0.84831   0.42246   0.00000  Uiso   1.00
H392   H     0.08385   0.83532   0.06656   0.00000  Uiso   1.00
H393   H     0.02643   0.85039   0.02176   0.00000  Uiso   1.00
H394   H     0.20194   0.77489   0.36956   0.00000  Uiso   1.00
H395   H     0.24295   0.96259   0.23919   0.00000  Uiso   1.00
H396   H     0.26222   0.71595   0.33897   0.00000  Uiso   1.00
H397   H     0.24293   0.70415   0.23916   0.00000  Uiso   1.00
H398   H     0.08988   0.70415   0.26300   0.00000  Uiso   1.00
H399   H     0.08990   0.96253   0.26302   0.00000  Uiso   1.00
H400   H     0.31015   0.78835   0.18725   0.00000  Uiso   1.00
H401   H     0.06118   0.78830   0.18730   0.00000  Uiso   1.00
H402   H     0.02310   0.87813   0.31298   0.00000  Uiso   1.00
H403   H     0.27206   0.87814   0.31298   0.00000  Uiso   1.00
H404   H     0.29629   0.77860   0.48745   0.00000  Uiso   1.00
N405   N     0.04760   0.83334   0.25001   0.00000  Uiso   1.00
N406   N     0.28573   0.83331   0.25000   0.00000  Uiso   1.00
O407   O     0.12846   0.89442   0.25000   0.00000  Uiso   1.00
O408   O     0.29422   0.71783   0.42120   0.00000  Uiso   1.00
O409   O     0.28332   0.74080   0.33114   0.00000  Uiso   1.00
O410   O     0.20490   0.89441   0.25000   0.00000  Uiso   1.00
O411   O     0.10947   0.83333   0.32681   0.00000  Uiso   1.00
O412   O     0.18591   0.83332   0.32681   0.00000  Uiso   1.00
O413   O     0.12843   0.77226   0.24999   0.00000  Uiso   1.00
O414   O     0.20488   0.77225   0.25000   0.00000  Uiso   1.00
O415   O     0.14742   0.83335   0.17319   0.00000  Uiso   1.00
O416   O     0.22387   0.83334   0.17319   0.00000  Uiso   1.00
O417   O     0.32859   0.78437   0.38172   0.00000  Uiso   1.00
S418   S     0.28637   0.75554   0.39153   0.00000  Uiso   1.00
Zn419  Zn    0.11562   0.83334   0.25000   0.00000  Uiso   1.00
Zn420  Zn    0.21771   0.83333   0.25000   0.00000  Uiso   1.00
C421   C     0.49995   0.91339   0.25027   0.00000  Uiso   1.00
C422   C     0.45612   0.82492   0.41082   0.00000  Uiso   1.00
C423   C     0.54274   0.97874   0.24452   0.00000  Uiso   1.00
C424   C     0.47336   0.83052   0.35205   0.00000  Uiso   1.00
C425   C     0.54273   0.68798   0.24450   0.00000  Uiso   1.00
C426   C     0.49978   0.70915   0.25081   0.00000  Uiso   1.00
C427   C     0.45675   0.68797   0.25763   0.00000  Uiso   1.00
C428   C     0.45677   0.97872   0.25765   0.00000  Uiso   1.00
C429   C     0.49981   0.95755   0.25084   0.00000  Uiso   1.00
C430   C     0.65324   0.80832   0.21513   0.00000  Uiso   1.00
C431   C     0.36788   0.80831   0.21516   0.00000  Uiso   1.00
C432   C     0.47728   0.81991   0.49200   0.00000  Uiso   1.00
C433   C     0.34671   0.85825   0.28500   0.00000  Uiso   1.00
C434   C     0.63206   0.85822   0.28501   0.00000  Uiso   1.00
C435   C     0.49992   0.75328   0.25021   0.00000  Uiso   1.00
C436   C     0.52673   0.83306   0.14773   0.00000  Uiso   1.00
C437   C     0.59533   0.79335   0.00811   0.00000  Uiso   1.00
C438   C     0.54291   0.82674   0.08936   0.00000  Uiso   1.00
C439   C     0.40960   0.83843   0.44172   0.00000  Uiso   1.00
C440   C     0.39592   0.84059   0.49782   0.00000  Uiso   1.00
C441   C     0.42963   0.83251   0.02291   0.00000  Uiso   1.00
C442   C     0.48791   0.81064   0.43689   0.00000  Uiso   1.00
C443   C     0.51473   0.81651   0.01388   0.00000  Uiso   1.00
C444   C     0.55934   0.79698   0.48403   0.00000  Uiso   1.00
C445   C     0.56617   0.78147   0.43154   0.00000  Uiso   1.00
C446   C     0.53023   0.78805   0.40906   0.00000  Uiso   1.00
C447   C     0.50926   0.83382   0.06425   0.00000  Uiso   1.00
C448   C     0.58665   0.80732   0.06099   0.00000  Uiso   1.00
H449   H     0.61320   0.80157   0.08025   0.00000  Uiso   1.00
H450   H     0.47801   0.85234   0.08569   0.00000  Uiso   1.00
H451   H     0.38427   0.84831   0.42246   0.00000  Uiso   1.00
H452   H     0.41719   0.83532   0.06656   0.00000  Uiso   1.00
H453   H     0.35977   0.85039   0.02176   0.00000  Uiso   1.00
H454   H     0.53528   0.77489   0.36956   0.00000  Uiso   1.00
H455   H     0.57628   0.96259   0.23919   0.00000  Uiso   1.00
H456   H     0.59556   0.71595   0.33897   0.00000  Uiso   1.00
H457   H     0.57627   0.70415   0.23916   0.00000  Uiso   1.00
H458   H     0.42321   0.70415   0.26300   0.00000  Uiso   1.00
H459   H     0.42323   0.96253   0.26302   0.00000  Uiso   1.00
H460   H     0.64349   0.78835   0.18725   0.00000  Uiso   1.00
H461   H     0.39451   0.78830   0.18730   0.00000  Uiso   1.00
H462   H     0.35643   0.87813   0.31298   0.00000  Uiso   1.00
H463   H     0.60540   0.87814   0.31298   0.00000  Uiso   1.00
H464   H     0.62962   0.77860   0.48745   0.00000  Uiso   1.00
N465   N     0.38093   0.83334   0.25001   0.00000  Uiso   1.00
N466   N     0.61906   0.83331   0.25000   0.00000  Uiso   1.00
O467   O     0.46179   0.89442   0.25000   0.00000  Uiso   1.00
O468   O     0.62755   0.71783   0.42120   0.00000  Uiso   1.00
O469   O     0.61665   0.74080   0.33114   0.00000  Uiso   1.00
O470   O     0.53823   0.89441   0.25000   0.00000  Uiso   1.00
O471   O     0.44280   0.83333   0.32681   0.00000  Uiso   1.00
O472   O     0.51924   0.83332   0.32681   0.00000  Uiso   1.00
O473   O     0.46177   0.77226   0.24999   0.00000  Uiso   1.00
O474   O     0.53821   0.77225   0.25000   0.00000  Uiso   1.00
O475   O     0.48076   0.83335   0.17319   0.00000  Uiso   1.00
O476   O     0.55720   0.83334   0.17319   0.00000  Uiso   1.00
O477   O     0.66192   0.78437   0.38172   0.00000  Uiso   1.00
S478   S     0.61970   0.75554   0.39153   0.00000  Uiso   1.00
Zn479  Zn    0.44896   0.83334   0.25000   0.00000  Uiso   1.00
Zn480  Zn    0.55104   0.83333   0.25000   0.00000  Uiso   1.00
C481   C     0.83328   0.91339   0.25027   0.00000  Uiso   1.00
C482   C     0.78945   0.82492   0.41082   0.00000  Uiso   1.00
C483   C     0.87607   0.97874   0.24452   0.00000  Uiso   1.00
C484   C     0.80669   0.83052   0.35205   0.00000  Uiso   1.00
C485   C     0.87606   0.68798   0.24450   0.00000  Uiso   1.00
C486   C     0.83312   0.70915   0.25081   0.00000  Uiso   1.00
C487   C     0.79009   0.68797   0.25763   0.00000  Uiso   1.00
C488   C     0.79010   0.97872   0.25765   0.00000  Uiso   1.00
C489   C     0.83314   0.95755   0.25084   0.00000  Uiso   1.00
C490   C     0.98657   0.80832   0.21513   0.00000  Uiso   1.00
C491   C     0.70121   0.80831   0.21516   0.00000  Uiso   1.00
C492   C     0.81061   0.81991   0.49200   0.00000  Uiso   1.00
C493   C     0.68004   0.85825   0.28500   0.00000  Uiso   1.00
C494   C     0.96540   0.85822   0.28501   0.00000  Uiso   1.00
C495   C     0.83326   0.75328   0.25021   0.00000  Uiso   1.00
C496   C     0.86006   0.83306   0.14773   0.00000  Uiso   1.00
C497   C     0.92866   0.79335   0.00811   0.00000  Uiso   1.00
C498   C     0.87624   0.82674   0.08936   0.00000  Uiso   1.00
C499   C     0.74293   0.83843   0.44172   0.00000  Uiso   1.00
C500   C     0.72926   0.84059   0.49782   0.00000  Uiso   1.00
C501   C     0.76296   0.83251   0.02291   0.00000  Uiso   1.00
C502   C     0.82124   0.81064   0.43689   0.00000  Uiso   1.00
C503   C     0.84806   0.81651   0.01388   0.00000  Uiso   1.00
C504   C     0.89268   0.79698   0.48403   0.00000  Uiso   1.00
C505   C     0.89950   0.78147   0.43154   0.00000  Uiso   1.00
C506   C     0.86356   0.78805   0.40906   0.00000  Uiso   1.00
C507   C     0.84259   0.83382   0.06425   0.00000  Uiso   1.00
C508   C     0.91999   0.80732   0.06099   0.00000  Uiso   1.00
H509   H     0.94653   0.80157   0.08025   0.00000  Uiso   1.00
H510   H     0.81134   0.85234   0.08569   0.00000  Uiso   1.00
H511   H     0.71760   0.84831   0.42246   0.00000  Uiso   1.00
H512   H     0.75052   0.83532   0.06656   0.00000  Uiso   1.00
H513   H     0.69310   0.85039   0.02176   0.00000  Uiso   1.00
H514   H     0.86861   0.77489   0.36956   0.00000  Uiso   1.00
H515   H     0.90961   0.96259   0.23919   0.00000  Uiso   1.00
H516   H     0.92889   0.71595   0.33897   0.00000  Uiso   1.00
H517   H     0.90960   0.70415   0.23916   0.00000  Uiso   1.00
H518   H     0.75655   0.70415   0.26300   0.00000  Uiso   1.00
H519   H     0.75656   0.96253   0.26302   0.00000  Uiso   1.00
H520   H     0.97682   0.78835   0.18725   0.00000  Uiso   1.00
H521   H     0.72784   0.78830   0.18730   0.00000  Uiso   1.00
H522   H     0.68977   0.87813   0.31298   0.00000  Uiso   1.00
H523   H     0.93873   0.87814   0.31298   0.00000  Uiso   1.00
H524   H     0.96295   0.77860   0.48745   0.00000  Uiso   1.00
N525   N     0.71426   0.83334   0.25001   0.00000  Uiso   1.00
N526   N     0.95239   0.83331   0.25000   0.00000  Uiso   1.00
O527   O     0.79512   0.89442   0.25000   0.00000  Uiso   1.00
O528   O     0.96088   0.71783   0.42120   0.00000  Uiso   1.00
O529   O     0.94999   0.74080   0.33114   0.00000  Uiso   1.00
O530   O     0.87157   0.89441   0.25000   0.00000  Uiso   1.00
O531   O     0.77613   0.83333   0.32681   0.00000  Uiso   1.00
O532   O     0.85258   0.83332   0.32681   0.00000  Uiso   1.00
O533   O     0.79510   0.77226   0.24999   0.00000  Uiso   1.00
O534   O     0.87154   0.77225   0.25000   0.00000  Uiso   1.00
O535   O     0.81409   0.83335   0.17319   0.00000  Uiso   1.00
O536   O     0.89053   0.83334   0.17319   0.00000  Uiso   1.00
O537   O     0.99525   0.78437   0.38172   0.00000  Uiso   1.00
S538   S     0.95303   0.75554   0.39153   0.00000  Uiso   1.00
Zn539  Zn    0.78229   0.83334   0.25000   0.00000  Uiso   1.00
Zn540  Zn    0.88438   0.83333   0.25000   0.00000  Uiso   1.00
C541   C     0.16661   0.24673   0.75027   0.00000  Uiso   1.00
C542   C     0.12279   0.15826   0.91082   0.00000  Uiso   1.00
C543   C     0.20940   0.31208   0.74452   0.00000  Uiso   1.00
C544   C     0.14003   0.16385   0.85205   0.00000  Uiso   1.00
C545   C     0.20939   0.02131   0.74450   0.00000  Uiso   1.00
C546   C     0.16645   0.04248   0.75081   0.00000  Uiso   1.00
C547   C     0.12342   0.02130   0.75763   0.00000  Uiso   1.00
C548   C     0.12343   0.31205   0.75765   0.00000  Uiso   1.00
C549   C     0.16648   0.29088   0.75084   0.00000  Uiso   1.00
C550   C     0.31991   0.14165   0.71513   0.00000  Uiso   1.00
C551   C     0.03455   0.14164   0.71516   0.00000  Uiso   1.00
C552   C     0.14394   0.15324   0.99200   0.00000  Uiso   1.00
C553   C     0.01338   0.19158   0.78500   0.00000  Uiso   1.00
C554   C     0.29873   0.19156   0.78501   0.00000  Uiso   1.00
C555   C     0.16659   0.08661   0.75021   0.00000  Uiso   1.00
C556   C     0.19339   0.16639   0.64773   0.00000  Uiso   1.00
C557   C     0.26199   0.12668   0.50811   0.00000  Uiso   1.00
C558   C     0.20958   0.16007   0.58936   0.00000  Uiso   1.00
C559   C     0.07626   0.17176   0.94172   0.00000  Uiso   1.00
C560   C     0.06259   0.17393   0.99782   0.00000  Uiso   1.00
C561   C     0.09630   0.16585   0.52291   0.00000  Uiso   1.00
C562   C     0.15457   0.14397   0.93689   0.00000  Uiso   1.00
C563   C     0.18139   0.14985   0.51388   0.00000  Uiso   1.00
C564   C     0.22601   0.13032   0.98403   0.00000  Uiso   1.00
C565   C     0.23284   0.11480   0.93154   0.00000  Uiso   1.00
C566   C     0.19690   0.12138   0.90906   0.00000  Uiso   1.00
C567   C     0.17592   0.16715   0.56425   0.00000  Uiso   1.00
C568   C     0.25332   0.14065   0.56099   0.00000  Uiso   1.00
H569   H     0.27987   0.13490   0.58025   0.00000  Uiso   1.00
H570   H     0.14467   0.18567   0.58569   0.00000  Uiso   1.00
H571   H     0.05093   0.18164   0.92246   0.00000  Uiso   1.00
H572   H     0.08385   0.16866   0.56656   0.00000  Uiso   1.00
H573   H     0.02643   0.18372   0.52176   0.00000  Uiso   1.00
H574   H     0.20194   0.10822   0.86956   0.00000  Uiso   1.00
H575   H     0.24295   0.29592   0.73919   0.00000  Uiso   1.00
H576   H     0.26222   0.04929   0.83897   0.00000  Uiso   1.00
H577   H     0.24293   0.03749   0.73916   0.00000  Uiso   1.00
H578   H     0.08988   0.03748   0.76300   0.00000  Uiso   1.00
H579   H     0.08990   0.29586   0.76302   0.00000  Uiso   1.00
H580   H     0.31015   0.12168   0.68725   0.00000  Uiso   1.00
H581   H     0.06118   0.12163   0.68730   0.00000  Uiso   1.00
H582   H     0.02310   0.21147   0.81298   0.00000  Uiso   1.00
H583   H     0.27206   0.21147   0.81298   0.00000  Uiso   1.00
H584   H     0.29629   0.11193   0.98745   0.00000  Uiso   1.00
N585   N     0.04760   0.16668   0.75001   0.00000  Uiso   1.00
N586   N     0.28573   0.16665   0.75000   0.00000  Uiso   1.00
O587   O     0.12846   0.22775   0.75000   0.00000  Uiso   1.00
O588   O     0.29422   0.05117   0.92120   0.00000  Uiso   1.00
O589   O     0.28332   0.07413   0.83114   0.00000  Uiso   1.00
O590   O     0.20490   0.22774   0.75000   0.00000  Uiso   1.00
O591   O     0.10947   0.16666   0.82681   0.00000  Uiso   1.00
O592   O     0.18591   0.16665   0.82681   0.00000  Uiso   1.00
O593   O     0.12843   0.10559   0.74999   0.00000  Uiso   1.00
O594   O     0.20488   0.10558   0.75000   0.00000  Uiso   1.00
O595   O     0.14742   0.16668   0.67319   0.00000  Uiso   1.00
O596   O     0.22387   0.16667   0.67319   0.00000  Uiso   1.00
O597   O     0.32859   0.11770   0.88172   0.00000  Uiso   1.00
S598   S     0.28637   0.08887   0.89153   0.00000  Uiso   1.00
Zn599  Zn    0.11562   0.16667   0.75000   0.00000  Uiso   1.00
Zn600  Zn    0.21771   0.16666   0.75000   0.00000  Uiso   1.00
C601   C     0.49995   0.24673   0.75027   0.00000  Uiso   1.00
C602   C     0.45612   0.15826   0.91082   0.00000  Uiso   1.00
C603   C     0.54274   0.31208   0.74452   0.00000  Uiso   1.00
C604   C     0.47336   0.16385   0.85205   0.00000  Uiso   1.00
C605   C     0.54273   0.02131   0.74450   0.00000  Uiso   1.00
C606   C     0.49978   0.04248   0.75081   0.00000  Uiso   1.00
C607   C     0.45675   0.02130   0.75763   0.00000  Uiso   1.00
C608   C     0.45677   0.31205   0.75765   0.00000  Uiso   1.00
C609   C     0.49981   0.29088   0.75084   0.00000  Uiso   1.00
C610   C     0.65324   0.14165   0.71513   0.00000  Uiso   1.00
C611   C     0.36788   0.14164   0.71516   0.00000  Uiso   1.00
C612   C     0.47728   0.15324   0.99200   0.00000  Uiso   1.00
C613   C     0.34671   0.19158   0.78500   0.00000  Uiso   1.00
C614   C     0.63206   0.19156   0.78501   0.00000  Uiso   1.00
C615   C     0.49992   0.08661   0.75021   0.00000  Uiso   1.00
C616   C     0.52673   0.16639   0.64773   0.00000  Uiso   1.00
C617   C     0.59533   0.12668   0.50811   0.00000  Uiso   1.00
C618   C     0.54291   0.16007   0.58936   0.00000  Uiso   1.00
C619   C     0.40960   0.17176   0.94172   0.00000  Uiso   1.00
C620   C     0.39592   0.17393   0.99782   0.00000  Uiso   1.00
C621   C     0.42963   0.16585   0.52291   0.00000  Uiso   1.00
C622   C     0.48791   0.14397   0.93689   0.00000  Uiso   1.00
C623   C     0.51473   0.14985   0.51388   0.00000  Uiso   1.00
C624   C     0.55934   0.13032   0.98403   0.00000  Uiso   1.00
C625   C     0.56617   0.11480   0.93154   0.00000  Uiso   1.00
C626   C     0.53023   0.12138   0.90906   0.00000  Uiso   1.00
C627   C     0.50926   0.16715   0.56425   0.00000  Uiso   1.00
C628   C     0.58665   0.14065   0.56099   0.00000  Uiso   1.00
H629   H     0.61320   0.13490   0.58025   0.00000  Uiso   1.00
H630   H     0.47801   0.18567   0.58569   0.00000  Uiso   1.00
H631   H     0.38427   0.18164   0.92246   0.00000  Uiso   1.00
H632   H     0.41719   0.16866   0.56656   0.00000  Uiso   1.00
H633   H     0.35977   0.18372   0.52176   0.00000  Uiso   1.00
H634   H     0.53528   0.10822   0.86956   0.00000  Uiso   1.00
H635   H     0.57628   0.29592   0.73919   0.00000  Uiso   1.00
H636   H     0.59556   0.04929   0.83897   0.00000  Uiso   1.00
H637   H     0.57627   0.03749   0.73916   0.00000  Uiso   1.00
H638   H     0.42321   0.03748   0.76300   0.00000  Uiso   1.00
H639   H     0.42323   0.29586   0.76302   0.00000  Uiso   1.00
H640   H     0.64349   0.12168   0.68725   0.00000  Uiso   1.00
H641   H     0.39451   0.12163   0.68730   0.00000  Uiso   1.00
H642   H     0.35643   0.21147   0.81298   0.00000  Uiso   1.00
H643   H     0.60540   0.21147   0.81298   0.00000  Uiso   1.00
H644   H     0.62962   0.11193   0.98745   0.00000  Uiso   1.00
N645   N     0.38093   0.16668   0.75001   0.00000  Uiso   1.00
N646   N     0.61906   0.16665   0.75000   0.00000  Uiso   1.00
O647   O     0.46179   0.22775   0.75000   0.00000  Uiso   1.00
O648   O     0.62755   0.05117   0.92120   0.00000  Uiso   1.00
O649   O     0.61665   0.07413   0.83114   0.00000  Uiso   1.00
O650   O     0.53823   0.22774   0.75000   0.00000  Uiso   1.00
O651   O     0.44280   0.16666   0.82681   0.00000  Uiso   1.00
O652   O     0.51924   0.16665   0.82681   0.00000  Uiso   1.00
O653   O     0.46177   0.10559   0.74999   0.00000  Uiso   1.00
O654   O     0.53821   0.10558   0.75000   0.00000  Uiso   1.00
O655   O     0.48076   0.16668   0.67319   0.00000  Uiso   1.00
O656   O     0.55720   0.16667   0.67319   0.00000  Uiso   1.00
O657   O     0.66192   0.11770   0.88172   0.00000  Uiso   1.00
S658   S     0.61970   0.08887   0.89153   0.00000  Uiso   1.00
Zn659  Zn    0.44896   0.16667   0.75000   0.00000  Uiso   1.00
Zn660  Zn    0.55104   0.16666   0.75000   0.00000  Uiso   1.00
C661   C     0.83328   0.24673   0.75027   0.00000  Uiso   1.00
C662   C     0.78945   0.15826   0.91082   0.00000  Uiso   1.00
C663   C     0.87607   0.31208   0.74452   0.00000  Uiso   1.00
C664   C     0.80669   0.16385   0.85205   0.00000  Uiso   1.00
C665   C     0.87606   0.02131   0.74450   0.00000  Uiso   1.00
C666   C     0.83312   0.04248   0.75081   0.00000  Uiso   1.00
C667   C     0.79009   0.02130   0.75763   0.00000  Uiso   1.00
C668   C     0.79010   0.31205   0.75765   0.00000  Uiso   1.00
C669   C     0.83314   0.29088   0.75084   0.00000  Uiso   1.00
C670   C     0.98657   0.14165   0.71513   0.00000  Uiso   1.00
C671   C     0.70121   0.14164   0.71516   0.00000  Uiso   1.00
C672   C     0.81061   0.15324   0.99200   0.00000  Uiso   1.00
C673   C     0.68004   0.19158   0.78500   0.00000  Uiso   1.00
C674   C     0.96540   0.19156   0.78501   0.00000  Uiso   1.00
C675   C     0.83326   0.08661   0.75021   0.00000  Uiso   1.00
C676   C     0.86006   0.16639   0.64773   0.00000  Uiso   1.00
C677   C     0.92866   0.12668   0.50811   0.00000  Uiso   1.00
C678   C     0.87624   0.16007   0.58936   0.00000  Uiso   1.00
C679   C     0.74293   0.17176   0.94172   0.00000  Uiso   1.00
C680   C     0.72926   0.17393   0.99782   0.00000  Uiso   1.00
C681   C     0.76296   0.16585   0.52291   0.00000  Uiso   1.00
C682   C     0.82124   0.14397   0.93689   0.00000  Uiso   1.00
C683   C     0.84806   0.14985   0.51388   0.00000  Uiso   1.00
C684   C     0.89268   0.13032   0.98403   0.00000  Uiso   1.00
C685   C     0.89950   0.11480   0.93154   0.00000  Uiso   1.00
C686   C     0.86356   0.12138   0.90906   0.00000  Uiso   1.00
C687   C     0.84259   0.16715   0.56425   0.00000  Uiso   1.00
C688   C     0.91999   0.14065   0.56099   0.00000  Uiso   1.00
H689   H     0.94653   0.13490   0.58025   0.00000  Uiso   1.00
H690   H     0.81134   0.18567   0.58569   0.00000  Uiso   1.00
H691   H     0.71760   0.18164   0.92246   0.00000  Uiso   1.00
H692   H     0.75052   0.16866   0.56656   0.00000  Uiso   1.00
H693   H     0.69310   0.18372   0.52176   0.00000  Uiso   1.00
H694   H     0.86861   0.10822   0.86956   0.00000  Uiso   1.00
H695   H     0.90961   0.29592   0.73919   0.00000  Uiso   1.00
H696   H     0.92889   0.04929   0.83897   0.00000  Uiso   1.00
H697   H     0.90960   0.03749   0.73916   0.00000  Uiso   1.00
H698   H     0.75655   0.03748   0.76300   0.00000  Uiso   1.00
H699   H     0.75656   0.29586   0.76302   0.00000  Uiso   1.00
H700   H     0.97682   0.12168   0.68725   0.00000  Uiso   1.00
H701   H     0.72784   0.12163   0.68730   0.00000  Uiso   1.00
H702   H     0.68977   0.21147   0.81298   0.00000  Uiso   1.00
H703   H     0.93873   0.21147   0.81298   0.00000  Uiso   1.00
H704   H     0.96295   0.11193   0.98745   0.00000  Uiso   1.00
N705   N     0.71426   0.16668   0.75001   0.00000  Uiso   1.00
N706   N     0.95239   0.16665   0.75000   0.00000  Uiso   1.00
O707   O     0.79512   0.22775   0.75000   0.00000  Uiso   1.00
O708   O     0.96088   0.05117   0.92120   0.00000  Uiso   1.00
O709   O     0.94999   0.07413   0.83114   0.00000  Uiso   1.00
O710   O     0.87157   0.22774   0.75000   0.00000  Uiso   1.00
O711   O     0.77613   0.16666   0.82681   0.00000  Uiso   1.00
O712   O     0.85258   0.16665   0.82681   0.00000  Uiso   1.00
O713   O     0.79510   0.10559   0.74999   0.00000  Uiso   1.00
O714   O     0.87154   0.10558   0.75000   0.00000  Uiso   1.00
O715   O     0.81409   0.16668   0.67319   0.00000  Uiso   1.00
O716   O     0.89053   0.16667   0.67319   0.00000  Uiso   1.00
O717   O     0.99525   0.11770   0.88172   0.00000  Uiso   1.00
S718   S     0.95303   0.08887   0.89153   0.00000  Uiso   1.00
Zn719  Zn    0.78229   0.16667   0.75000   0.00000  Uiso   1.00
Zn720  Zn    0.88438   0.16666   0.75000   0.00000  Uiso   1.00
C721   C     0.16661   0.58006   0.75027   0.00000  Uiso   1.00
C722   C     0.12279   0.49159   0.91082   0.00000  Uiso   1.00
C723   C     0.20940   0.64541   0.74452   0.00000  Uiso   1.00
C724   C     0.14003   0.49719   0.85205   0.00000  Uiso   1.00
C725   C     0.20939   0.35464   0.74450   0.00000  Uiso   1.00
C726   C     0.16645   0.37581   0.75081   0.00000  Uiso   1.00
C727   C     0.12342   0.35463   0.75763   0.00000  Uiso   1.00
C728   C     0.12343   0.64539   0.75765   0.00000  Uiso   1.00
C729   C     0.16648   0.62421   0.75084   0.00000  Uiso   1.00
C730   C     0.31991   0.47498   0.71513   0.00000  Uiso   1.00
C731   C     0.03455   0.47497   0.71516   0.00000  Uiso   1.00
C732   C     0.14394   0.48657   0.99200   0.00000  Uiso   1.00
C733   C     0.01338   0.52491   0.78500   0.00000  Uiso   1.00
C734   C     0.29873   0.52489   0.78501   0.00000  Uiso   1.00
C735   C     0.16659   0.41995   0.75021   0.00000  Uiso   1.00
C736   C     0.19339   0.49972   0.64773   0.00000  Uiso   1.00
C737   C     0.26199   0.46001   0.50811   0.00000  Uiso   1.00
C738   C     0.20958   0.49341   0.58936   0.00000  Uiso   1.00
C739   C     0.07626   0.50510   0.94172   0.00000  Uiso   1.00
C740   C     0.06259   0.50726   0.99782   0.00000  Uiso   1.00
C741   C     0.09630   0.49918   0.52291   0.00000  Uiso   1.00
C742   C     0.15457   0.47730   0.93689   0.00000  Uiso   1.00
C743   C     0.18139   0.48318   0.51388   0.00000  Uiso   1.00
C744   C     0.22601   0.46365   0.98403   0.00000  Uiso   1.00
C745   C     0.23284   0.44813   0.93154   0.00000  Uiso   1.00
C746   C     0.19690   0.45472   0.90906   0.00000  Uiso   1.00
C747   C     0.17592   0.50049   0.56425   0.00000  Uiso   1.00
C748   C     0.25332   0.47399   0.56099   0.00000  Uiso   1.00
H749   H     0.27987   0.46824   0.58025   0.00000  Uiso   1.00
H750   H     0.14467   0.51901   0.58569   0.00000  Uiso   1.00
H751   H     0.05093   0.51498   0.92246   0.00000  Uiso   1.00
H752   H     0.08385   0.50199   0.56656   0.00000  Uiso   1.00
H753   H     0.02643   0.51706   0.52176   0.00000  Uiso   1.00
H754   H     0.20194   0.44156   0.86956   0.00000  Uiso   1.00
H755   H     0.24295   0.62925   0.73919   0.00000  Uiso   1.00
H756   H     0.26222   0.38262   0.83897   0.00000  Uiso   1.00
H757   H     0.24293   0.37082   0.73916   0.00000  Uiso   1.00
H758   H     0.08988   0.37081   0.76300   0.00000  Uiso   1.00
H759   H     0.08990   0.62920   0.76302   0.00000  Uiso   1.00
H760   H     0.31015   0.45502   0.68725   0.00000  Uiso   1.00
H761   H     0.06118   0.45497   0.68730   0.00000  Uiso   1.00
H762   H     0.02310   0.54480   0.81298   0.00000  Uiso   1.00
H763   H     0.27206   0.54480   0.81298   0.00000  Uiso   1.00
H764   H     0.29629   0.44526   0.98745   0.00000  Uiso   1.00
N765   N     0.04760   0.50001   0.75001   0.00000  Uiso   1.00
N766   N     0.28573   0.49998   0.75000   0.00000  Uiso   1.00
O767   O     0.12846   0.56108   0.75000   0.00000  Uiso   1.00
O768   O     0.29422   0.38450   0.92120   0.00000  Uiso   1.00
O769   O     0.28332   0.40746   0.83114   0.00000  Uiso   1.00
O770   O     0.20490   0.56107   0.75000   0.00000  Uiso   1.00
O771   O     0.10947   0.50000   0.82681   0.00000  Uiso   1.00
O772   O     0.18591   0.49999   0.82681   0.00000  Uiso   1.00
O773   O     0.12843   0.43893   0.74999   0.00000  Uiso   1.00
O774   O     0.20488   0.43892   0.75000   0.00000  Uiso   1.00
O775   O     0.14742   0.50001   0.67319   0.00000  Uiso   1.00
O776   O     0.22387   0.50000   0.67319   0.00000  Uiso   1.00
O777   O     0.32859   0.45103   0.88172   0.00000  Uiso   1.00
S778   S     0.28637   0.42220   0.89153   0.00000  Uiso   1.00
Zn779  Zn    0.11562   0.50001   0.75000   0.00000  Uiso   1.00
Zn780  Zn    0.21771   0.49999   0.75000   0.00000  Uiso   1.00
C781   C     0.49995   0.58006   0.75027   0.00000  Uiso   1.00
C782   C     0.45612   0.49159   0.91082   0.00000  Uiso   1.00
C783   C     0.54274   0.64541   0.74452   0.00000  Uiso   1.00
C784   C     0.47336   0.49719   0.85205   0.00000  Uiso   1.00
C785   C     0.54273   0.35464   0.74450   0.00000  Uiso   1.00
C786   C     0.49978   0.37581   0.75081   0.00000  Uiso   1.00
C787   C     0.45675   0.35463   0.75763   0.00000  Uiso   1.00
C788   C     0.45677   0.64539   0.75765   0.00000  Uiso   1.00
C789   C     0.49981   0.62421   0.75084   0.00000  Uiso   1.00
C790   C     0.65324   0.47498   0.71513   0.00000  Uiso   1.00
C791   C     0.36788   0.47497   0.71516   0.00000  Uiso   1.00
C792   C     0.47728   0.48657   0.99200   0.00000  Uiso   1.00
C793   C     0.34671   0.52491   0.78500   0.00000  Uiso   1.00
C794   C     0.63206   0.52489   0.78501   0.00000  Uiso   1.00
C795   C     0.49992   0.41995   0.75021   0.00000  Uiso   1.00
C796   C     0.52673   0.49972   0.64773   0.00000  Uiso   1.00
C797   C     0.59533   0.46001   0.50811   0.00000  Uiso   1.00
C798   C     0.54291   0.49341   0.58936   0.00000  Uiso   1.00
C799   C     0.40960   0.50510   0.94172   0.00000  Uiso   1.00
C800   C     0.39592   0.50726   0.99782   0.00000  Uiso   1.00
C801   C     0.42963   0.49918   0.52291   0.00000  Uiso   1.00
C802   C     0.48791   0.47730   0.93689   0.00000  Uiso   1.00
C803   C     0.51473   0.48318   0.51388   0.00000  Uiso   1.00
C804   C     0.55934   0.46365   0.98403   0.00000  Uiso   1.00
C805   C     0.56617   0.44813   0.93154   0.00000  Uiso   1.00
C806   C     0.53023   0.45472   0.90906   0.00000  Uiso   1.00
C807   C     0.50926   0.50049   0.56425   0.00000  Uiso   1.00
C808   C     0.58665   0.47399   0.56099   0.00000  Uiso   1.00
H809   H     0.61320   0.46824   0.58025   0.00000  Uiso   1.00
H810   H     0.47801   0.51901   0.58569   0.00000  Uiso   1.00
H811   H     0.38427   0.51498   0.92246   0.00000  Uiso   1.00
H812   H     0.41719   0.50199   0.56656   0.00000  Uiso   1.00
H813   H     0.35977   0.51706   0.52176   0.00000  Uiso   1.00
H814   H     0.53528   0.44156   0.86956   0.00000  Uiso   1.00
H815   H     0.57628   0.62925   0.73919   0.00000  Uiso   1.00
H816   H     0.59556   0.38262   0.83897   0.00000  Uiso   1.00
H817   H     0.57627   0.37082   0.73916   0.00000  Uiso   1.00
H818   H     0.42321   0.37081   0.76300   0.00000  Uiso   1.00
H819   H     0.42323   0.62920   0.76302   0.00000  Uiso   1.00
H820   H     0.64349   0.45502   0.68725   0.00000  Uiso   1.00
H821   H     0.39451   0.45497   0.68730   0.00000  Uiso   1.00
H822   H     0.35643   0.54480   0.81298   0.00000  Uiso   1.00
H823   H     0.60540   0.54480   0.81298   0.00000  Uiso   1.00
H824   H     0.62962   0.44526   0.98745   0.00000  Uiso   1.00
N825   N     0.38093   0.50001   0.75001   0.00000  Uiso   1.00
N826   N     0.61906   0.49998   0.75000   0.00000  Uiso   1.00
O827   O     0.46179   0.56108   0.75000   0.00000  Uiso   1.00
O828   O     0.62755   0.38450   0.92120   0.00000  Uiso   1.00
O829   O     0.61665   0.40746   0.83114   0.00000  Uiso   1.00
O830   O     0.53823   0.56107   0.75000   0.00000  Uiso   1.00
O831   O     0.44280   0.50000   0.82681   0.00000  Uiso   1.00
O832   O     0.51924   0.49999   0.82681   0.00000  Uiso   1.00
O833   O     0.46177   0.43893   0.74999   0.00000  Uiso   1.00
O834   O     0.53821   0.43892   0.75000   0.00000  Uiso   1.00
O835   O     0.48076   0.50001   0.67319   0.00000  Uiso   1.00
O836   O     0.55720   0.50000   0.67319   0.00000  Uiso   1.00
O837   O     0.66192   0.45103   0.88172   0.00000  Uiso   1.00
S838   S     0.61970   0.42220   0.89153   0.00000  Uiso   1.00
Zn839  Zn    0.44896   0.50001   0.75000   0.00000  Uiso   1.00
Zn840  Zn    0.55104   0.49999   0.75000   0.00000  Uiso   1.00
C841   C     0.83328   0.58006   0.75027   0.00000  Uiso   1.00
C842   C     0.78945   0.49159   0.91082   0.00000  Uiso   1.00
C843   C     0.87607   0.64541   0.74452   0.00000  Uiso   1.00
C844   C     0.80669   0.49719   0.85205   0.00000  Uiso   1.00
C845   C     0.87606   0.35464   0.74450   0.00000  Uiso   1.00
C846   C     0.83312   0.37581   0.75081   0.00000  Uiso   1.00
C847   C     0.79009   0.35463   0.75763   0.00000  Uiso   1.00
C848   C     0.79010   0.64539   0.75765   0.00000  Uiso   1.00
C849   C     0.83314   0.62421   0.75084   0.00000  Uiso   1.00
C850   C     0.98657   0.47498   0.71513   0.00000  Uiso   1.00
C851   C     0.70121   0.47497   0.71516   0.00000  Uiso   1.00
C852   C     0.81061   0.48657   0.99200   0.00000  Uiso   1.00
C853   C     0.68004   0.52491   0.78500   0.00000  Uiso   1.00
C854   C     0.96540   0.52489   0.78501   0.00000  Uiso   1.00
C855   C     0.83326   0.41995   0.75021   0.00000  Uiso   1.00
C856   C     0.86006   0.49972   0.64773   0.00000  Uiso   1.00
C857   C     0.92866   0.46001   0.50811   0.00000  Uiso   1.00
C858   C     0.87624   0.49341   0.58936   0.00000  Uiso   1.00
C859   C     0.74293   0.50510   0.94172   0.00000  Uiso   1.00
C860   C     0.72926   0.50726   0.99782   0.00000  Uiso   1.00
C861   C     0.76296   0.49918   0.52291   0.00000  Uiso   1.00
C862   C     0.82124   0.47730   0.93689   0.00000  Uiso   1.00
C863   C     0.84806   0.48318   0.51388   0.00000  Uiso   1.00
C864   C     0.89268   0.46365   0.98403   0.00000  Uiso   1.00
C865   C     0.89950   0.44813   0.93154   0.00000  Uiso   1.00
C866   C     0.86356   0.45472   0.90906   0.00000  Uiso   1.00
C867   C     0.84259   0.50049   0.56425   0.00000  Uiso   1.00
C868   C     0.91999   0.47399   0.56099   0.00000  Uiso   1.00
H869   H     0.94653   0.46824   0.58025   0.00000  Uiso   1.00
H870   H     0.81134   0.51901   0.58569   0.00000  Uiso   1.00
H871   H     0.71760   0.51498   0.92246   0.00000  Uiso   1.00
H872   H     0.75052   0.50199   0.56656   0.00000  Uiso   1.00
H873   H     0.69310   0.51706   0.52176   0.00000  Uiso   1.00
H874   H     0.86861   0.44156   0.86956   0.00000  Uiso   1.00
H875   H     0.90961   0.62925   0.73919   0.00000  Uiso   1.00
H876   H     0.92889   0.38262   0.83897   0.00000  Uiso   1.00
H877   H     0.90960   0.37082   0.73916   0.00000  Uiso   1.00
H878   H     0.75655   0.37081   0.76300   0.00000  Uiso   1.00
H879   H     0.75656   0.62920   0.76302   0.00000  Uiso   1.00
H880   H     0.97682   0.45502   0.68725   0.00000  Uiso   1.00
H881   H     0.72784   0.45497   0.68730   0.00000  Uiso   1.00
H882   H     0.68977   0.54480   0.81298   0.00000  Uiso   1.00
H883   H     0.93873   0.54480   0.81298   0.00000  Uiso   1.00
H884   H     0.96295   0.44526   0.98745   0.00000  Uiso   1.00
N885   N     0.71426   0.50001   0.75001   0.00000  Uiso   1.00
N886   N     0.95239   0.49998   0.75000   0.00000  Uiso   1.00
O887   O     0.79512   0.56108   0.75000   0.00000  Uiso   1.00
O888   O     0.96088   0.38450   0.92120   0.00000  Uiso   1.00
O889   O     0.94999   0.40746   0.83114   0.00000  Uiso   1.00
O890   O     0.87157   0.56107   0.75000   0.00000  Uiso   1.00
O891   O     0.77613   0.50000   0.82681   0.00000  Uiso   1.00
O892   O     0.85258   0.49999   0.82681   0.00000  Uiso   1.00
O893   O     0.79510   0.43893   0.74999   0.00000  Uiso   1.00
O894   O     0.87154   0.43892   0.75000   0.00000  Uiso   1.00
O895   O     0.81409   0.50001   0.67319   0.00000  Uiso   1.00
O896   O     0.89053   0.50000   0.67319   0.00000  Uiso   1.00
O897   O     0.99525   0.45103   0.88172   0.00000  Uiso   1.00
S898   S     0.95303   0.42220   0.89153   0.00000  Uiso   1.00
Zn899  Zn    0.78229   0.50001   0.75000   0.00000  Uiso   1.00
Zn900  Zn    0.88438   0.49999   0.75000   0.00000  Uiso   1.00
C901   C     0.16661   0.91339   0.75027   0.00000  Uiso   1.00
C902   C     0.12279   0.82492   0.91082   0.00000  Uiso   1.00
C903   C     0.20940   0.97874   0.74452   0.00000  Uiso   1.00
C904   C     0.14003   0.83052   0.85205   0.00000  Uiso   1.00
C905   C     0.20939   0.68798   0.74450   0.00000  Uiso   1.00
C906   C     0.16645   0.70915   0.75081   0.00000  Uiso   1.00
C907   C     0.12342   0.68797   0.75763   0.00000  Uiso   1.00
C908   C     0.12343   0.97872   0.75765   0.00000  Uiso   1.00
C909   C     0.16648   0.95755   0.75084   0.00000  Uiso   1.00
C910   C     0.31991   0.80832   0.71513   0.00000  Uiso   1.00
C911   C     0.03455   0.80831   0.71516   0.00000  Uiso   1.00
C912   C     0.14394   0.81991   0.99200   0.00000  Uiso   1.00
C913   C     0.01338   0.85825   0.78500   0.00000  Uiso   1.00
C914   C     0.29873   0.85822   0.78501   0.00000  Uiso   1.00
C915   C     0.16659   0.75328   0.75021   0.00000  Uiso   1.00
C916   C     0.19339   0.83306   0.64773   0.00000  Uiso   1.00
C917   C     0.26199   0.79335   0.50811   0.00000  Uiso   1.00
C918   C     0.20958   0.82674   0.58936   0.00000  Uiso   1.00
C919   C     0.07626   0.83843   0.94172   0.00000  Uiso   1.00
C920   C     0.06259   0.84059   0.99782   0.00000  Uiso   1.00
C921   C     0.09630   0.83251   0.52291   0.00000  Uiso   1.00
C922   C     0.15457   0.81064   0.93689   0.00000  Uiso   1.00
C923   C     0.18139   0.81651   0.51388   0.00000  Uiso   1.00
C924   C     0.22601   0.79698   0.98403   0.00000  Uiso   1.00
C925   C     0.23284   0.78147   0.93154   0.00000  Uiso   1.00
C926   C     0.19690   0.78805   0.90906   0.00000  Uiso   1.00
C927   C     0.17592   0.83382   0.56425   0.00000  Uiso   1.00
C928   C     0.25332   0.80732   0.56099   0.00000  Uiso   1.00
H929   H     0.27987   0.80157   0.58025   0.00000  Uiso   1.00
H930   H     0.14467   0.85234   0.58569   0.00000  Uiso   1.00
H931   H     0.05093   0.84831   0.92246   0.00000  Uiso   1.00
H932   H     0.08385   0.83532   0.56656   0.00000  Uiso   1.00
H933   H     0.02643   0.85039   0.52176   0.00000  Uiso   1.00
H934   H     0.20194   0.77489   0.86956   0.00000  Uiso   1.00
H935   H     0.24295   0.96259   0.73919   0.00000  Uiso   1.00
H936   H     0.26222   0.71595   0.83897   0.00000  Uiso   1.00
H937   H     0.24293   0.70415   0.73916   0.00000  Uiso   1.00
H938   H     0.08988   0.70415   0.76300   0.00000  Uiso   1.00
H939   H     0.08990   0.96253   0.76302   0.00000  Uiso   1.00
H940   H     0.31015   0.78835   0.68725   0.00000  Uiso   1.00
H941   H     0.06118   0.78830   0.68730   0.00000  Uiso   1.00
H942   H     0.02310   0.87813   0.81298   0.00000  Uiso   1.00
H943   H     0.27206   0.87814   0.81298   0.00000  Uiso   1.00
H944   H     0.29629   0.77860   0.98745   0.00000  Uiso   1.00
N945   N     0.04760   0.83334   0.75001   0.00000  Uiso   1.00
N946   N     0.28573   0.83331   0.75000   0.00000  Uiso   1.00
O947   O     0.12846   0.89442   0.75000   0.00000  Uiso   1.00
O948   O     0.29422   0.71783   0.92120   0.00000  Uiso   1.00
O949   O     0.28332   0.74080   0.83114   0.00000  Uiso   1.00
O950   O     0.20490   0.89441   0.75000   0.00000  Uiso   1.00
O951   O     0.10947   0.83333   0.82681   0.00000  Uiso   1.00
O952   O     0.18591   0.83332   0.82681   0.00000  Uiso   1.00
O953   O     0.12843   0.77226   0.74999   0.00000  Uiso   1.00
O954   O     0.20488   0.77225   0.75000   0.00000  Uiso   1.00
O955   O     0.14742   0.83335   0.67319   0.00000  Uiso   1.00
O956   O     0.22387   0.83334   0.67319   0.00000  Uiso   1.00
O957   O     0.32859   0.78437   0.88172   0.00000  Uiso   1.00
S958   S     0.28637   0.75554   0.89153   0.00000  Uiso   1.00
Zn959  Zn    0.11562   0.83334   0.75000   0.00000  Uiso   1.00
Zn960  Zn    0.21771   0.83333   0.75000   0.00000  Uiso   1.00
C961   C     0.49995   0.91339   0.75027   0.00000  Uiso   1.00
C962   C     0.45612   0.82492   0.91082   0.00000  Uiso   1.00
C963   C     0.54274   0.97874   0.74452   0.00000  Uiso   1.00
C964   C     0.47336   0.83052   0.85205   0.00000  Uiso   1.00
C965   C     0.54273   0.68798   0.74450   0.00000  Uiso   1.00
C966   C     0.49978   0.70915   0.75081   0.00000  Uiso   1.00
C967   C     0.45675   0.68797   0.75763   0.00000  Uiso   1.00
C968   C     0.45677   0.97872   0.75765   0.00000  Uiso   1.00
C969   C     0.49981   0.95755   0.75084   0.00000  Uiso   1.00
C970   C     0.65324   0.80832   0.71513   0.00000  Uiso   1.00
C971   C     0.36788   0.80831   0.71516   0.00000  Uiso   1.00
C972   C     0.47728   0.81991   0.99200   0.00000  Uiso   1.00
C973   C     0.34671   0.85825   0.78500   0.00000  Uiso   1.00
C974   C     0.63206   0.85822   0.78501   0.00000  Uiso   1.00
C975   C     0.49992   0.75328   0.75021   0.00000  Uiso   1.00
C976   C     0.52673   0.83306   0.64773   0.00000  Uiso   1.00
C977   C     0.59533   0.79335   0.50811   0.00000  Uiso   1.00
C978   C     0.54291   0.82674   0.58936   0.00000  Uiso   1.00
C979   C     0.40960   0.83843   0.94172   0.00000  Uiso   1.00
C980   C     0.39592   0.84059   0.99782   0.00000  Uiso   1.00
C981   C     0.42963   0.83251   0.52291   0.00000  Uiso   1.00
C982   C     0.48791   0.81064   0.93689   0.00000  Uiso   1.00
C983   C     0.51473   0.81651   0.51388   0.00000  Uiso   1.00
C984   C     0.55934   0.79698   0.98403   0.00000  Uiso   1.00
C985   C     0.56617   0.78147   0.93154   0.00000  Uiso   1.00
C986   C     0.53023   0.78805   0.90906   0.00000  Uiso   1.00
C987   C     0.50926   0.83382   0.56425   0.00000  Uiso   1.00
C988   C     0.58665   0.80732   0.56099   0.00000  Uiso   1.00
H989   H     0.61320   0.80157   0.58025   0.00000  Uiso   1.00
H990   H     0.47801   0.85234   0.58569   0.00000  Uiso   1.00
H991   H     0.38427   0.84831   0.92246   0.00000  Uiso   1.00
H992   H     0.41719   0.83532   0.56656   0.00000  Uiso   1.00
H993   H     0.35977   0.85039   0.52176   0.00000  Uiso   1.00
H994   H     0.53528   0.77489   0.86956   0.00000  Uiso   1.00
H995   H     0.57628   0.96259   0.73919   0.00000  Uiso   1.00
H996   H     0.59556   0.71595   0.83897   0.00000  Uiso   1.00
H997   H     0.57627   0.70415   0.73916   0.00000  Uiso   1.00
H998   H     0.42321   0.70415   0.76300   0.00000  Uiso   1.00
H999   H     0.42323   0.96253   0.76302   0.00000  Uiso   1.00
H1000  H     0.64349   0.78835   0.68725   0.00000  Uiso   1.00
H1001  H     0.39451   0.78830   0.68730   0.00000  Uiso   1.00
H1002  H     0.35643   0.87813   0.81298   0.00000  Uiso   1.00
H1003  H     0.60540   0.87814   0.81298   0.00000  Uiso   1.00
H1004  H     0.62962   0.77860   0.98745   0.00000  Uiso   1.00
N1005  N     0.38093   0.83334   0.75001   0.00000  Uiso   1.00
N1006  N     0.61906   0.83331   0.75000   0.00000  Uiso   1.00
O1007  O     0.46179   0.89442   0.75000   0.00000  Uiso   1.00
O1008  O     0.62755   0.71783   0.92120   0.00000  Uiso   1.00
O1009  O     0.61665   0.74080   0.83114   0.00000  Uiso   1.00
O1010  O     0.53823   0.89441   0.75000   0.00000  Uiso   1.00
O1011  O     0.44280   0.83333   0.82681   0.00000  Uiso   1.00
O1012  O     0.51924   0.83332   0.82681   0.00000  Uiso   1.00
O1013  O     0.46177   0.77226   0.74999   0.00000  Uiso   1.00
O1014  O     0.53821   0.77225   0.75000   0.00000  Uiso   1.00
O1015  O     0.48076   0.83335   0.67319   0.00000  Uiso   1.00
O1016  O     0.55720   0.83334   0.67319   0.00000  Uiso   1.00
O1017  O     0.66192   0.78437   0.88172   0.00000  Uiso   1.00
S1018  S     0.61970   0.75554   0.89153   0.00000  Uiso   1.00
Zn1019 Zn    0.44896   0.83334   0.75000   0.00000  Uiso   1.00
Zn1020 Zn    0.55104   0.83333   0.75000   0.00000  Uiso   1.00
C1021  C     0.83328   0.91339   0.75027   0.00000  Uiso   1.00
C1022  C     0.78945   0.82492   0.91082   0.00000  Uiso   1.00
C1023  C     0.87607   0.97874   0.74452   0.00000  Uiso   1.00
C1024  C     0.80669   0.83052   0.85205   0.00000  Uiso   1.00
C1025  C     0.87606   0.68798   0.74450   0.00000  Uiso   1.00
C1026  C     0.83312   0.70915   0.75081   0.00000  Uiso   1.00
C1027  C     0.79009   0.68797   0.75763   0.00000  Uiso   1.00
C1028  C     0.79010   0.97872   0.75765   0.00000  Uiso   1.00
C1029  C     0.83314   0.95755   0.75084   0.00000  Uiso   1.00
C1030  C     0.98657   0.80832   0.71513   0.00000  Uiso   1.00
C1031  C     0.70121   0.80831   0.71516   0.00000  Uiso   1.00
C1032  C     0.81061   0.81991   0.99200   0.00000  Uiso   1.00
C1033  C     0.68004   0.85825   0.78500   0.00000  Uiso   1.00
C1034  C     0.96540   0.85822   0.78501   0.00000  Uiso   1.00
C1035  C     0.83326   0.75328   0.75021   0.00000  Uiso   1.00
C1036  C     0.86006   0.83306   0.64773   0.00000  Uiso   1.00
C1037  C     0.92866   0.79335   0.50811   0.00000  Uiso   1.00
C1038  C     0.87624   0.82674   0.58936   0.00000  Uiso   1.00
C1039  C     0.74293   0.83843   0.94172   0.00000  Uiso   1.00
C1040  C     0.72926   0.84059   0.99782   0.00000  Uiso   1.00
C1041  C     0.76296   0.83251   0.52291   0.00000  Uiso   1.00
C1042  C     0.82124   0.81064   0.93689   0.00000  Uiso   1.00
C1043  C     0.84806   0.81651   0.51388   0.00000  Uiso   1.00
C1044  C     0.89268   0.79698   0.98403   0.00000  Uiso   1.00
C1045  C     0.89950   0.78147   0.93154   0.00000  Uiso   1.00
C1046  C     0.86356   0.78805   0.90906   0.00000  Uiso   1.00
C1047  C     0.84259   0.83382   0.56425   0.00000  Uiso   1.00
C1048  C     0.91999   0.80732   0.56099   0.00000  Uiso   1.00
H1049  H     0.94653   0.80157   0.58025   0.00000  Uiso   1.00
H1050  H     0.81134   0.85234   0.58569   0.00000  Uiso   1.00
H1051  H     0.71760   0.84831   0.92246   0.00000  Uiso   1.00
H1052  H     0.75052   0.83532   0.56656   0.00000  Uiso   1.00
H1053  H     0.69310   0.85039   0.52176   0.00000  Uiso   1.00
H1054  H     0.86861   0.77489   0.86956   0.00000  Uiso   1.00
H1055  H     0.90961   0.96259   0.73919   0.00000  Uiso   1.00
H1056  H     0.92889   0.71595   0.83897   0.00000  Uiso   1.00
H1057  H     0.90960   0.70415   0.73916   0.00000  Uiso   1.00
H1058  H     0.75655   0.70415   0.76300   0.00000  Uiso   1.00
H1059  H     0.75656   0.96253   0.76302   0.00000  Uiso   1.00
H1060  H     0.97682   0.78835   0.68725   0.00000  Uiso   1.00
H1061  H     0.72784   0.78830   0.68730   0.00000  Uiso   1.00
H1062  H     0.68977   0.87813   0.81298   0.00000  Uiso   1.00
H1063  H     0.93873   0.87814   0.81298   0.00000  Uiso   1.00
H1064  H     0.96295   0.77860   0.98745   0.00000  Uiso   1.00
N1065  N     0.71426   0.83334   0.75001   0.00000  Uiso   1.00
N1066  N     0.95239   0.83331   0.75000   0.00000  Uiso   1.00
O1067  O     0.79512   0.89442   0.75000   0.00000  Uiso   1.00
O1068  O     0.96088   0.71783   0.92120   0.00000  Uiso   1.00
O1069  O     0.94999   0.74080   0.83114   0.00000  Uiso   1.00
O1070  O     0.87157   0.89441   0.75000   0.00000  Uiso   1.00
O1071  O     0.77613   0.83333   0.82681   0.00000  Uiso   1.00
O1072  O     0.85258   0.83332   0.82681   0.00000  Uiso   1.00
O1073  O     0.79510   0.77226   0.74999   0.00000  Uiso   1.00
O1074  O     0.87154   0.77225   0.75000   0.00000  Uiso   1.00
O1075  O     0.81409   0.83335   0.67319   0.00000  Uiso   1.00
O1076  O     0.89053   0.83334   0.67319   0.00000  Uiso   1.00
O1077  O     0.99525   0.78437   0.88172   0.00000  Uiso   1.00
S1078  S     0.95303   0.75554   0.89153   0.00000  Uiso   1.00
Zn1079 Zn    0.78229   0.83334   0.75000   0.00000  Uiso   1.00
Zn1080 Zn    0.88438   0.83333   0.75000   0.00000  Uiso   1.00
loop_
_geom_bond_atom_site_label_1
_geom_bond_atom_site_label_2
_geom_bond_distance
_geom_bond_site_symmetry_2
_ccdc_geom_bond_type
C1     O50     1.282   .     A
C1     C9      1.420   .     S
C1     O47     1.282   .     A
C2     C22     1.414   .     A
C2     C4      1.460   .     S
C2     C19     1.402   .     A
C3     C9      1.397   .     A
C3     H35     1.084   .     S
C3     C185    1.369   .     S
C4     O52     1.291   .     A
C4     O51     1.291   .     A
C5     H37     1.084   .     S
C5     C6      1.397   .     A
C5     C363    1.369   1_545 S
C6     C7      1.397   .     A
C6     C15     1.420   .     S
C7     H38     1.084   .     S
C7     C368    1.370   1_545 S
C8     H39     1.084   .     S
C8     C9      1.397   .     A
C8     C187    1.370   .     S
C10    H40     1.082   .     S
C10    N46     1.366   .     A
C10    C71     1.415   .     S
C11    H41     1.082   .     S
C11    N45     1.367   .     A
C11    C130    1.415   1_455 S
C12    C22     1.401   .     A
C12    C561    1.420   .     S
C12    C563    1.413   .     S
C13    N45     1.366   .     A
C13    H42     1.082   .     S
C13    C134    1.415   1_455 S
C14    H43     1.082   .     S
C14    N46     1.366   .     A
C14    C73     1.415   .     S
C15    O53     1.282   .     A
C15    O54     1.282   .     A
C16    O56     1.290   .     A
C16    O55     1.291   .     A
C16    C18     1.453   .     S
C17    C28     1.394   .     A
C17    C564    1.414   1_554 S
C17    H584    1.080   1_554 S
C18    C28     1.396   .     A
C18    C27     1.385   .     A
C19    C20     1.388   .     A
C19    H31     1.083   .     S
C20    C561    1.392   .     S
C20    H573    1.083   .     S
C21    H32     1.079   .     S
C21    C552    1.420   1_554 S
C21    C560    1.392   1_554 S
C22    C26     1.412   .     A
C23    C27     1.389   .     A
C23    C552    1.413   1_554 S
C23    C564    1.426   1_554 S
C24    C25     1.411   .     A
C24    C557    1.414   .     S
C24    C563    1.426   .     S
C25    C26     1.395   .     A
C25    S58     1.776   .     S
C26    H34     1.080   .     S
C27    H30     1.079   .     S
C28    H29     1.083   .     S
H33    C560    1.083   1_554 S
H36    O49     0.991   .     S
H44    C557    1.080   .     S
N45    Zn59    2.007   .     S
N46    Zn60    2.006   .     S
O47    Zn59    2.001   .     S
O48    S58     1.503   .     D
O49    S58     1.683   .     S
O50    Zn60    2.001   .     S
O51    Zn59    1.960   .     S
O52    Zn60    1.909   .     S
O53    Zn59    2.001   .     S
O54    Zn60    2.001   .     S
O55    Zn59    1.909   .     S
O56    Zn60    1.960   .     S
O57    S58     1.503   .     D
C61    O110    1.282   .     A
C61    C69     1.420   .     S
C61    O107    1.282   .     A
C62    C82     1.414   .     A
C62    C64     1.460   .     S
C62    C79     1.402   .     A
C63    C69     1.397   .     A
C63    H95     1.084   .     S
C63    C245    1.369   .     S
C64    O112    1.291   .     A
C64    O111    1.291   .     A
C65    H97     1.084   .     S
C65    C66     1.397   .     A
C65    C423    1.369   1_545 S
C66    C67     1.397   .     A
C66    C75     1.420   .     S
C67    H98     1.084   .     S
C67    C428    1.370   1_545 S
C68    H99     1.084   .     S
C68    C69     1.397   .     A
C68    C247    1.370   .     S
C70    H100    1.082   .     S
C70    N106    1.366   .     A
C70    C131    1.415   .     S
C71    H101    1.082   .     S
C71    N105    1.367   .     A
C72    C82     1.401   .     A
C72    C621    1.420   .     S
C72    C623    1.413   .     S
C73    N105    1.366   .     A
C73    H102    1.082   .     S
C74    H103    1.082   .     S
C74    N106    1.366   .     A
C74    C133    1.415   .     S
C75    O113    1.282   .     A
C75    O114    1.282   .     A
C76    O116    1.290   .     A
C76    O115    1.291   .     A
C76    C78     1.453   .     S
C77    C88     1.394   .     A
C77    C624    1.414   1_554 S
C77    H644    1.080   1_554 S
C78    C88     1.396   .     A
C78    C87     1.385   .     A
C79    C80     1.388   .     A
C79    H91     1.083   .     S
C80    C621    1.392   .     S
C80    H633    1.083   .     S
C81    H92     1.079   .     S
C81    C612    1.420   1_554 S
C81    C620    1.392   1_554 S
C82    C86     1.412   .     A
C83    C87     1.389   .     A
C83    C612    1.413   1_554 S
C83    C624    1.426   1_554 S
C84    C85     1.411   .     A
C84    C617    1.414   .     S
C84    C623    1.426   .     S
C85    C86     1.395   .     A
C85    S118    1.776   .     S
C86    H94     1.080   .     S
C87    H90     1.079   .     S
C88    H89     1.083   .     S
H93    C620    1.083   1_554 S
H96    O109    0.991   .     S
H104   C617    1.080   .     S
N105   Zn119   2.007   .     S
N106   Zn120   2.006   .     S
O107   Zn119   2.001   .     S
O108   S118    1.503   .     D
O109   S118    1.683   .     S
O110   Zn120   2.001   .     S
O111   Zn119   1.960   .     S
O112   Zn120   1.909   .     S
O113   Zn119   2.001   .     S
O114   Zn120   2.001   .     S
O115   Zn119   1.909   .     S
O116   Zn120   1.960   .     S
O117   S118    1.503   .     D
C121   O170    1.282   .     A
C121   C129    1.420   .     S
C121   O167    1.282   .     A
C122   C142    1.414   .     A
C122   C124    1.460   .     S
C122   C139    1.402   .     A
C123   C129    1.397   .     A
C123   H155    1.084   .     S
C123   C305    1.369   .     S
C124   O172    1.291   .     A
C124   O171    1.291   .     A
C125   H157    1.084   .     S
C125   C126    1.397   .     A
C125   C483    1.369   1_545 S
C126   C127    1.397   .     A
C126   C135    1.420   .     S
C127   H158    1.084   .     S
C127   C488    1.370   1_545 S
C128   H159    1.084   .     S
C128   C129    1.397   .     A
C128   C307    1.370   .     S
C130   H160    1.082   .     S
C130   N166    1.366   .     A
C130   C11     1.415   1_655 S
C131   H161    1.082   .     S
C131   N165    1.367   .     A
C132   C142    1.401   .     A
C132   C681    1.420   .     S
C132   C683    1.413   .     S
C133   N165    1.366   .     A
C133   H162    1.082   .     S
C134   H163    1.082   .     S
C134   N166    1.366   .     A
C134   C13     1.415   1_655 S
C135   O173    1.282   .     A
C135   O174    1.282   .     A
C136   O176    1.290   .     A
C136   O175    1.291   .     A
C136   C138    1.453   .     S
C137   C148    1.394   .     A
C137   C684    1.414   1_554 S
C137   H704    1.080   1_554 S
C138   C148    1.396   .     A
C138   C147    1.385   .     A
C139   C140    1.388   .     A
C139   H151    1.083   .     S
C140   C681    1.392   .     S
C140   H693    1.083   .     S
C141   H152    1.079   .     S
C141   C672    1.420   1_554 S
C141   C680    1.392   1_554 S
C142   C146    1.412   .     A
C143   C147    1.389   .     A
C143   C672    1.413   1_554 S
C143   C684    1.426   1_554 S
C144   C145    1.411   .     A
C144   C677    1.414   .     S
C144   C683    1.426   .     S
C145   C146    1.395   .     A
C145   S178    1.776   .     S
C146   H154    1.080   .     S
C147   H150    1.079   .     S
C148   H149    1.083   .     S
H153   C680    1.083   1_554 S
H156   O169    0.991   .     S
H164   C677    1.080   .     S
N165   Zn179   2.007   .     S
N166   Zn180   2.006   .     S
O167   Zn179   2.001   .     S
O168   S178    1.503   .     D
O169   S178    1.683   .     S
O170   Zn180   2.001   .     S
O171   Zn179   1.960   .     S
O172   Zn180   1.909   .     S
O173   Zn179   2.001   .     S
O174   Zn180   2.001   .     S
O175   Zn179   1.909   .     S
O176   Zn180   1.960   .     S
O177   S178    1.503   .     D
C181   O230    1.282   .     A
C181   C189    1.420   .     S
C181   O227    1.282   .     A
C182   C202    1.414   .     A
C182   C184    1.460   .     S
C182   C199    1.402   .     A
C183   C189    1.397   .     A
C183   H215    1.084   .     S
C183   C365    1.369   .     S
C184   O232    1.291   .     A
C184   O231    1.291   .     A
C185   H217    1.084   .     S
C185   C186    1.397   .     A
C186   C187    1.397   .     A
C186   C195    1.420   .     S
C187   H218    1.084   .     S
C188   H219    1.084   .     S
C188   C189    1.397   .     A
C188   C367    1.370   .     S
C190   H220    1.082   .     S
C190   N226    1.366   .     A
C190   C251    1.415   .     S
C191   H221    1.082   .     S
C191   N225    1.367   .     A
C191   C310    1.415   1_455 S
C192   C202    1.401   .     A
C192   C741    1.420   .     S
C192   C743    1.413   .     S
C193   N225    1.366   .     A
C193   H222    1.082   .     S
C193   C314    1.415   1_455 S
C194   H223    1.082   .     S
C194   N226    1.366   .     A
C194   C253    1.415   .     S
C195   O233    1.282   .     A
C195   O234    1.282   .     A
C196   O236    1.290   .     A
C196   O235    1.291   .     A
C196   C198    1.453   .     S
C197   C208    1.394   .     A
C197   C744    1.414   1_554 S
C197   H764    1.080   1_554 S
C198   C208    1.396   .     A
C198   C207    1.385   .     A
C199   C200    1.388   .     A
C199   H211    1.083   .     S
C200   C741    1.392   .     S
C200   H753    1.083   .     S
C201   H212    1.079   .     S
C201   C732    1.420   1_554 S
C201   C740    1.392   1_554 S
C202   C206    1.412   .     A
C203   C207    1.389   .     A
C203   C732    1.413   1_554 S
C203   C744    1.426   1_554 S
C204   C205    1.411   .     A
C204   C737    1.414   .     S
C204   C743    1.426   .     S
C205   C206    1.395   .     A
C205   S238    1.776   .     S
C206   H214    1.080   .     S
C207   H210    1.079   .     S
C208   H209    1.083   .     S
H213   C740    1.083   1_554 S
H216   O229    0.991   .     S
H224   C737    1.080   .     S
N225   Zn239   2.007   .     S
N226   Zn240   2.006   .     S
O227   Zn239   2.001   .     S
O228   S238    1.503   .     D
O229   S238    1.683   .     S
O230   Zn240   2.001   .     S
O231   Zn239   1.960   .     S
O232   Zn240   1.909   .     S
O233   Zn239   2.001   .     S
O234   Zn240   2.001   .     S
O235   Zn239   1.909   .     S
O236   Zn240   1.960   .     S
O237   S238    1.503   .     D
C241   O290    1.282   .     A
C241   C249    1.420   .     S
C241   O287    1.282   .     A
C242   C262    1.414   .     A
C242   C244    1.460   .     S
C242   C259    1.402   .     A
C243   C249    1.397   .     A
C243   H275    1.084   .     S
C243   C425    1.369   .     S
C244   O292    1.291   .     A
C244   O291    1.291   .     A
C245   H277    1.084   .     S
C245   C246    1.397   .     A
C246   C247    1.397   .     A
C246   C255    1.420   .     S
C247   H278    1.084   .     S
C248   H279    1.084   .     S
C248   C249    1.397   .     A
C248   C427    1.370   .     S
C250   H280    1.082   .     S
C250   N286    1.366   .     A
C250   C311    1.415   .     S
C251   H281    1.082   .     S
C251   N285    1.367   .     A
C252   C262    1.401   .     A
C252   C801    1.420   .     S
C252   C803    1.413   .     S
C253   N285    1.366   .     A
C253   H282    1.082   .     S
C254   H283    1.082   .     S
C254   N286    1.366   .     A
C254   C313    1.415   .     S
C255   O293    1.282   .     A
C255   O294    1.282   .     A
C256   O296    1.290   .     A
C256   O295    1.291   .     A
C256   C258    1.453   .     S
C257   C268    1.394   .     A
C257   C804    1.414   1_554 S
C257   H824    1.080   1_554 S
C258   C268    1.396   .     A
C258   C267    1.385   .     A
C259   C260    1.388   .     A
C259   H271    1.083   .     S
C260   C801    1.392   .     S
C260   H813    1.083   .     S
C261   H272    1.079   .     S
C261   C792    1.420   1_554 S
C261   C800    1.392   1_554 S
C262   C266    1.412   .     A
C263   C267    1.389   .     A
C263   C792    1.413   1_554 S
C263   C804    1.426   1_554 S
C264   C265    1.411   .     A
C264   C797    1.414   .     S
C264   C803    1.426   .     S
C265   C266    1.395   .     A
C265   S298    1.776   .     S
C266   H274    1.080   .     S
C267   H270    1.079   .     S
C268   H269    1.083   .     S
H273   C800    1.083   1_554 S
H276   O289    0.991   .     S
H284   C797    1.080   .     S
N285   Zn299   2.007   .     S
N286   Zn300   2.006   .     S
O287   Zn299   2.001   .     S
O288   S298    1.503   .     D
O289   S298    1.683   .     S
O290   Zn300   2.001   .     S
O291   Zn299   1.960   .     S
O292   Zn300   1.909   .     S
O293   Zn299   2.001   .     S
O294   Zn300   2.001   .     S
O295   Zn299   1.909   .     S
O296   Zn300   1.960   .     S
O297   S298    1.503   .     D
C301   O350    1.282   .     A
C301   C309    1.420   .     S
C301   O347    1.282   .     A
C302   C322    1.414   .     A
C302   C304    1.460   .     S
C302   C319    1.402   .     A
C303   C309    1.397   .     A
C303   H335    1.084   .     S
C303   C485    1.369   .     S
C304   O352    1.291   .     A
C304   O351    1.291   .     A
C305   H337    1.084   .     S
C305   C306    1.397   .     A
C306   C307    1.397   .     A
C306   C315    1.420   .     S
C307   H338    1.084   .     S
C308   H339    1.084   .     S
C308   C309    1.397   .     A
C308   C487    1.370   .     S
C310   H340    1.082   .     S
C310   N346    1.366   .     A
C310   C191    1.415   1_655 S
C311   H341    1.082   .     S
C311   N345    1.367   .     A
C312   C322    1.401   .     A
C312   C861    1.420   .     S
C312   C863    1.413   .     S
C313   N345    1.366   .     A
C313   H342    1.082   .     S
C314   H343    1.082   .     S
C314   N346    1.366   .     A
C314   C193    1.415   1_655 S
C315   O353    1.282   .     A
C315   O354    1.282   .     A
C316   O356    1.290   .     A
C316   O355    1.291   .     A
C316   C318    1.453   .     S
C317   C328    1.394   .     A
C317   C864    1.414   1_554 S
C317   H884    1.080   1_554 S
C318   C328    1.396   .     A
C318   C327    1.385   .     A
C319   C320    1.388   .     A
C319   H331    1.083   .     S
C320   C861    1.392   .     S
C320   H873    1.083   .     S
C321   H332    1.079   .     S
C321   C852    1.420   1_554 S
C321   C860    1.392   1_554 S
C322   C326    1.412   .     A
C323   C327    1.389   .     A
C323   C852    1.413   1_554 S
C323   C864    1.426   1_554 S
C324   C325    1.411   .     A
C324   C857    1.414   .     S
C324   C863    1.426   .     S
C325   C326    1.395   .     A
C325   S358    1.776   .     S
C326   H334    1.080   .     S
C327   H330    1.079   .     S
C328   H329    1.083   .     S
H333   C860    1.083   1_554 S
H336   O349    0.991   .     S
H344   C857    1.080   .     S
N345   Zn359   2.007   .     S
N346   Zn360   2.006   .     S
O347   Zn359   2.001   .     S
O348   S358    1.503   .     D
O349   S358    1.683   .     S
O350   Zn360   2.001   .     S
O351   Zn359   1.960   .     S
O352   Zn360   1.909   .     S
O353   Zn359   2.001   .     S
O354   Zn360   2.001   .     S
O355   Zn359   1.909   .     S
O356   Zn360   1.960   .     S
O357   S358    1.503   .     D
C361   O410    1.282   .     A
C361   C369    1.420   .     S
C361   O407    1.282   .     A
C362   C382    1.414   .     A
C362   C364    1.460   .     S
C362   C379    1.402   .     A
C363   C369    1.397   .     A
C363   H395    1.084   .     S
C363   C5      1.369   1_565 S
C364   O412    1.291   .     A
C364   O411    1.291   .     A
C365   H397    1.084   .     S
C365   C366    1.397   .     A
C366   C367    1.397   .     A
C366   C375    1.420   .     S
C367   H398    1.084   .     S
C368   H399    1.084   .     S
C368   C369    1.397   .     A
C368   C7      1.370   1_565 S
C370   H400    1.082   .     S
C370   N406    1.366   .     A
C370   C431    1.415   .     S
C371   H401    1.082   .     S
C371   N405    1.367   .     A
C371   C490    1.415   1_455 S
C372   C382    1.401   .     A
C372   C921    1.420   .     S
C372   C923    1.413   .     S
C373   N405    1.366   .     A
C373   H402    1.082   .     S
C373   C494    1.415   1_455 S
C374   H403    1.082   .     S
C374   N406    1.366   .     A
C374   C433    1.415   .     S
C375   O413    1.282   .     A
C375   O414    1.282   .     A
C376   O416    1.290   .     A
C376   O415    1.291   .     A
C376   C378    1.453   .     S
C377   C388    1.394   .     A
C377   C924    1.414   1_554 S
C377   H944    1.080   1_554 S
C378   C388    1.396   .     A
C378   C387    1.385   .     A
C379   C380    1.388   .     A
C379   H391    1.083   .     S
C380   C921    1.392   .     S
C380   H933    1.083   .     S
C381   H392    1.079   .     S
C381   C912    1.420   1_554 S
C381   C920    1.392   1_554 S
C382   C386    1.412   .     A
C383   C387    1.389   .     A
C383   C912    1.413   1_554 S
C383   C924    1.426   1_554 S
C384   C385    1.411   .     A
C384   C917    1.414   .     S
C384   C923    1.426   .     S
C385   C386    1.395   .     A
C385   S418    1.776   .     S
C386   H394    1.080   .     S
C387   H390    1.079   .     S
C388   H389    1.083   .     S
H393   C920    1.083   1_554 S
H396   O409    0.991   .     S
H404   C917    1.080   .     S
N405   Zn419   2.007   .     S
N406   Zn420   2.006   .     S
O407   Zn419   2.001   .     S
O408   S418    1.503   .     D
O409   S418    1.683   .     S
O410   Zn420   2.001   .     S
O411   Zn419   1.960   .     S
O412   Zn420   1.909   .     S
O413   Zn419   2.001   .     S
O414   Zn420   2.001   .     S
O415   Zn419   1.909   .     S
O416   Zn420   1.960   .     S
O417   S418    1.503   .     D
C421   O470    1.282   .     A
C421   C429    1.420   .     S
C421   O467    1.282   .     A
C422   C442    1.414   .     A
C422   C424    1.460   .     S
C422   C439    1.402   .     A
C423   C429    1.397   .     A
C423   H455    1.084   .     S
C423   C65     1.369   1_565 S
C424   O472    1.291   .     A
C424   O471    1.291   .     A
C425   H457    1.084   .     S
C425   C426    1.397   .     A
C426   C427    1.397   .     A
C426   C435    1.420   .     S
C427   H458    1.084   .     S
C428   H459    1.084   .     S
C428   C429    1.397   .     A
C428   C67     1.370   1_565 S
C430   H460    1.082   .     S
C430   N466    1.366   .     A
C430   C491    1.415   .     S
C431   H461    1.082   .     S
C431   N465    1.367   .     A
C432   C442    1.401   .     A
C432   C981    1.420   .     S
C432   C983    1.413   .     S
C433   N465    1.366   .     A
C433   H462    1.082   .     S
C434   H463    1.082   .     S
C434   N466    1.366   .     A
C434   C493    1.415   .     S
C435   O473    1.282   .     A
C435   O474    1.282   .     A
C436   O476    1.290   .     A
C436   O475    1.291   .     A
C436   C438    1.453   .     S
C437   C448    1.394   .     A
C437   C984    1.414   1_554 S
C437   H1004   1.080   1_554 S
C438   C448    1.396   .     A
C438   C447    1.385   .     A
C439   C440    1.388   .     A
C439   H451    1.083   .     S
C440   C981    1.392   .     S
C440   H993    1.083   .     S
C441   H452    1.079   .     S
C441   C972    1.420   1_554 S
C441   C980    1.392   1_554 S
C442   C446    1.412   .     A
C443   C447    1.389   .     A
C443   C972    1.413   1_554 S
C443   C984    1.426   1_554 S
C444   C445    1.411   .     A
C444   C977    1.414   .     S
C444   C983    1.426   .     S
C445   C446    1.395   .     A
C445   S478    1.776   .     S
C446   H454    1.080   .     S
C447   H450    1.079   .     S
C448   H449    1.083   .     S
H453   C980    1.083   1_554 S
H456   O469    0.991   .     S
H464   C977    1.080   .     S
N465   Zn479   2.007   .     S
N466   Zn480   2.006   .     S
O467   Zn479   2.001   .     S
O468   S478    1.503   .     D
O469   S478    1.683   .     S
O470   Zn480   2.001   .     S
O471   Zn479   1.960   .     S
O472   Zn480   1.909   .     S
O473   Zn479   2.001   .     S
O474   Zn480   2.001   .     S
O475   Zn479   1.909   .     S
O476   Zn480   1.960   .     S
O477   S478    1.503   .     D
C481   O530    1.282   .     A
C481   C489    1.420   .     S
C481   O527    1.282   .     A
C482   C502    1.414   .     A
C482   C484    1.460   .     S
C482   C499    1.402   .     A
C483   C489    1.397   .     A
C483   H515    1.084   .     S
C483   C125    1.369   1_565 S
C484   O532    1.291   .     A
C484   O531    1.291   .     A
C485   H517    1.084   .     S
C485   C486    1.397   .     A
C486   C487    1.397   .     A
C486   C495    1.420   .     S
C487   H518    1.084   .     S
C488   H519    1.084   .     S
C488   C489    1.397   .     A
C488   C127    1.370   1_565 S
C490   H520    1.082   .     S
C490   N526    1.366   .     A
C490   C371    1.415   1_655 S
C491   H521    1.082   .     S
C491   N525    1.367   .     A
C492   C502    1.401   .     A
C492   C1041   1.420   .     S
C492   C1043   1.413   .     S
C493   N525    1.366   .     A
C493   H522    1.082   .     S
C494   H523    1.082   .     S
C494   N526    1.366   .     A
C494   C373    1.415   1_655 S
C495   O533    1.282   .     A
C495   O534    1.282   .     A
C496   O536    1.290   .     A
C496   O535    1.291   .     A
C496   C498    1.453   .     S
C497   C508    1.394   .     A
C497   C1044   1.414   1_554 S
C497   H1064   1.080   1_554 S
C498   C508    1.396   .     A
C498   C507    1.385   .     A
C499   C500    1.388   .     A
C499   H511    1.083   .     S
C500   C1041   1.392   .     S
C500   H1053   1.083   .     S
C501   H512    1.079   .     S
C501   C1032   1.420   1_554 S
C501   C1040   1.392   1_554 S
C502   C506    1.412   .     A
C503   C507    1.389   .     A
C503   C1032   1.413   1_554 S
C503   C1044   1.426   1_554 S
C504   C505    1.411   .     A
C504   C1037   1.414   .     S
C504   C1043   1.426   .     S
C505   C506    1.395   .     A
C505   S538    1.776   .     S
C506   H514    1.080   .     S
C507   H510    1.079   .     S
C508   H509    1.083   .     S
H513   C1040   1.083   1_554 S
H516   O529    0.991   .     S
H524   C1037   1.080   .     S
N525   Zn539   2.007   .     S
N526   Zn540   2.006   .     S
O527   Zn539   2.001   .     S
O528   S538    1.503   .     D
O529   S538    1.683   .     S
O530   Zn540   2.001   .     S
O531   Zn539   1.960   .     S
O532   Zn540   1.909   .     S
O533   Zn539   2.001   .     S
O534   Zn540   2.001   .     S
O535   Zn539   1.909   .     S
O536   Zn540   1.960   .     S
O537   S538    1.503   .     D
C541   O590    1.282   .     A
C541   C549    1.420   .     S
C541   O587    1.282   .     A
C542   C562    1.414   .     A
C542   C544    1.460   .     S
C542   C559    1.402   .     A
C543   C549    1.397   .     A
C543   H575    1.084   .     S
C543   C725    1.369   .     S
C544   O592    1.291   .     A
C544   O591    1.291   .     A
C545   H577    1.084   .     S
C545   C546    1.397   .     A
C545   C903    1.369   1_545 S
C546   C547    1.397   .     A
C546   C555    1.420   .     S
C547   H578    1.084   .     S
C547   C908    1.370   1_545 S
C548   H579    1.084   .     S
C548   C549    1.397   .     A
C548   C727    1.370   .     S
C550   H580    1.082   .     S
C550   N586    1.366   .     A
C550   C611    1.415   .     S
C551   H581    1.082   .     S
C551   N585    1.367   .     A
C551   C670    1.415   1_455 S
C552   C562    1.401   .     A
C552   C21     1.420   1_556 S
C552   C23     1.413   1_556 S
C553   N585    1.366   .     A
C553   H582    1.082   .     S
C553   C674    1.415   1_455 S
C554   H583    1.082   .     S
C554   N586    1.366   .     A
C554   C613    1.415   .     S
C555   O593    1.282   .     A
C555   O594    1.282   .     A
C556   O596    1.290   .     A
C556   O595    1.291   .     A
C556   C558    1.453   .     S
C557   C568    1.394   .     A
C558   C568    1.396   .     A
C558   C567    1.385   .     A
C559   C560    1.388   .     A
C559   H571    1.083   .     S
C560   C21     1.392   1_556 S
C560   H33     1.083   1_556 S
C561   H572    1.079   .     S
C562   C566    1.412   .     A
C563   C567    1.389   .     A
C564   C565    1.411   .     A
C564   C17     1.414   1_556 S
C564   C23     1.426   1_556 S
C565   C566    1.395   .     A
C565   S598    1.776   .     S
C566   H574    1.080   .     S
C567   H570    1.079   .     S
C568   H569    1.083   .     S
H576   O589    0.991   .     S
H584   C17     1.080   1_556 S
N585   Zn599   2.007   .     S
N586   Zn600   2.006   .     S
O587   Zn599   2.001   .     S
O588   S598    1.503   .     D
O589   S598    1.683   .     S
O590   Zn600   2.001   .     S
O591   Zn599   1.960   .     S
O592   Zn600   1.909   .     S
O593   Zn599   2.001   .     S
O594   Zn600   2.001   .     S
O595   Zn599   1.909   .     S
O596   Zn600   1.960   .     S
O597   S598    1.503   .     D
C601   O650    1.282   .     A
C601   C609    1.420   .     S
C601   O647    1.282   .     A
C602   C622    1.414   .     A
C602   C604    1.460   .     S
C602   C619    1.402   .     A
C603   C609    1.397   .     A
C603   H635    1.084   .     S
C603   C785    1.369   .     S
C604   O652    1.291   .     A
C604   O651    1.291   .     A
C605   H637    1.084   .     S
C605   C606    1.397   .     A
C605   C963    1.369   1_545 S
C606   C607    1.397   .     A
C606   C615    1.420   .     S
C607   H638    1.084   .     S
C607   C968    1.370   1_545 S
C608   H639    1.084   .     S
C608   C609    1.397   .     A
C608   C787    1.370   .     S
C610   H640    1.082   .     S
C610   N646    1.366   .     A
C610   C671    1.415   .     S
C611   H641    1.082   .     S
C611   N645    1.367   .     A
C612   C622    1.401   .     A
C612   C81     1.420   1_556 S
C612   C83     1.413   1_556 S
C613   N645    1.366   .     A
C613   H642    1.082   .     S
C614   H643    1.082   .     S
C614   N646    1.366   .     A
C614   C673    1.415   .     S
C615   O653    1.282   .     A
C615   O654    1.282   .     A
C616   O656    1.290   .     A
C616   O655    1.291   .     A
C616   C618    1.453   .     S
C617   C628    1.394   .     A
C618   C628    1.396   .     A
C618   C627    1.385   .     A
C619   C620    1.388   .     A
C619   H631    1.083   .     S
C620   C81     1.392   1_556 S
C620   H93     1.083   1_556 S
C621   H632    1.079   .     S
C622   C626    1.412   .     A
C623   C627    1.389   .     A
C624   C625    1.411   .     A
C624   C77     1.414   1_556 S
C624   C83     1.426   1_556 S
C625   C626    1.395   .     A
C625   S658    1.776   .     S
C626   H634    1.080   .     S
C627   H630    1.079   .     S
C628   H629    1.083   .     S
H636   O649    0.991   .     S
H644   C77     1.080   1_556 S
N645   Zn659   2.007   .     S
N646   Zn660   2.006   .     S
O647   Zn659   2.001   .     S
O648   S658    1.503   .     D
O649   S658    1.683   .     S
O650   Zn660   2.001   .     S
O651   Zn659   1.960   .     S
O652   Zn660   1.909   .     S
O653   Zn659   2.001   .     S
O654   Zn660   2.001   .     S
O655   Zn659   1.909   .     S
O656   Zn660   1.960   .     S
O657   S658    1.503   .     D
C661   O710    1.282   .     A
C661   C669    1.420   .     S
C661   O707    1.282   .     A
C662   C682    1.414   .     A
C662   C664    1.460   .     S
C662   C679    1.402   .     A
C663   C669    1.397   .     A
C663   H695    1.084   .     S
C663   C845    1.369   .     S
C664   O712    1.291   .     A
C664   O711    1.291   .     A
C665   H697    1.084   .     S
C665   C666    1.397   .     A
C665   C1023   1.369   1_545 S
C666   C667    1.397   .     A
C666   C675    1.420   .     S
C667   H698    1.084   .     S
C667   C1028   1.370   1_545 S
C668   H699    1.084   .     S
C668   C669    1.397   .     A
C668   C847    1.370   .     S
C670   H700    1.082   .     S
C670   N706    1.366   .     A
C670   C551    1.415   1_655 S
C671   H701    1.082   .     S
C671   N705    1.367   .     A
C672   C682    1.401   .     A
C672   C141    1.420   1_556 S
C672   C143    1.413   1_556 S
C673   N705    1.366   .     A
C673   H702    1.082   .     S
C674   H703    1.082   .     S
C674   N706    1.366   .     A
C674   C553    1.415   1_655 S
C675   O713    1.282   .     A
C675   O714    1.282   .     A
C676   O716    1.290   .     A
C676   O715    1.291   .     A
C676   C678    1.453   .     S
C677   C688    1.394   .     A
C678   C688    1.396   .     A
C678   C687    1.385   .     A
C679   C680    1.388   .     A
C679   H691    1.083   .     S
C680   C141    1.392   1_556 S
C680   H153    1.083   1_556 S
C681   H692    1.079   .     S
C682   C686    1.412   .     A
C683   C687    1.389   .     A
C684   C685    1.411   .     A
C684   C137    1.414   1_556 S
C684   C143    1.426   1_556 S
C685   C686    1.395   .     A
C685   S718    1.776   .     S
C686   H694    1.080   .     S
C687   H690    1.079   .     S
C688   H689    1.083   .     S
H696   O709    0.991   .     S
H704   C137    1.080   1_556 S
N705   Zn719   2.007   .     S
N706   Zn720   2.006   .     S
O707   Zn719   2.001   .     S
O708   S718    1.503   .     D
O709   S718    1.683   .     S
O710   Zn720   2.001   .     S
O711   Zn719   1.960   .     S
O712   Zn720   1.909   .     S
O713   Zn719   2.001   .     S
O714   Zn720   2.001   .     S
O715   Zn719   1.909   .     S
O716   Zn720   1.960   .     S
O717   S718    1.503   .     D
C721   O770    1.282   .     A
C721   C729    1.420   .     S
C721   O767    1.282   .     A
C722   C742    1.414   .     A
C722   C724    1.460   .     S
C722   C739    1.402   .     A
C723   C729    1.397   .     A
C723   H755    1.084   .     S
C723   C905    1.369   .     S
C724   O772    1.291   .     A
C724   O771    1.291   .     A
C725   H757    1.084   .     S
C725   C726    1.397   .     A
C726   C727    1.397   .     A
C726   C735    1.420   .     S
C727   H758    1.084   .     S
C728   H759    1.084   .     S
C728   C729    1.397   .     A
C728   C907    1.370   .     S
C730   H760    1.082   .     S
C730   N766    1.366   .     A
C730   C791    1.415   .     S
C731   H761    1.082   .     S
C731   N765    1.367   .     A
C731   C850    1.415   1_455 S
C732   C742    1.401   .     A
C732   C201    1.420   1_556 S
C732   C203    1.413   1_556 S
C733   N765    1.366   .     A
C733   H762    1.082   .     S
C733   C854    1.415   1_455 S
C734   H763    1.082   .     S
C734   N766    1.366   .     A
C734   C793    1.415   .     S
C735   O773    1.282   .     A
C735   O774    1.282   .     A
C736   O776    1.290   .     A
C736   O775    1.291   .     A
C736   C738    1.453   .     S
C737   C748    1.394   .     A
C738   C748    1.396   .     A
C738   C747    1.385   .     A
C739   C740    1.388   .     A
C739   H751    1.083   .     S
C740   C201    1.392   1_556 S
C740   H213    1.083   1_556 S
C741   H752    1.079   .     S
C742   C746    1.412   .     A
C743   C747    1.389   .     A
C744   C745    1.411   .     A
C744   C197    1.414   1_556 S
C744   C203    1.426   1_556 S
C745   C746    1.395   .     A
C745   S778    1.776   .     S
C746   H754    1.080   .     S
C747   H750    1.079   .     S
C748   H749    1.083   .     S
H756   O769    0.991   .     S
H764   C197    1.080   1_556 S
N765   Zn779   2.007   .     S
N766   Zn780   2.006   .     S
O767   Zn779   2.001   .     S
O768   S778    1.503   .     D
O769   S778    1.683   .     S
O770   Zn780   2.001   .     S
O771   Zn779   1.960   .     S
O772   Zn780   1.909   .     S
O773   Zn779   2.001   .     S
O774   Zn780   2.001   .     S
O775   Zn779   1.909   .     S
O776   Zn780   1.960   .     S
O777   S778    1.503   .     D
C781   O830    1.282   .     A
C781   C789    1.420   .     S
C781   O827    1.282   .     A
C782   C802    1.414   .     A
C782   C784    1.460   .     S
C782   C799    1.402   .     A
C783   C789    1.397   .     A
C783   H815    1.084   .     S
C783   C965    1.369   .     S
C784   O832    1.291   .     A
C784   O831    1.291   .     A
C785   H817    1.084   .     S
C785   C786    1.397   .     A
C786   C787    1.397   .     A
C786   C795    1.420   .     S
C787   H818    1.084   .     S
C788   H819    1.084   .     S
C788   C789    1.397   .     A
C788   C967    1.370   .     S
C790   H820    1.082   .     S
C790   N826    1.366   .     A
C790   C851    1.415   .     S
C791   H821    1.082   .     S
C791   N825    1.367   .     A
C792   C802    1.401   .     A
C792   C261    1.420   1_556 S
C792   C263    1.413   1_556 S
C793   N825    1.366   .     A
C793   H822    1.082   .     S
C794   H823    1.082   .     S
C794   N826    1.366   .     A
C794   C853    1.415   .     S
C795   O833    1.282   .     A
C795   O834    1.282   .     A
C796   O836    1.290   .     A
C796   O835    1.291   .     A
C796   C798    1.453   .     S
C797   C808    1.394   .     A
C798   C808    1.396   .     A
C798   C807    1.385   .     A
C799   C800    1.388   .     A
C799   H811    1.083   .     S
C800   C261    1.392   1_556 S
C800   H273    1.083   1_556 S
C801   H812    1.079   .     S
C802   C806    1.412   .     A
C803   C807    1.389   .     A
C804   C805    1.411   .     A
C804   C257    1.414   1_556 S
C804   C263    1.426   1_556 S
C805   C806    1.395   .     A
C805   S838    1.776   .     S
C806   H814    1.080   .     S
C807   H810    1.079   .     S
C808   H809    1.083   .     S
H816   O829    0.991   .     S
H824   C257    1.080   1_556 S
N825   Zn839   2.007   .     S
N826   Zn840   2.006   .     S
O827   Zn839   2.001   .     S
O828   S838    1.503   .     D
O829   S838    1.683   .     S
O830   Zn840   2.001   .     S
O831   Zn839   1.960   .     S
O832   Zn840   1.909   .     S
O833   Zn839   2.001   .     S
O834   Zn840   2.001   .     S
O835   Zn839   1.909   .     S
O836   Zn840   1.960   .     S
O837   S838    1.503   .     D
C841   O890    1.282   .     A
C841   C849    1.420   .     S
C841   O887    1.282   .     A
C842   C862    1.414   .     A
C842   C844    1.460   .     S
C842   C859    1.402   .     A
C843   C849    1.397   .     A
C843   H875    1.084   .     S
C843   C1025   1.369   .     S
C844   O892    1.291   .     A
C844   O891    1.291   .     A
C845   H877    1.084   .     S
C845   C846    1.397   .     A
C846   C847    1.397   .     A
C846   C855    1.420   .     S
C847   H878    1.084   .     S
C848   H879    1.084   .     S
C848   C849    1.397   .     A
C848   C1027   1.370   .     S
C850   H880    1.082   .     S
C850   N886    1.366   .     A
C850   C731    1.415   1_655 S
C851   H881    1.082   .     S
C851   N885    1.367   .     A
C852   C862    1.401   .     A
C852   C321    1.420   1_556 S
C852   C323    1.413   1_556 S
C853   N885    1.366   .     A
C853   H882    1.082   .     S
C854   H883    1.082   .     S
C854   N886    1.366   .     A
C854   C733    1.415   1_655 S
C855   O893    1.282   .     A
C855   O894    1.282   .     A
C856   O896    1.290   .     A
C856   O895    1.291   .     A
C856   C858    1.453   .     S
C857   C868    1.394   .     A
C858   C868    1.396   .     A
C858   C867    1.385   .     A
C859   C860    1.388   .     A
C859   H871    1.083   .     S
C860   C321    1.392   1_556 S
C860   H333    1.083   1_556 S
C861   H872    1.079   .     S
C862   C866    1.412   .     A
C863   C867    1.389   .     A
C864   C865    1.411   .     A
C864   C317    1.414   1_556 S
C864   C323    1.426   1_556 S
C865   C866    1.395   .     A
C865   S898    1.776   .     S
C866   H874    1.080   .     S
C867   H870    1.079   .     S
C868   H869    1.083   .     S
H876   O889    0.991   .     S
H884   C317    1.080   1_556 S
N885   Zn899   2.007   .     S
N886   Zn900   2.006   .     S
O887   Zn899   2.001   .     S
O888   S898    1.503   .     D
O889   S898    1.683   .     S
O890   Zn900   2.001   .     S
O891   Zn899   1.960   .     S
O892   Zn900   1.909   .     S
O893   Zn899   2.001   .     S
O894   Zn900   2.001   .     S
O895   Zn899   1.909   .     S
O896   Zn900   1.960   .     S
O897   S898    1.503   .     D
C901   O950    1.282   .     A
C901   C909    1.420   .     S
C901   O947    1.282   .     A
C902   C922    1.414   .     A
C902   C904    1.460   .     S
C902   C919    1.402   .     A
C903   C909    1.397   .     A
C903   H935    1.084   .     S
C903   C545    1.369   1_565 S
C904   O952    1.291   .     A
C904   O951    1.291   .     A
C905   H937    1.084   .     S
C905   C906    1.397   .     A
C906   C907    1.397   .     A
C906   C915    1.420   .     S
C907   H938    1.084   .     S
C908   H939    1.084   .     S
C908   C909    1.397   .     A
C908   C547    1.370   1_565 S
C910   H940    1.082   .     S
C910   N946    1.366   .     A
C910   C971    1.415   .     S
C911   H941    1.082   .     S
C911   N945    1.367   .     A
C911   C1030   1.415   1_455 S
C912   C922    1.401   .     A
C912   C381    1.420   1_556 S
C912   C383    1.413   1_556 S
C913   N945    1.366   .     A
C913   H942    1.082   .     S
C913   C1034   1.415   1_455 S
C914   H943    1.082   .     S
C914   N946    1.366   .     A
C914   C973    1.415   .     S
C915   O953    1.282   .     A
C915   O954    1.282   .     A
C916   O956    1.290   .     A
C916   O955    1.291   .     A
C916   C918    1.453   .     S
C917   C928    1.394   .     A
C918   C928    1.396   .     A
C918   C927    1.385   .     A
C919   C920    1.388   .     A
C919   H931    1.083   .     S
C920   C381    1.392   1_556 S
C920   H393    1.083   1_556 S
C921   H932    1.079   .     S
C922   C926    1.412   .     A
C923   C927    1.389   .     A
C924   C925    1.411   .     A
C924   C377    1.414   1_556 S
C924   C383    1.426   1_556 S
C925   C926    1.395   .     A
C925   S958    1.776   .     S
C926   H934    1.080   .     S
C927   H930    1.079   .     S
C928   H929    1.083   .     S
H936   O949    0.991   .     S
H944   C377    1.080   1_556 S
N945   Zn959   2.007   .     S
N946   Zn960   2.006   .     S
O947   Zn959   2.001   .     S
O948   S958    1.503   .     D
O949   S958    1.683   .     S
O950   Zn960   2.001   .     S
O951   Zn959   1.960   .     S
O952   Zn960   1.909   .     S
O953   Zn959   2.001   .     S
O954   Zn960   2.001   .     S
O955   Zn959   1.909   .     S
O956   Zn960   1.960   .     S
O957   S958    1.503   .     D
C961   O1010   1.282   .     A
C961   C969    1.420   .     S
C961   O1007   1.282   .     A
C962   C982    1.414   .     A
C962   C964    1.460   .     S
C962   C979    1.402   .     A
C963   C969    1.397   .     A
C963   H995    1.084   .     S
C963   C605    1.369   1_565 S
C964   O1012   1.291   .     A
C964   O1011   1.291   .     A
C965   H997    1.084   .     S
C965   C966    1.397   .     A
C966   C967    1.397   .     A
C966   C975    1.420   .     S
C967   H998    1.084   .     S
C968   H999    1.084   .     S
C968   C969    1.397   .     A
C968   C607    1.370   1_565 S
C970   H1000   1.082   .     S
C970   N1006   1.366   .     A
C970   C1031   1.415   .     S
C971   H1001   1.082   .     S
C971   N1005   1.367   .     A
C972   C982    1.401   .     A
C972   C441    1.420   1_556 S
C972   C443    1.413   1_556 S
C973   N1005   1.366   .     A
C973   H1002   1.082   .     S
C974   H1003   1.082   .     S
C974   N1006   1.366   .     A
C974   C1033   1.415   .     S
C975   O1013   1.282   .     A
C975   O1014   1.282   .     A
C976   O1016   1.290   .     A
C976   O1015   1.291   .     A
C976   C978    1.453   .     S
C977   C988    1.394   .     A
C978   C988    1.396   .     A
C978   C987    1.385   .     A
C979   C980    1.388   .     A
C979   H991    1.083   .     S
C980   C441    1.392   1_556 S
C980   H453    1.083   1_556 S
C981   H992    1.079   .     S
C982   C986    1.412   .     A
C983   C987    1.389   .     A
C984   C985    1.411   .     A
C984   C437    1.414   1_556 S
C984   C443    1.426   1_556 S
C985   C986    1.395   .     A
C985   S1018   1.776   .     S
C986   H994    1.080   .     S
C987   H990    1.079   .     S
C988   H989    1.083   .     S
H996   O1009   0.991   .     S
H1004  C437    1.080   1_556 S
N1005  Zn1019  2.007   .     S
N1006  Zn1020  2.006   .     S
O1007  Zn1019  2.001   .     S
O1008  S1018   1.503   .     D
O1009  S1018   1.683   .     S
O1010  Zn1020  2.001   .     S
O1011  Zn1019  1.960   .     S
O1012  Zn1020  1.909   .     S
O1013  Zn1019  2.001   .     S
O1014  Zn1020  2.001   .     S
O1015  Zn1019  1.909   .     S
O1016  Zn1020  1.960   .     S
O1017  S1018   1.503   .     D
C1021  O1070   1.282   .     A
C1021  C1029   1.420   .     S
C1021  O1067   1.282   .     A
C1022  C1042   1.414   .     A
C1022  C1024   1.460   .     S
C1022  C1039   1.402   .     A
C1023  C1029   1.397   .     A
C1023  H1055   1.084   .     S
C1023  C665    1.369   1_565 S
C1024  O1072   1.291   .     A
C1024  O1071   1.291   .     A
C1025  H1057   1.084   .     S
C1025  C1026   1.397   .     A
C1026  C1027   1.397   .     A
C1026  C1035   1.420   .     S
C1027  H1058   1.084   .     S
C1028  H1059   1.084   .     S
C1028  C1029   1.397   .     A
C1028  C667    1.370   1_565 S
C1030  H1060   1.082   .     S
C1030  N1066   1.366   .     A
C1030  C911    1.415   1_655 S
C1031  H1061   1.082   .     S
C1031  N1065   1.367   .     A
C1032  C1042   1.401   .     A
C1032  C501    1.420   1_556 S
C1032  C503    1.413   1_556 S
C1033  N1065   1.366   .     A
C1033  H1062   1.082   .     S
C1034  H1063   1.082   .     S
C1034  N1066   1.366   .     A
C1034  C913    1.415   1_655 S
C1035  O1073   1.282   .     A
C1035  O1074   1.282   .     A
C1036  O1076   1.290   .     A
C1036  O1075   1.291   .     A
C1036  C1038   1.453   .     S
C1037  C1048   1.394   .     A
C1038  C1048   1.396   .     A
C1038  C1047   1.385   .     A
C1039  C1040   1.388   .     A
C1039  H1051   1.083   .     S
C1040  C501    1.392   1_556 S
C1040  H513    1.083   1_556 S
C1041  H1052   1.079   .     S
C1042  C1046   1.412   .     A
C1043  C1047   1.389   .     A
C1044  C1045   1.411   .     A
C1044  C497    1.414   1_556 S
C1044  C503    1.426   1_556 S
C1045  C1046   1.395   .     A
C1045  S1078   1.776   .     S
C1046  H1054   1.080   .     S
C1047  H1050   1.079   .     S
C1048  H1049   1.083   .     S
H1056  O1069   0.991   .     S
H1064  C497    1.080   1_556 S
N1065  Zn1079  2.007   .     S
N1066  Zn1080  2.006   .     S
O1067  Zn1079  2.001   .     S
O1068  S1078   1.503   .     D
O1069  S1078   1.683   .     S
O1070  Zn1080  2.001   .     S
O1071  Zn1079  1.960   .     S
O1072  Zn1080  1.909   .     S
O1073  Zn1079  2.001   .     S
O1074  Zn1080  2.001   .     S
O1075  Zn1079  1.909   .     S
O1076  Zn1080  1.960   .     S
O1077  S1078   1.503   .     D
