data_str_m3_o2_o10_pcu_sym.157
_audit_creation_date              2020-01-03
_audit_creation_method            'Materials Studio'
_symmetry_space_group_name_H-M    'P1'
_symmetry_Int_Tables_number       1
_symmetry_cell_setting            triclinic
loop_
_symmetry_equiv_pos_as_xyz
  x,y,z
_cell_length_a                    25.7270
_cell_length_b                    29.5221
_cell_length_c                    28.3920
_cell_angle_alpha                 90.0696
_cell_angle_beta                  98.5196
_cell_angle_gamma                 90.5365
loop_
_atom_site_label
_atom_site_type_symbol
_atom_site_fract_x
_atom_site_fract_y
_atom_site_fract_z
_atom_site_U_iso_or_equiv
_atom_site_adp_type
_atom_site_occupancy
O1     O     0.16667   0.18453   0.28974   0.00000  Uiso   1.00
O2     O     0.16666   0.31546   0.21026   0.00000  Uiso   1.00
O3     O     0.16667   0.18453   0.21026   0.00000  Uiso   1.00
O4     O     0.16666   0.31547   0.28974   0.00000  Uiso   1.00
C5     C     0.16810   0.16357   0.25017   0.00000  Uiso   1.00
C6     C     0.16846   0.33650   0.25028   0.00000  Uiso   1.00
O7     O     0.09058   0.25000   0.28044   0.00000  Uiso   1.00
O8     O     0.24275   0.25000   0.21955   0.00000  Uiso   1.00
O9     O     0.09058   0.24999   0.20096   0.00000  Uiso   1.00
O10    O     0.24275   0.25000   0.29903   0.00000  Uiso   1.00
C11    C     0.06704   0.25007   0.23757   0.00000  Uiso   1.00
C12    C     0.26629   0.25055   0.26241   0.00000  Uiso   1.00
Zn13   Zn    0.16667   0.25000   0.30307   0.00000  Uiso   1.00
Zn14   Zn    0.16667   0.24999   0.19693   0.00000  Uiso   1.00
C15    C     0.01203   0.24952   0.23087   0.00000  Uiso   1.00
C16    C     0.32127   0.25236   0.26903   0.00000  Uiso   1.00
H17    H     0.32488   0.24599   0.19469   0.00000  Uiso   1.00
H18    H     0.00844   0.25622   0.30516   0.00000  Uiso   1.00
C19    C     0.17401   0.04354   0.28923   0.00000  Uiso   1.00
C20    C     0.17974   0.45625   0.21233   0.00000  Uiso   1.00
H21    H     0.15756   0.02240   0.31462   0.00000  Uiso   1.00
H22    H     0.16667   0.47679   0.18129   0.00000  Uiso   1.00
C23    C     0.16159   0.08894   0.28671   0.00000  Uiso   1.00
C24    C     0.16715   0.41066   0.21097   0.00000  Uiso   1.00
H25    H     0.13733   0.10283   0.31119   0.00000  Uiso   1.00
H26    H     0.14629   0.39610   0.17843   0.00000  Uiso   1.00
C27    C     0.17894   0.11575   0.25167   0.00000  Uiso   1.00
C28    C     0.17981   0.38454   0.25189   0.00000  Uiso   1.00
C29    C     0.21106   0.09777   0.22066   0.00000  Uiso   1.00
C30    C     0.20776   0.40353   0.29348   0.00000  Uiso   1.00
H31    H     0.22633   0.11948   0.19506   0.00000  Uiso   1.00
H32    H     0.21965   0.38248   0.32436   0.00000  Uiso   1.00
C33    C     0.22525   0.05234   0.22376   0.00000  Uiso   1.00
C34    C     0.22183   0.44925   0.29504   0.00000  Uiso   1.00
C35    C     0.20492   0.02493   0.25751   0.00000  Uiso   1.00
C36    C     0.20579   0.47590   0.25437   0.00000  Uiso   1.00
C37    C     0.12369   0.23131   0.04709   0.00000  Uiso   1.00
C38    C     0.18924   0.28621   0.45033   0.00000  Uiso   1.00
H39    H     0.08982   0.21659   0.02505   0.00000  Uiso   1.00
H40    H     0.20734   0.31486   0.47043   0.00000  Uiso   1.00
C41    C     0.12542   0.23097   0.09692   0.00000  Uiso   1.00
C42    C     0.18983   0.28490   0.40085   0.00000  Uiso   1.00
H43    H     0.09341   0.21558   0.11213   0.00000  Uiso   1.00
H44    H     0.20877   0.31205   0.38406   0.00000  Uiso   1.00
N45    N     0.16667   0.24999   0.12623   0.00000  Uiso   1.00
N46    N     0.16667   0.25001   0.37376   0.00000  Uiso   1.00
C47    C     0.20691   0.27024   0.10714   0.00000  Uiso   1.00
C48    C     0.14177   0.21584   0.39454   0.00000  Uiso   1.00
C49    C     0.20713   0.27011   0.05752   0.00000  Uiso   1.00
C50    C     0.14142   0.21560   0.44423   0.00000  Uiso   1.00
H51    H     0.24078   0.28420   0.04375   0.00000  Uiso   1.00
H52    H     0.12374   0.18708   0.46000   0.00000  Uiso   1.00
C53    C     0.16505   0.25100   0.02640   0.00000  Uiso   1.00
C54    C     0.16497   0.25111   0.47309   0.00000  Uiso   1.00
N55    N     0.25982   0.03456   0.19287   0.00000  Uiso   1.00
O56    O     0.29146   0.00151   0.20693   0.00000  Uiso   1.00
O57    O     0.26373   0.05428   0.15255   0.00000  Uiso   1.00
N58    N     0.25156   0.46813   0.33769   0.00000  Uiso   1.00
O59    O     0.28233   0.00307   0.33547   0.00000  Uiso   1.00
O60    O     0.25174   0.44805   0.37850   0.00000  Uiso   1.00
O61    O     0.24951   0.28825   0.13665   0.00000  Uiso   1.00
C62    C     0.24423   0.33572   0.14079   0.00000  Uiso   1.00
H63    H     0.25186   0.34426   0.17932   0.00000  Uiso   1.00
H64    H     0.20425   0.34877   0.12679   0.00000  Uiso   1.00
C65    C     0.28553   0.36018   0.11631   0.00000  Uiso   1.00
H66    H     0.32506   0.34636   0.12951   0.00000  Uiso   1.00
H67    H     0.27698   0.35453   0.07725   0.00000  Uiso   1.00
C68    C     0.28596   0.41100   0.12631   0.00000  Uiso   1.00
H69    H     0.24685   0.42567   0.11330   0.00000  Uiso   1.00
H70    H     0.31585   0.42797   0.10778   0.00000  Uiso   1.00
H71    H     0.29602   0.41746   0.16515   0.00000  Uiso   1.00
O72    O     0.12061   0.17949   0.36731   0.00000  Uiso   1.00
C73    C     0.06497   0.18036   0.36125   0.00000  Uiso   1.00
H74    H     0.05074   0.18185   0.32244   0.00000  Uiso   1.00
H75    H     0.04813   0.21006   0.37802   0.00000  Uiso   1.00
C76    C     0.04380   0.13656   0.38033   0.00000  Uiso   1.00
H77    H     0.06060   0.10697   0.36381   0.00000  Uiso   1.00
H78    H     0.05584   0.13485   0.41950   0.00000  Uiso   1.00
C79    C     0.31722   0.13398   0.36921   0.00000  Uiso   1.00
H80    H     0.29940   0.16299   0.38576   0.00000  Uiso   1.00
H81    H     0.30298   0.10200   0.38367   0.00000  Uiso   1.00
H82    H     0.30430   0.13447   0.33008   0.00000  Uiso   1.00
O83    O     0.50000   0.18453   0.28974   0.00000  Uiso   1.00
O84    O     0.50000   0.31546   0.21026   0.00000  Uiso   1.00
O85    O     0.50000   0.18453   0.21026   0.00000  Uiso   1.00
O86    O     0.50000   0.31547   0.28974   0.00000  Uiso   1.00
C87    C     0.50143   0.16357   0.25017   0.00000  Uiso   1.00
C88    C     0.50179   0.33650   0.25028   0.00000  Uiso   1.00
O89    O     0.42392   0.25000   0.28044   0.00000  Uiso   1.00
O90    O     0.57608   0.25000   0.21955   0.00000  Uiso   1.00
O91    O     0.42392   0.24999   0.20096   0.00000  Uiso   1.00
O92    O     0.57608   0.25000   0.29903   0.00000  Uiso   1.00
C93    C     0.40037   0.25007   0.23757   0.00000  Uiso   1.00
C94    C     0.59963   0.25055   0.26241   0.00000  Uiso   1.00
Zn95   Zn    0.50000   0.25000   0.30307   0.00000  Uiso   1.00
Zn96   Zn    0.50000   0.24999   0.19693   0.00000  Uiso   1.00
C97    C     0.34536   0.24952   0.23087   0.00000  Uiso   1.00
C98    C     0.65461   0.25236   0.26903   0.00000  Uiso   1.00
H99    H     0.65822   0.24599   0.19469   0.00000  Uiso   1.00
H100   H     0.34177   0.25622   0.30516   0.00000  Uiso   1.00
C101   C     0.50735   0.04354   0.28923   0.00000  Uiso   1.00
C102   C     0.51307   0.45625   0.21233   0.00000  Uiso   1.00
H103   H     0.49089   0.02240   0.31462   0.00000  Uiso   1.00
H104   H     0.50000   0.47679   0.18129   0.00000  Uiso   1.00
C105   C     0.49492   0.08894   0.28671   0.00000  Uiso   1.00
C106   C     0.50049   0.41066   0.21097   0.00000  Uiso   1.00
H107   H     0.47066   0.10283   0.31119   0.00000  Uiso   1.00
H108   H     0.47962   0.39610   0.17843   0.00000  Uiso   1.00
C109   C     0.51227   0.11575   0.25167   0.00000  Uiso   1.00
C110   C     0.51314   0.38454   0.25189   0.00000  Uiso   1.00
C111   C     0.54439   0.09777   0.22066   0.00000  Uiso   1.00
C112   C     0.54109   0.40353   0.29348   0.00000  Uiso   1.00
H113   H     0.55967   0.11948   0.19506   0.00000  Uiso   1.00
H114   H     0.55298   0.38248   0.32436   0.00000  Uiso   1.00
C115   C     0.55858   0.05234   0.22376   0.00000  Uiso   1.00
C116   C     0.55517   0.44925   0.29504   0.00000  Uiso   1.00
C117   C     0.53826   0.02493   0.25751   0.00000  Uiso   1.00
C118   C     0.53912   0.47590   0.25437   0.00000  Uiso   1.00
C119   C     0.45703   0.23131   0.04709   0.00000  Uiso   1.00
C120   C     0.52257   0.28621   0.45033   0.00000  Uiso   1.00
H121   H     0.42316   0.21659   0.02505   0.00000  Uiso   1.00
H122   H     0.54067   0.31486   0.47043   0.00000  Uiso   1.00
C123   C     0.45875   0.23097   0.09692   0.00000  Uiso   1.00
C124   C     0.52316   0.28490   0.40085   0.00000  Uiso   1.00
H125   H     0.42675   0.21558   0.11213   0.00000  Uiso   1.00
H126   H     0.54210   0.31205   0.38406   0.00000  Uiso   1.00
N127   N     0.50000   0.24999   0.12623   0.00000  Uiso   1.00
N128   N     0.50000   0.25001   0.37376   0.00000  Uiso   1.00
C129   C     0.54024   0.27024   0.10714   0.00000  Uiso   1.00
C130   C     0.47510   0.21584   0.39454   0.00000  Uiso   1.00
C131   C     0.54046   0.27011   0.05752   0.00000  Uiso   1.00
C132   C     0.47475   0.21560   0.44423   0.00000  Uiso   1.00
H133   H     0.57411   0.28420   0.04375   0.00000  Uiso   1.00
H134   H     0.45707   0.18708   0.46000   0.00000  Uiso   1.00
C135   C     0.49839   0.25100   0.02640   0.00000  Uiso   1.00
C136   C     0.49830   0.25111   0.47309   0.00000  Uiso   1.00
N137   N     0.59316   0.03456   0.19287   0.00000  Uiso   1.00
O138   O     0.62479   0.00151   0.20693   0.00000  Uiso   1.00
O139   O     0.59706   0.05428   0.15255   0.00000  Uiso   1.00
N140   N     0.58489   0.46813   0.33769   0.00000  Uiso   1.00
O141   O     0.61567   0.00307   0.33547   0.00000  Uiso   1.00
O142   O     0.58507   0.44805   0.37850   0.00000  Uiso   1.00
O143   O     0.58284   0.28825   0.13665   0.00000  Uiso   1.00
C144   C     0.57757   0.33572   0.14079   0.00000  Uiso   1.00
H145   H     0.58519   0.34426   0.17932   0.00000  Uiso   1.00
H146   H     0.53759   0.34877   0.12679   0.00000  Uiso   1.00
C147   C     0.61886   0.36018   0.11631   0.00000  Uiso   1.00
H148   H     0.65840   0.34636   0.12951   0.00000  Uiso   1.00
H149   H     0.61032   0.35453   0.07725   0.00000  Uiso   1.00
C150   C     0.61929   0.41100   0.12631   0.00000  Uiso   1.00
H151   H     0.58019   0.42567   0.11330   0.00000  Uiso   1.00
H152   H     0.64918   0.42797   0.10778   0.00000  Uiso   1.00
H153   H     0.62935   0.41746   0.16515   0.00000  Uiso   1.00
O154   O     0.45394   0.17949   0.36731   0.00000  Uiso   1.00
C155   C     0.39830   0.18036   0.36125   0.00000  Uiso   1.00
H156   H     0.38407   0.18185   0.32244   0.00000  Uiso   1.00
H157   H     0.38146   0.21006   0.37802   0.00000  Uiso   1.00
C158   C     0.37713   0.13656   0.38033   0.00000  Uiso   1.00
H159   H     0.39394   0.10697   0.36381   0.00000  Uiso   1.00
H160   H     0.38917   0.13485   0.41950   0.00000  Uiso   1.00
C161   C     0.65055   0.13398   0.36921   0.00000  Uiso   1.00
H162   H     0.63273   0.16299   0.38576   0.00000  Uiso   1.00
H163   H     0.63631   0.10200   0.38367   0.00000  Uiso   1.00
H164   H     0.63763   0.13447   0.33008   0.00000  Uiso   1.00
O165   O     0.83334   0.18453   0.28974   0.00000  Uiso   1.00
O166   O     0.83333   0.31546   0.21026   0.00000  Uiso   1.00
O167   O     0.83334   0.18453   0.21026   0.00000  Uiso   1.00
O168   O     0.83333   0.31547   0.28974   0.00000  Uiso   1.00
C169   C     0.83476   0.16357   0.25017   0.00000  Uiso   1.00
C170   C     0.83513   0.33650   0.25028   0.00000  Uiso   1.00
O171   O     0.75725   0.25000   0.28044   0.00000  Uiso   1.00
O172   O     0.90942   0.25000   0.21955   0.00000  Uiso   1.00
O173   O     0.75725   0.24999   0.20096   0.00000  Uiso   1.00
O174   O     0.90942   0.25000   0.29903   0.00000  Uiso   1.00
C175   C     0.73371   0.25007   0.23757   0.00000  Uiso   1.00
C176   C     0.93296   0.25055   0.26241   0.00000  Uiso   1.00
Zn177  Zn    0.83333   0.25000   0.30307   0.00000  Uiso   1.00
Zn178  Zn    0.83333   0.24999   0.19693   0.00000  Uiso   1.00
C179   C     0.67870   0.24952   0.23087   0.00000  Uiso   1.00
C180   C     0.98794   0.25236   0.26903   0.00000  Uiso   1.00
H181   H     0.99155   0.24599   0.19469   0.00000  Uiso   1.00
H182   H     0.67511   0.25622   0.30516   0.00000  Uiso   1.00
C183   C     0.84068   0.04354   0.28923   0.00000  Uiso   1.00
C184   C     0.84640   0.45625   0.21233   0.00000  Uiso   1.00
H185   H     0.82422   0.02240   0.31462   0.00000  Uiso   1.00
H186   H     0.83333   0.47679   0.18129   0.00000  Uiso   1.00
C187   C     0.82825   0.08894   0.28671   0.00000  Uiso   1.00
C188   C     0.83382   0.41066   0.21097   0.00000  Uiso   1.00
H189   H     0.80400   0.10283   0.31119   0.00000  Uiso   1.00
H190   H     0.81295   0.39610   0.17843   0.00000  Uiso   1.00
C191   C     0.84560   0.11575   0.25167   0.00000  Uiso   1.00
C192   C     0.84647   0.38454   0.25189   0.00000  Uiso   1.00
C193   C     0.87772   0.09777   0.22066   0.00000  Uiso   1.00
C194   C     0.87442   0.40353   0.29348   0.00000  Uiso   1.00
H195   H     0.89300   0.11948   0.19506   0.00000  Uiso   1.00
H196   H     0.88632   0.38248   0.32436   0.00000  Uiso   1.00
C197   C     0.89191   0.05234   0.22376   0.00000  Uiso   1.00
C198   C     0.88850   0.44925   0.29504   0.00000  Uiso   1.00
C199   C     0.87159   0.02493   0.25751   0.00000  Uiso   1.00
C200   C     0.87245   0.47590   0.25437   0.00000  Uiso   1.00
C201   C     0.79036   0.23131   0.04709   0.00000  Uiso   1.00
C202   C     0.85591   0.28621   0.45033   0.00000  Uiso   1.00
H203   H     0.75649   0.21659   0.02505   0.00000  Uiso   1.00
H204   H     0.87400   0.31486   0.47043   0.00000  Uiso   1.00
C205   C     0.79208   0.23097   0.09692   0.00000  Uiso   1.00
C206   C     0.85649   0.28490   0.40085   0.00000  Uiso   1.00
H207   H     0.76008   0.21558   0.11213   0.00000  Uiso   1.00
H208   H     0.87544   0.31205   0.38406   0.00000  Uiso   1.00
N209   N     0.83333   0.24999   0.12623   0.00000  Uiso   1.00
N210   N     0.83333   0.25001   0.37376   0.00000  Uiso   1.00
C211   C     0.87357   0.27024   0.10714   0.00000  Uiso   1.00
C212   C     0.80844   0.21584   0.39454   0.00000  Uiso   1.00
C213   C     0.87379   0.27011   0.05752   0.00000  Uiso   1.00
C214   C     0.80809   0.21560   0.44423   0.00000  Uiso   1.00
H215   H     0.90744   0.28420   0.04375   0.00000  Uiso   1.00
H216   H     0.79041   0.18708   0.46000   0.00000  Uiso   1.00
C217   C     0.83172   0.25100   0.02640   0.00000  Uiso   1.00
C218   C     0.83163   0.25111   0.47309   0.00000  Uiso   1.00
N219   N     0.92649   0.03456   0.19287   0.00000  Uiso   1.00
O220   O     0.95813   0.00151   0.20693   0.00000  Uiso   1.00
O221   O     0.93039   0.05428   0.15255   0.00000  Uiso   1.00
N222   N     0.91822   0.46813   0.33769   0.00000  Uiso   1.00
O223   O     0.94900   0.00307   0.33547   0.00000  Uiso   1.00
O224   O     0.91840   0.44805   0.37850   0.00000  Uiso   1.00
O225   O     0.91618   0.28825   0.13665   0.00000  Uiso   1.00
C226   C     0.91090   0.33572   0.14079   0.00000  Uiso   1.00
H227   H     0.91852   0.34426   0.17932   0.00000  Uiso   1.00
H228   H     0.87092   0.34877   0.12679   0.00000  Uiso   1.00
C229   C     0.95220   0.36018   0.11631   0.00000  Uiso   1.00
H230   H     0.99173   0.34636   0.12951   0.00000  Uiso   1.00
H231   H     0.94365   0.35453   0.07725   0.00000  Uiso   1.00
C232   C     0.95262   0.41100   0.12631   0.00000  Uiso   1.00
H233   H     0.91352   0.42567   0.11330   0.00000  Uiso   1.00
H234   H     0.98252   0.42797   0.10778   0.00000  Uiso   1.00
H235   H     0.96269   0.41746   0.16515   0.00000  Uiso   1.00
O236   O     0.78728   0.17949   0.36731   0.00000  Uiso   1.00
C237   C     0.73164   0.18036   0.36125   0.00000  Uiso   1.00
H238   H     0.71741   0.18185   0.32244   0.00000  Uiso   1.00
H239   H     0.71480   0.21006   0.37802   0.00000  Uiso   1.00
C240   C     0.71046   0.13656   0.38033   0.00000  Uiso   1.00
H241   H     0.72727   0.10697   0.36381   0.00000  Uiso   1.00
H242   H     0.72251   0.13485   0.41950   0.00000  Uiso   1.00
C243   C     0.98389   0.13398   0.36921   0.00000  Uiso   1.00
H244   H     0.96606   0.16299   0.38576   0.00000  Uiso   1.00
H245   H     0.96965   0.10200   0.38367   0.00000  Uiso   1.00
H246   H     0.97097   0.13447   0.33008   0.00000  Uiso   1.00
O247   O     0.16667   0.68453   0.28974   0.00000  Uiso   1.00
O248   O     0.16666   0.81546   0.21026   0.00000  Uiso   1.00
O249   O     0.16667   0.68453   0.21026   0.00000  Uiso   1.00
O250   O     0.16666   0.81547   0.28974   0.00000  Uiso   1.00
C251   C     0.16810   0.66357   0.25017   0.00000  Uiso   1.00
C252   C     0.16846   0.83650   0.25028   0.00000  Uiso   1.00
O253   O     0.09058   0.75000   0.28044   0.00000  Uiso   1.00
O254   O     0.24275   0.75000   0.21955   0.00000  Uiso   1.00
O255   O     0.09058   0.74999   0.20096   0.00000  Uiso   1.00
O256   O     0.24275   0.75000   0.29903   0.00000  Uiso   1.00
C257   C     0.06704   0.75007   0.23757   0.00000  Uiso   1.00
C258   C     0.26629   0.75055   0.26241   0.00000  Uiso   1.00
Zn259  Zn    0.16667   0.75000   0.30307   0.00000  Uiso   1.00
Zn260  Zn    0.16667   0.74999   0.19693   0.00000  Uiso   1.00
C261   C     0.01203   0.74952   0.23087   0.00000  Uiso   1.00
C262   C     0.32127   0.75236   0.26903   0.00000  Uiso   1.00
H263   H     0.32488   0.74599   0.19469   0.00000  Uiso   1.00
H264   H     0.00844   0.75622   0.30516   0.00000  Uiso   1.00
C265   C     0.17401   0.54354   0.28923   0.00000  Uiso   1.00
C266   C     0.17974   0.95625   0.21233   0.00000  Uiso   1.00
H267   H     0.15756   0.52240   0.31462   0.00000  Uiso   1.00
H268   H     0.16667   0.97679   0.18129   0.00000  Uiso   1.00
C269   C     0.16159   0.58894   0.28671   0.00000  Uiso   1.00
C270   C     0.16715   0.91066   0.21097   0.00000  Uiso   1.00
H271   H     0.13733   0.60283   0.31119   0.00000  Uiso   1.00
H272   H     0.14629   0.89610   0.17843   0.00000  Uiso   1.00
C273   C     0.17894   0.61575   0.25167   0.00000  Uiso   1.00
C274   C     0.17981   0.88454   0.25189   0.00000  Uiso   1.00
C275   C     0.21106   0.59777   0.22066   0.00000  Uiso   1.00
C276   C     0.20776   0.90353   0.29348   0.00000  Uiso   1.00
H277   H     0.22633   0.61948   0.19506   0.00000  Uiso   1.00
H278   H     0.21965   0.88248   0.32436   0.00000  Uiso   1.00
C279   C     0.22525   0.55234   0.22376   0.00000  Uiso   1.00
C280   C     0.22183   0.94925   0.29504   0.00000  Uiso   1.00
C281   C     0.20492   0.52493   0.25751   0.00000  Uiso   1.00
C282   C     0.20579   0.97590   0.25437   0.00000  Uiso   1.00
C283   C     0.12369   0.73131   0.04709   0.00000  Uiso   1.00
C284   C     0.18924   0.78621   0.45033   0.00000  Uiso   1.00
H285   H     0.08982   0.71659   0.02505   0.00000  Uiso   1.00
H286   H     0.20734   0.81486   0.47043   0.00000  Uiso   1.00
C287   C     0.12542   0.73097   0.09692   0.00000  Uiso   1.00
C288   C     0.18983   0.78490   0.40085   0.00000  Uiso   1.00
H289   H     0.09341   0.71558   0.11213   0.00000  Uiso   1.00
H290   H     0.20877   0.81205   0.38406   0.00000  Uiso   1.00
N291   N     0.16667   0.74999   0.12623   0.00000  Uiso   1.00
N292   N     0.16667   0.75001   0.37376   0.00000  Uiso   1.00
C293   C     0.20691   0.77024   0.10714   0.00000  Uiso   1.00
C294   C     0.14177   0.71584   0.39454   0.00000  Uiso   1.00
C295   C     0.20713   0.77011   0.05752   0.00000  Uiso   1.00
C296   C     0.14142   0.71560   0.44423   0.00000  Uiso   1.00
H297   H     0.24078   0.78420   0.04375   0.00000  Uiso   1.00
H298   H     0.12374   0.68708   0.46000   0.00000  Uiso   1.00
C299   C     0.16505   0.75100   0.02640   0.00000  Uiso   1.00
C300   C     0.16497   0.75111   0.47309   0.00000  Uiso   1.00
N301   N     0.25982   0.53456   0.19287   0.00000  Uiso   1.00
O302   O     0.29146   0.50151   0.20693   0.00000  Uiso   1.00
O303   O     0.26373   0.55428   0.15255   0.00000  Uiso   1.00
N304   N     0.25156   0.96813   0.33769   0.00000  Uiso   1.00
O305   O     0.28233   0.50307   0.33547   0.00000  Uiso   1.00
O306   O     0.25174   0.94805   0.37850   0.00000  Uiso   1.00
O307   O     0.24951   0.78825   0.13665   0.00000  Uiso   1.00
C308   C     0.24423   0.83572   0.14079   0.00000  Uiso   1.00
H309   H     0.25186   0.84426   0.17932   0.00000  Uiso   1.00
H310   H     0.20425   0.84877   0.12679   0.00000  Uiso   1.00
C311   C     0.28553   0.86018   0.11631   0.00000  Uiso   1.00
H312   H     0.32506   0.84636   0.12951   0.00000  Uiso   1.00
H313   H     0.27698   0.85453   0.07725   0.00000  Uiso   1.00
C314   C     0.28596   0.91100   0.12631   0.00000  Uiso   1.00
H315   H     0.24685   0.92567   0.11330   0.00000  Uiso   1.00
H316   H     0.31585   0.92797   0.10778   0.00000  Uiso   1.00
H317   H     0.29602   0.91746   0.16515   0.00000  Uiso   1.00
O318   O     0.12061   0.67949   0.36731   0.00000  Uiso   1.00
C319   C     0.06497   0.68036   0.36125   0.00000  Uiso   1.00
H320   H     0.05074   0.68185   0.32244   0.00000  Uiso   1.00
H321   H     0.04813   0.71006   0.37802   0.00000  Uiso   1.00
C322   C     0.04380   0.63656   0.38033   0.00000  Uiso   1.00
H323   H     0.06060   0.60697   0.36381   0.00000  Uiso   1.00
H324   H     0.05584   0.63485   0.41950   0.00000  Uiso   1.00
C325   C     0.31722   0.63398   0.36921   0.00000  Uiso   1.00
H326   H     0.29940   0.66299   0.38576   0.00000  Uiso   1.00
H327   H     0.30298   0.60200   0.38367   0.00000  Uiso   1.00
H328   H     0.30430   0.63447   0.33008   0.00000  Uiso   1.00
O329   O     0.50000   0.68453   0.28974   0.00000  Uiso   1.00
O330   O     0.50000   0.81546   0.21026   0.00000  Uiso   1.00
O331   O     0.50000   0.68453   0.21026   0.00000  Uiso   1.00
O332   O     0.50000   0.81547   0.28974   0.00000  Uiso   1.00
C333   C     0.50143   0.66357   0.25017   0.00000  Uiso   1.00
C334   C     0.50179   0.83650   0.25028   0.00000  Uiso   1.00
O335   O     0.42392   0.75000   0.28044   0.00000  Uiso   1.00
O336   O     0.57608   0.75000   0.21955   0.00000  Uiso   1.00
O337   O     0.42392   0.74999   0.20096   0.00000  Uiso   1.00
O338   O     0.57608   0.75000   0.29903   0.00000  Uiso   1.00
C339   C     0.40037   0.75007   0.23757   0.00000  Uiso   1.00
C340   C     0.59963   0.75055   0.26241   0.00000  Uiso   1.00
Zn341  Zn    0.50000   0.75000   0.30307   0.00000  Uiso   1.00
Zn342  Zn    0.50000   0.74999   0.19693   0.00000  Uiso   1.00
C343   C     0.34536   0.74952   0.23087   0.00000  Uiso   1.00
C344   C     0.65461   0.75236   0.26903   0.00000  Uiso   1.00
H345   H     0.65822   0.74599   0.19469   0.00000  Uiso   1.00
H346   H     0.34177   0.75622   0.30516   0.00000  Uiso   1.00
C347   C     0.50735   0.54354   0.28923   0.00000  Uiso   1.00
C348   C     0.51307   0.95625   0.21233   0.00000  Uiso   1.00
H349   H     0.49089   0.52240   0.31462   0.00000  Uiso   1.00
H350   H     0.50000   0.97679   0.18129   0.00000  Uiso   1.00
C351   C     0.49492   0.58894   0.28671   0.00000  Uiso   1.00
C352   C     0.50049   0.91066   0.21097   0.00000  Uiso   1.00
H353   H     0.47066   0.60283   0.31119   0.00000  Uiso   1.00
H354   H     0.47962   0.89610   0.17843   0.00000  Uiso   1.00
C355   C     0.51227   0.61575   0.25167   0.00000  Uiso   1.00
C356   C     0.51314   0.88454   0.25189   0.00000  Uiso   1.00
C357   C     0.54439   0.59777   0.22066   0.00000  Uiso   1.00
C358   C     0.54109   0.90353   0.29348   0.00000  Uiso   1.00
H359   H     0.55967   0.61948   0.19506   0.00000  Uiso   1.00
H360   H     0.55298   0.88248   0.32436   0.00000  Uiso   1.00
C361   C     0.55858   0.55234   0.22376   0.00000  Uiso   1.00
C362   C     0.55517   0.94925   0.29504   0.00000  Uiso   1.00
C363   C     0.53826   0.52493   0.25751   0.00000  Uiso   1.00
C364   C     0.53912   0.97590   0.25437   0.00000  Uiso   1.00
C365   C     0.45703   0.73131   0.04709   0.00000  Uiso   1.00
C366   C     0.52257   0.78621   0.45033   0.00000  Uiso   1.00
H367   H     0.42316   0.71659   0.02505   0.00000  Uiso   1.00
H368   H     0.54067   0.81486   0.47043   0.00000  Uiso   1.00
C369   C     0.45875   0.73097   0.09692   0.00000  Uiso   1.00
C370   C     0.52316   0.78490   0.40085   0.00000  Uiso   1.00
H371   H     0.42675   0.71558   0.11213   0.00000  Uiso   1.00
H372   H     0.54210   0.81205   0.38406   0.00000  Uiso   1.00
N373   N     0.50000   0.74999   0.12623   0.00000  Uiso   1.00
N374   N     0.50000   0.75001   0.37376   0.00000  Uiso   1.00
C375   C     0.54024   0.77024   0.10714   0.00000  Uiso   1.00
C376   C     0.47510   0.71584   0.39454   0.00000  Uiso   1.00
C377   C     0.54046   0.77011   0.05752   0.00000  Uiso   1.00
C378   C     0.47475   0.71560   0.44423   0.00000  Uiso   1.00
H379   H     0.57411   0.78420   0.04375   0.00000  Uiso   1.00
H380   H     0.45707   0.68708   0.46000   0.00000  Uiso   1.00
C381   C     0.49839   0.75100   0.02640   0.00000  Uiso   1.00
C382   C     0.49830   0.75111   0.47309   0.00000  Uiso   1.00
N383   N     0.59316   0.53456   0.19287   0.00000  Uiso   1.00
O384   O     0.62479   0.50151   0.20693   0.00000  Uiso   1.00
O385   O     0.59706   0.55428   0.15255   0.00000  Uiso   1.00
N386   N     0.58489   0.96813   0.33769   0.00000  Uiso   1.00
O387   O     0.61567   0.50307   0.33547   0.00000  Uiso   1.00
O388   O     0.58507   0.94805   0.37850   0.00000  Uiso   1.00
O389   O     0.58284   0.78825   0.13665   0.00000  Uiso   1.00
C390   C     0.57757   0.83572   0.14079   0.00000  Uiso   1.00
H391   H     0.58519   0.84426   0.17932   0.00000  Uiso   1.00
H392   H     0.53759   0.84877   0.12679   0.00000  Uiso   1.00
C393   C     0.61886   0.86018   0.11631   0.00000  Uiso   1.00
H394   H     0.65840   0.84636   0.12951   0.00000  Uiso   1.00
H395   H     0.61032   0.85453   0.07725   0.00000  Uiso   1.00
C396   C     0.61929   0.91100   0.12631   0.00000  Uiso   1.00
H397   H     0.58019   0.92567   0.11330   0.00000  Uiso   1.00
H398   H     0.64918   0.92797   0.10778   0.00000  Uiso   1.00
H399   H     0.62935   0.91746   0.16515   0.00000  Uiso   1.00
O400   O     0.45394   0.67949   0.36731   0.00000  Uiso   1.00
C401   C     0.39830   0.68036   0.36125   0.00000  Uiso   1.00
H402   H     0.38407   0.68185   0.32244   0.00000  Uiso   1.00
H403   H     0.38146   0.71006   0.37802   0.00000  Uiso   1.00
C404   C     0.37713   0.63656   0.38033   0.00000  Uiso   1.00
H405   H     0.39394   0.60697   0.36381   0.00000  Uiso   1.00
H406   H     0.38917   0.63485   0.41950   0.00000  Uiso   1.00
C407   C     0.65055   0.63398   0.36921   0.00000  Uiso   1.00
H408   H     0.63273   0.66299   0.38576   0.00000  Uiso   1.00
H409   H     0.63631   0.60200   0.38367   0.00000  Uiso   1.00
H410   H     0.63763   0.63447   0.33008   0.00000  Uiso   1.00
O411   O     0.83334   0.68453   0.28974   0.00000  Uiso   1.00
O412   O     0.83333   0.81546   0.21026   0.00000  Uiso   1.00
O413   O     0.83334   0.68453   0.21026   0.00000  Uiso   1.00
O414   O     0.83333   0.81547   0.28974   0.00000  Uiso   1.00
C415   C     0.83476   0.66357   0.25017   0.00000  Uiso   1.00
C416   C     0.83513   0.83650   0.25028   0.00000  Uiso   1.00
O417   O     0.75725   0.75000   0.28044   0.00000  Uiso   1.00
O418   O     0.90942   0.75000   0.21955   0.00000  Uiso   1.00
O419   O     0.75725   0.74999   0.20096   0.00000  Uiso   1.00
O420   O     0.90942   0.75000   0.29903   0.00000  Uiso   1.00
C421   C     0.73371   0.75007   0.23757   0.00000  Uiso   1.00
C422   C     0.93296   0.75055   0.26241   0.00000  Uiso   1.00
Zn423  Zn    0.83333   0.75000   0.30307   0.00000  Uiso   1.00
Zn424  Zn    0.83333   0.74999   0.19693   0.00000  Uiso   1.00
C425   C     0.67870   0.74952   0.23087   0.00000  Uiso   1.00
C426   C     0.98794   0.75236   0.26903   0.00000  Uiso   1.00
H427   H     0.99155   0.74599   0.19469   0.00000  Uiso   1.00
H428   H     0.67511   0.75622   0.30516   0.00000  Uiso   1.00
C429   C     0.84068   0.54354   0.28923   0.00000  Uiso   1.00
C430   C     0.84640   0.95625   0.21233   0.00000  Uiso   1.00
H431   H     0.82422   0.52240   0.31462   0.00000  Uiso   1.00
H432   H     0.83333   0.97679   0.18129   0.00000  Uiso   1.00
C433   C     0.82825   0.58894   0.28671   0.00000  Uiso   1.00
C434   C     0.83382   0.91066   0.21097   0.00000  Uiso   1.00
H435   H     0.80400   0.60283   0.31119   0.00000  Uiso   1.00
H436   H     0.81295   0.89610   0.17843   0.00000  Uiso   1.00
C437   C     0.84560   0.61575   0.25167   0.00000  Uiso   1.00
C438   C     0.84647   0.88454   0.25189   0.00000  Uiso   1.00
C439   C     0.87772   0.59777   0.22066   0.00000  Uiso   1.00
C440   C     0.87442   0.90353   0.29348   0.00000  Uiso   1.00
H441   H     0.89300   0.61948   0.19506   0.00000  Uiso   1.00
H442   H     0.88632   0.88248   0.32436   0.00000  Uiso   1.00
C443   C     0.89191   0.55234   0.22376   0.00000  Uiso   1.00
C444   C     0.88850   0.94925   0.29504   0.00000  Uiso   1.00
C445   C     0.87159   0.52493   0.25751   0.00000  Uiso   1.00
C446   C     0.87245   0.97590   0.25437   0.00000  Uiso   1.00
C447   C     0.79036   0.73131   0.04709   0.00000  Uiso   1.00
C448   C     0.85591   0.78621   0.45033   0.00000  Uiso   1.00
H449   H     0.75649   0.71659   0.02505   0.00000  Uiso   1.00
H450   H     0.87400   0.81486   0.47043   0.00000  Uiso   1.00
C451   C     0.79208   0.73097   0.09692   0.00000  Uiso   1.00
C452   C     0.85649   0.78490   0.40085   0.00000  Uiso   1.00
H453   H     0.76008   0.71558   0.11213   0.00000  Uiso   1.00
H454   H     0.87544   0.81205   0.38406   0.00000  Uiso   1.00
N455   N     0.83333   0.74999   0.12623   0.00000  Uiso   1.00
N456   N     0.83333   0.75001   0.37376   0.00000  Uiso   1.00
C457   C     0.87357   0.77024   0.10714   0.00000  Uiso   1.00
C458   C     0.80844   0.71584   0.39454   0.00000  Uiso   1.00
C459   C     0.87379   0.77011   0.05752   0.00000  Uiso   1.00
C460   C     0.80809   0.71560   0.44423   0.00000  Uiso   1.00
H461   H     0.90744   0.78420   0.04375   0.00000  Uiso   1.00
H462   H     0.79041   0.68708   0.46000   0.00000  Uiso   1.00
C463   C     0.83172   0.75100   0.02640   0.00000  Uiso   1.00
C464   C     0.83163   0.75111   0.47309   0.00000  Uiso   1.00
N465   N     0.92649   0.53456   0.19287   0.00000  Uiso   1.00
O466   O     0.95813   0.50151   0.20693   0.00000  Uiso   1.00
O467   O     0.93039   0.55428   0.15255   0.00000  Uiso   1.00
N468   N     0.91822   0.96813   0.33769   0.00000  Uiso   1.00
O469   O     0.94900   0.50307   0.33547   0.00000  Uiso   1.00
O470   O     0.91840   0.94805   0.37850   0.00000  Uiso   1.00
O471   O     0.91618   0.78825   0.13665   0.00000  Uiso   1.00
C472   C     0.91090   0.83572   0.14079   0.00000  Uiso   1.00
H473   H     0.91852   0.84426   0.17932   0.00000  Uiso   1.00
H474   H     0.87092   0.84877   0.12679   0.00000  Uiso   1.00
C475   C     0.95220   0.86018   0.11631   0.00000  Uiso   1.00
H476   H     0.99173   0.84636   0.12951   0.00000  Uiso   1.00
H477   H     0.94365   0.85453   0.07725   0.00000  Uiso   1.00
C478   C     0.95262   0.91100   0.12631   0.00000  Uiso   1.00
H479   H     0.91352   0.92567   0.11330   0.00000  Uiso   1.00
H480   H     0.98252   0.92797   0.10778   0.00000  Uiso   1.00
H481   H     0.96269   0.91746   0.16515   0.00000  Uiso   1.00
O482   O     0.78728   0.67949   0.36731   0.00000  Uiso   1.00
C483   C     0.73164   0.68036   0.36125   0.00000  Uiso   1.00
H484   H     0.71741   0.68185   0.32244   0.00000  Uiso   1.00
H485   H     0.71480   0.71006   0.37802   0.00000  Uiso   1.00
C486   C     0.71046   0.63656   0.38033   0.00000  Uiso   1.00
H487   H     0.72727   0.60697   0.36381   0.00000  Uiso   1.00
H488   H     0.72251   0.63485   0.41950   0.00000  Uiso   1.00
C489   C     0.98389   0.63398   0.36921   0.00000  Uiso   1.00
H490   H     0.96606   0.66299   0.38576   0.00000  Uiso   1.00
H491   H     0.96965   0.60200   0.38367   0.00000  Uiso   1.00
H492   H     0.97097   0.63447   0.33008   0.00000  Uiso   1.00
O493   O     0.16667   0.18453   0.78974   0.00000  Uiso   1.00
O494   O     0.16666   0.31546   0.71026   0.00000  Uiso   1.00
O495   O     0.16667   0.18453   0.71026   0.00000  Uiso   1.00
O496   O     0.16666   0.31547   0.78974   0.00000  Uiso   1.00
C497   C     0.16810   0.16357   0.75017   0.00000  Uiso   1.00
C498   C     0.16846   0.33650   0.75028   0.00000  Uiso   1.00
O499   O     0.09058   0.25000   0.78044   0.00000  Uiso   1.00
O500   O     0.24275   0.25000   0.71955   0.00000  Uiso   1.00
O501   O     0.09058   0.24999   0.70096   0.00000  Uiso   1.00
O502   O     0.24275   0.25000   0.79903   0.00000  Uiso   1.00
C503   C     0.06704   0.25007   0.73757   0.00000  Uiso   1.00
C504   C     0.26629   0.25055   0.76241   0.00000  Uiso   1.00
Zn505  Zn    0.16667   0.25000   0.80307   0.00000  Uiso   1.00
Zn506  Zn    0.16667   0.24999   0.69693   0.00000  Uiso   1.00
C507   C     0.01203   0.24952   0.73087   0.00000  Uiso   1.00
C508   C     0.32127   0.25236   0.76903   0.00000  Uiso   1.00
H509   H     0.32488   0.24599   0.69469   0.00000  Uiso   1.00
H510   H     0.00844   0.25622   0.80516   0.00000  Uiso   1.00
C511   C     0.17401   0.04354   0.78923   0.00000  Uiso   1.00
C512   C     0.17974   0.45625   0.71233   0.00000  Uiso   1.00
H513   H     0.15756   0.02240   0.81462   0.00000  Uiso   1.00
H514   H     0.16667   0.47679   0.68129   0.00000  Uiso   1.00
C515   C     0.16159   0.08894   0.78671   0.00000  Uiso   1.00
C516   C     0.16715   0.41066   0.71097   0.00000  Uiso   1.00
H517   H     0.13733   0.10283   0.81119   0.00000  Uiso   1.00
H518   H     0.14629   0.39610   0.67843   0.00000  Uiso   1.00
C519   C     0.17894   0.11575   0.75167   0.00000  Uiso   1.00
C520   C     0.17981   0.38454   0.75189   0.00000  Uiso   1.00
C521   C     0.21106   0.09777   0.72066   0.00000  Uiso   1.00
C522   C     0.20776   0.40353   0.79348   0.00000  Uiso   1.00
H523   H     0.22633   0.11948   0.69506   0.00000  Uiso   1.00
H524   H     0.21965   0.38248   0.82436   0.00000  Uiso   1.00
C525   C     0.22525   0.05234   0.72376   0.00000  Uiso   1.00
C526   C     0.22183   0.44925   0.79504   0.00000  Uiso   1.00
C527   C     0.20492   0.02493   0.75751   0.00000  Uiso   1.00
C528   C     0.20579   0.47590   0.75437   0.00000  Uiso   1.00
C529   C     0.12369   0.23131   0.54709   0.00000  Uiso   1.00
C530   C     0.18924   0.28621   0.95033   0.00000  Uiso   1.00
H531   H     0.08982   0.21659   0.52505   0.00000  Uiso   1.00
H532   H     0.20734   0.31486   0.97043   0.00000  Uiso   1.00
C533   C     0.12542   0.23097   0.59692   0.00000  Uiso   1.00
C534   C     0.18983   0.28490   0.90085   0.00000  Uiso   1.00
H535   H     0.09341   0.21558   0.61213   0.00000  Uiso   1.00
H536   H     0.20877   0.31205   0.88406   0.00000  Uiso   1.00
N537   N     0.16667   0.24999   0.62623   0.00000  Uiso   1.00
N538   N     0.16667   0.25001   0.87376   0.00000  Uiso   1.00
C539   C     0.20691   0.27024   0.60714   0.00000  Uiso   1.00
C540   C     0.14177   0.21584   0.89454   0.00000  Uiso   1.00
C541   C     0.20713   0.27011   0.55752   0.00000  Uiso   1.00
C542   C     0.14142   0.21560   0.94423   0.00000  Uiso   1.00
H543   H     0.24078   0.28420   0.54375   0.00000  Uiso   1.00
H544   H     0.12374   0.18708   0.96000   0.00000  Uiso   1.00
C545   C     0.16505   0.25100   0.52640   0.00000  Uiso   1.00
C546   C     0.16497   0.25111   0.97309   0.00000  Uiso   1.00
N547   N     0.25982   0.03456   0.69287   0.00000  Uiso   1.00
O548   O     0.29146   0.00151   0.70693   0.00000  Uiso   1.00
O549   O     0.26373   0.05428   0.65255   0.00000  Uiso   1.00
N550   N     0.25156   0.46813   0.83769   0.00000  Uiso   1.00
O551   O     0.28233   0.00307   0.83547   0.00000  Uiso   1.00
O552   O     0.25174   0.44805   0.87850   0.00000  Uiso   1.00
O553   O     0.24951   0.28825   0.63665   0.00000  Uiso   1.00
C554   C     0.24423   0.33572   0.64079   0.00000  Uiso   1.00
H555   H     0.25186   0.34426   0.67932   0.00000  Uiso   1.00
H556   H     0.20425   0.34877   0.62679   0.00000  Uiso   1.00
C557   C     0.28553   0.36018   0.61631   0.00000  Uiso   1.00
H558   H     0.32506   0.34636   0.62951   0.00000  Uiso   1.00
H559   H     0.27698   0.35453   0.57725   0.00000  Uiso   1.00
C560   C     0.28596   0.41100   0.62631   0.00000  Uiso   1.00
H561   H     0.24685   0.42567   0.61330   0.00000  Uiso   1.00
H562   H     0.31585   0.42797   0.60778   0.00000  Uiso   1.00
H563   H     0.29602   0.41746   0.66515   0.00000  Uiso   1.00
O564   O     0.12061   0.17949   0.86731   0.00000  Uiso   1.00
C565   C     0.06497   0.18036   0.86125   0.00000  Uiso   1.00
H566   H     0.05074   0.18185   0.82244   0.00000  Uiso   1.00
H567   H     0.04813   0.21006   0.87802   0.00000  Uiso   1.00
C568   C     0.04380   0.13656   0.88033   0.00000  Uiso   1.00
H569   H     0.06060   0.10697   0.86381   0.00000  Uiso   1.00
H570   H     0.05584   0.13485   0.91950   0.00000  Uiso   1.00
C571   C     0.31722   0.13398   0.86921   0.00000  Uiso   1.00
H572   H     0.29940   0.16299   0.88576   0.00000  Uiso   1.00
H573   H     0.30298   0.10200   0.88367   0.00000  Uiso   1.00
H574   H     0.30430   0.13447   0.83008   0.00000  Uiso   1.00
O575   O     0.50000   0.18453   0.78974   0.00000  Uiso   1.00
O576   O     0.50000   0.31546   0.71026   0.00000  Uiso   1.00
O577   O     0.50000   0.18453   0.71026   0.00000  Uiso   1.00
O578   O     0.50000   0.31547   0.78974   0.00000  Uiso   1.00
C579   C     0.50143   0.16357   0.75017   0.00000  Uiso   1.00
C580   C     0.50179   0.33650   0.75028   0.00000  Uiso   1.00
O581   O     0.42392   0.25000   0.78044   0.00000  Uiso   1.00
O582   O     0.57608   0.25000   0.71955   0.00000  Uiso   1.00
O583   O     0.42392   0.24999   0.70096   0.00000  Uiso   1.00
O584   O     0.57608   0.25000   0.79903   0.00000  Uiso   1.00
C585   C     0.40037   0.25007   0.73757   0.00000  Uiso   1.00
C586   C     0.59963   0.25055   0.76241   0.00000  Uiso   1.00
Zn587  Zn    0.50000   0.25000   0.80307   0.00000  Uiso   1.00
Zn588  Zn    0.50000   0.24999   0.69693   0.00000  Uiso   1.00
C589   C     0.34536   0.24952   0.73087   0.00000  Uiso   1.00
C590   C     0.65461   0.25236   0.76903   0.00000  Uiso   1.00
H591   H     0.65822   0.24599   0.69469   0.00000  Uiso   1.00
H592   H     0.34177   0.25622   0.80516   0.00000  Uiso   1.00
C593   C     0.50735   0.04354   0.78923   0.00000  Uiso   1.00
C594   C     0.51307   0.45625   0.71233   0.00000  Uiso   1.00
H595   H     0.49089   0.02240   0.81462   0.00000  Uiso   1.00
H596   H     0.50000   0.47679   0.68129   0.00000  Uiso   1.00
C597   C     0.49492   0.08894   0.78671   0.00000  Uiso   1.00
C598   C     0.50049   0.41066   0.71097   0.00000  Uiso   1.00
H599   H     0.47066   0.10283   0.81119   0.00000  Uiso   1.00
H600   H     0.47962   0.39610   0.67843   0.00000  Uiso   1.00
C601   C     0.51227   0.11575   0.75167   0.00000  Uiso   1.00
C602   C     0.51314   0.38454   0.75189   0.00000  Uiso   1.00
C603   C     0.54439   0.09777   0.72066   0.00000  Uiso   1.00
C604   C     0.54109   0.40353   0.79348   0.00000  Uiso   1.00
H605   H     0.55967   0.11948   0.69506   0.00000  Uiso   1.00
H606   H     0.55298   0.38248   0.82436   0.00000  Uiso   1.00
C607   C     0.55858   0.05234   0.72376   0.00000  Uiso   1.00
C608   C     0.55517   0.44925   0.79504   0.00000  Uiso   1.00
C609   C     0.53826   0.02493   0.75751   0.00000  Uiso   1.00
C610   C     0.53912   0.47590   0.75437   0.00000  Uiso   1.00
C611   C     0.45703   0.23131   0.54709   0.00000  Uiso   1.00
C612   C     0.52257   0.28621   0.95033   0.00000  Uiso   1.00
H613   H     0.42316   0.21659   0.52505   0.00000  Uiso   1.00
H614   H     0.54067   0.31486   0.97043   0.00000  Uiso   1.00
C615   C     0.45875   0.23097   0.59692   0.00000  Uiso   1.00
C616   C     0.52316   0.28490   0.90085   0.00000  Uiso   1.00
H617   H     0.42675   0.21558   0.61213   0.00000  Uiso   1.00
H618   H     0.54210   0.31205   0.88406   0.00000  Uiso   1.00
N619   N     0.50000   0.24999   0.62623   0.00000  Uiso   1.00
N620   N     0.50000   0.25001   0.87376   0.00000  Uiso   1.00
C621   C     0.54024   0.27024   0.60714   0.00000  Uiso   1.00
C622   C     0.47510   0.21584   0.89454   0.00000  Uiso   1.00
C623   C     0.54046   0.27011   0.55752   0.00000  Uiso   1.00
C624   C     0.47475   0.21560   0.94423   0.00000  Uiso   1.00
H625   H     0.57411   0.28420   0.54375   0.00000  Uiso   1.00
H626   H     0.45707   0.18708   0.96000   0.00000  Uiso   1.00
C627   C     0.49839   0.25100   0.52640   0.00000  Uiso   1.00
C628   C     0.49830   0.25111   0.97309   0.00000  Uiso   1.00
N629   N     0.59316   0.03456   0.69287   0.00000  Uiso   1.00
O630   O     0.62479   0.00151   0.70693   0.00000  Uiso   1.00
O631   O     0.59706   0.05428   0.65255   0.00000  Uiso   1.00
N632   N     0.58489   0.46813   0.83769   0.00000  Uiso   1.00
O633   O     0.61567   0.00307   0.83547   0.00000  Uiso   1.00
O634   O     0.58507   0.44805   0.87850   0.00000  Uiso   1.00
O635   O     0.58284   0.28825   0.63665   0.00000  Uiso   1.00
C636   C     0.57757   0.33572   0.64079   0.00000  Uiso   1.00
H637   H     0.58519   0.34426   0.67932   0.00000  Uiso   1.00
H638   H     0.53759   0.34877   0.62679   0.00000  Uiso   1.00
C639   C     0.61886   0.36018   0.61631   0.00000  Uiso   1.00
H640   H     0.65840   0.34636   0.62951   0.00000  Uiso   1.00
H641   H     0.61032   0.35453   0.57725   0.00000  Uiso   1.00
C642   C     0.61929   0.41100   0.62631   0.00000  Uiso   1.00
H643   H     0.58019   0.42567   0.61330   0.00000  Uiso   1.00
H644   H     0.64918   0.42797   0.60778   0.00000  Uiso   1.00
H645   H     0.62935   0.41746   0.66515   0.00000  Uiso   1.00
O646   O     0.45394   0.17949   0.86731   0.00000  Uiso   1.00
C647   C     0.39830   0.18036   0.86125   0.00000  Uiso   1.00
H648   H     0.38407   0.18185   0.82244   0.00000  Uiso   1.00
H649   H     0.38146   0.21006   0.87802   0.00000  Uiso   1.00
C650   C     0.37713   0.13656   0.88033   0.00000  Uiso   1.00
H651   H     0.39394   0.10697   0.86381   0.00000  Uiso   1.00
H652   H     0.38917   0.13485   0.91950   0.00000  Uiso   1.00
C653   C     0.65055   0.13398   0.86921   0.00000  Uiso   1.00
H654   H     0.63273   0.16299   0.88576   0.00000  Uiso   1.00
H655   H     0.63631   0.10200   0.88367   0.00000  Uiso   1.00
H656   H     0.63763   0.13447   0.83008   0.00000  Uiso   1.00
O657   O     0.83334   0.18453   0.78974   0.00000  Uiso   1.00
O658   O     0.83333   0.31546   0.71026   0.00000  Uiso   1.00
O659   O     0.83334   0.18453   0.71026   0.00000  Uiso   1.00
O660   O     0.83333   0.31547   0.78974   0.00000  Uiso   1.00
C661   C     0.83476   0.16357   0.75017   0.00000  Uiso   1.00
C662   C     0.83513   0.33650   0.75028   0.00000  Uiso   1.00
O663   O     0.75725   0.25000   0.78044   0.00000  Uiso   1.00
O664   O     0.90942   0.25000   0.71955   0.00000  Uiso   1.00
O665   O     0.75725   0.24999   0.70096   0.00000  Uiso   1.00
O666   O     0.90942   0.25000   0.79903   0.00000  Uiso   1.00
C667   C     0.73371   0.25007   0.73757   0.00000  Uiso   1.00
C668   C     0.93296   0.25055   0.76241   0.00000  Uiso   1.00
Zn669  Zn    0.83333   0.25000   0.80307   0.00000  Uiso   1.00
Zn670  Zn    0.83333   0.24999   0.69693   0.00000  Uiso   1.00
C671   C     0.67870   0.24952   0.73087   0.00000  Uiso   1.00
C672   C     0.98794   0.25236   0.76903   0.00000  Uiso   1.00
H673   H     0.99155   0.24599   0.69469   0.00000  Uiso   1.00
H674   H     0.67511   0.25622   0.80516   0.00000  Uiso   1.00
C675   C     0.84068   0.04354   0.78923   0.00000  Uiso   1.00
C676   C     0.84640   0.45625   0.71233   0.00000  Uiso   1.00
H677   H     0.82422   0.02240   0.81462   0.00000  Uiso   1.00
H678   H     0.83333   0.47679   0.68129   0.00000  Uiso   1.00
C679   C     0.82825   0.08894   0.78671   0.00000  Uiso   1.00
C680   C     0.83382   0.41066   0.71097   0.00000  Uiso   1.00
H681   H     0.80400   0.10283   0.81119   0.00000  Uiso   1.00
H682   H     0.81295   0.39610   0.67843   0.00000  Uiso   1.00
C683   C     0.84560   0.11575   0.75167   0.00000  Uiso   1.00
C684   C     0.84647   0.38454   0.75189   0.00000  Uiso   1.00
C685   C     0.87772   0.09777   0.72066   0.00000  Uiso   1.00
C686   C     0.87442   0.40353   0.79348   0.00000  Uiso   1.00
H687   H     0.89300   0.11948   0.69506   0.00000  Uiso   1.00
H688   H     0.88632   0.38248   0.82436   0.00000  Uiso   1.00
C689   C     0.89191   0.05234   0.72376   0.00000  Uiso   1.00
C690   C     0.88850   0.44925   0.79504   0.00000  Uiso   1.00
C691   C     0.87159   0.02493   0.75751   0.00000  Uiso   1.00
C692   C     0.87245   0.47590   0.75437   0.00000  Uiso   1.00
C693   C     0.79036   0.23131   0.54709   0.00000  Uiso   1.00
C694   C     0.85591   0.28621   0.95033   0.00000  Uiso   1.00
H695   H     0.75649   0.21659   0.52505   0.00000  Uiso   1.00
H696   H     0.87400   0.31486   0.97043   0.00000  Uiso   1.00
C697   C     0.79208   0.23097   0.59692   0.00000  Uiso   1.00
C698   C     0.85649   0.28490   0.90085   0.00000  Uiso   1.00
H699   H     0.76008   0.21558   0.61213   0.00000  Uiso   1.00
H700   H     0.87544   0.31205   0.88406   0.00000  Uiso   1.00
N701   N     0.83333   0.24999   0.62623   0.00000  Uiso   1.00
N702   N     0.83333   0.25001   0.87376   0.00000  Uiso   1.00
C703   C     0.87357   0.27024   0.60714   0.00000  Uiso   1.00
C704   C     0.80844   0.21584   0.89454   0.00000  Uiso   1.00
C705   C     0.87379   0.27011   0.55752   0.00000  Uiso   1.00
C706   C     0.80809   0.21560   0.94423   0.00000  Uiso   1.00
H707   H     0.90744   0.28420   0.54375   0.00000  Uiso   1.00
H708   H     0.79041   0.18708   0.96000   0.00000  Uiso   1.00
C709   C     0.83172   0.25100   0.52640   0.00000  Uiso   1.00
C710   C     0.83163   0.25111   0.97309   0.00000  Uiso   1.00
N711   N     0.92649   0.03456   0.69287   0.00000  Uiso   1.00
O712   O     0.95813   0.00151   0.70693   0.00000  Uiso   1.00
O713   O     0.93039   0.05428   0.65255   0.00000  Uiso   1.00
N714   N     0.91822   0.46813   0.83769   0.00000  Uiso   1.00
O715   O     0.94900   0.00307   0.83547   0.00000  Uiso   1.00
O716   O     0.91840   0.44805   0.87850   0.00000  Uiso   1.00
O717   O     0.91618   0.28825   0.63665   0.00000  Uiso   1.00
C718   C     0.91090   0.33572   0.64079   0.00000  Uiso   1.00
H719   H     0.91852   0.34426   0.67932   0.00000  Uiso   1.00
H720   H     0.87092   0.34877   0.62679   0.00000  Uiso   1.00
C721   C     0.95220   0.36018   0.61631   0.00000  Uiso   1.00
H722   H     0.99173   0.34636   0.62951   0.00000  Uiso   1.00
H723   H     0.94365   0.35453   0.57725   0.00000  Uiso   1.00
C724   C     0.95262   0.41100   0.62631   0.00000  Uiso   1.00
H725   H     0.91352   0.42567   0.61330   0.00000  Uiso   1.00
H726   H     0.98252   0.42797   0.60778   0.00000  Uiso   1.00
H727   H     0.96269   0.41746   0.66515   0.00000  Uiso   1.00
O728   O     0.78728   0.17949   0.86731   0.00000  Uiso   1.00
C729   C     0.73164   0.18036   0.86125   0.00000  Uiso   1.00
H730   H     0.71741   0.18185   0.82244   0.00000  Uiso   1.00
H731   H     0.71480   0.21006   0.87802   0.00000  Uiso   1.00
C732   C     0.71046   0.13656   0.88033   0.00000  Uiso   1.00
H733   H     0.72727   0.10697   0.86381   0.00000  Uiso   1.00
H734   H     0.72251   0.13485   0.91950   0.00000  Uiso   1.00
C735   C     0.98389   0.13398   0.86921   0.00000  Uiso   1.00
H736   H     0.96606   0.16299   0.88576   0.00000  Uiso   1.00
H737   H     0.96965   0.10200   0.88367   0.00000  Uiso   1.00
H738   H     0.97097   0.13447   0.83008   0.00000  Uiso   1.00
O739   O     0.16667   0.68453   0.78974   0.00000  Uiso   1.00
O740   O     0.16666   0.81546   0.71026   0.00000  Uiso   1.00
O741   O     0.16667   0.68453   0.71026   0.00000  Uiso   1.00
O742   O     0.16666   0.81547   0.78974   0.00000  Uiso   1.00
C743   C     0.16810   0.66357   0.75017   0.00000  Uiso   1.00
C744   C     0.16846   0.83650   0.75028   0.00000  Uiso   1.00
O745   O     0.09058   0.75000   0.78044   0.00000  Uiso   1.00
O746   O     0.24275   0.75000   0.71955   0.00000  Uiso   1.00
O747   O     0.09058   0.74999   0.70096   0.00000  Uiso   1.00
O748   O     0.24275   0.75000   0.79903   0.00000  Uiso   1.00
C749   C     0.06704   0.75007   0.73757   0.00000  Uiso   1.00
C750   C     0.26629   0.75055   0.76241   0.00000  Uiso   1.00
Zn751  Zn    0.16667   0.75000   0.80307   0.00000  Uiso   1.00
Zn752  Zn    0.16667   0.74999   0.69693   0.00000  Uiso   1.00
C753   C     0.01203   0.74952   0.73087   0.00000  Uiso   1.00
C754   C     0.32127   0.75236   0.76903   0.00000  Uiso   1.00
H755   H     0.32488   0.74599   0.69469   0.00000  Uiso   1.00
H756   H     0.00844   0.75622   0.80516   0.00000  Uiso   1.00
C757   C     0.17401   0.54354   0.78923   0.00000  Uiso   1.00
C758   C     0.17974   0.95625   0.71233   0.00000  Uiso   1.00
H759   H     0.15756   0.52240   0.81462   0.00000  Uiso   1.00
H760   H     0.16667   0.97679   0.68129   0.00000  Uiso   1.00
C761   C     0.16159   0.58894   0.78671   0.00000  Uiso   1.00
C762   C     0.16715   0.91066   0.71097   0.00000  Uiso   1.00
H763   H     0.13733   0.60283   0.81119   0.00000  Uiso   1.00
H764   H     0.14629   0.89610   0.67843   0.00000  Uiso   1.00
C765   C     0.17894   0.61575   0.75167   0.00000  Uiso   1.00
C766   C     0.17981   0.88454   0.75189   0.00000  Uiso   1.00
C767   C     0.21106   0.59777   0.72066   0.00000  Uiso   1.00
C768   C     0.20776   0.90353   0.79348   0.00000  Uiso   1.00
H769   H     0.22633   0.61948   0.69506   0.00000  Uiso   1.00
H770   H     0.21965   0.88248   0.82436   0.00000  Uiso   1.00
C771   C     0.22525   0.55234   0.72376   0.00000  Uiso   1.00
C772   C     0.22183   0.94925   0.79504   0.00000  Uiso   1.00
C773   C     0.20492   0.52493   0.75751   0.00000  Uiso   1.00
C774   C     0.20579   0.97590   0.75437   0.00000  Uiso   1.00
C775   C     0.12369   0.73131   0.54709   0.00000  Uiso   1.00
C776   C     0.18924   0.78621   0.95033   0.00000  Uiso   1.00
H777   H     0.08982   0.71659   0.52505   0.00000  Uiso   1.00
H778   H     0.20734   0.81486   0.97043   0.00000  Uiso   1.00
C779   C     0.12542   0.73097   0.59692   0.00000  Uiso   1.00
C780   C     0.18983   0.78490   0.90085   0.00000  Uiso   1.00
H781   H     0.09341   0.71558   0.61213   0.00000  Uiso   1.00
H782   H     0.20877   0.81205   0.88406   0.00000  Uiso   1.00
N783   N     0.16667   0.74999   0.62623   0.00000  Uiso   1.00
N784   N     0.16667   0.75001   0.87376   0.00000  Uiso   1.00
C785   C     0.20691   0.77024   0.60714   0.00000  Uiso   1.00
C786   C     0.14177   0.71584   0.89454   0.00000  Uiso   1.00
C787   C     0.20713   0.77011   0.55752   0.00000  Uiso   1.00
C788   C     0.14142   0.71560   0.94423   0.00000  Uiso   1.00
H789   H     0.24078   0.78420   0.54375   0.00000  Uiso   1.00
H790   H     0.12374   0.68708   0.96000   0.00000  Uiso   1.00
C791   C     0.16505   0.75100   0.52640   0.00000  Uiso   1.00
C792   C     0.16497   0.75111   0.97309   0.00000  Uiso   1.00
N793   N     0.25982   0.53456   0.69287   0.00000  Uiso   1.00
O794   O     0.29146   0.50151   0.70693   0.00000  Uiso   1.00
O795   O     0.26373   0.55428   0.65255   0.00000  Uiso   1.00
N796   N     0.25156   0.96813   0.83769   0.00000  Uiso   1.00
O797   O     0.28233   0.50307   0.83547   0.00000  Uiso   1.00
O798   O     0.25174   0.94805   0.87850   0.00000  Uiso   1.00
O799   O     0.24951   0.78825   0.63665   0.00000  Uiso   1.00
C800   C     0.24423   0.83572   0.64079   0.00000  Uiso   1.00
H801   H     0.25186   0.84426   0.67932   0.00000  Uiso   1.00
H802   H     0.20425   0.84877   0.62679   0.00000  Uiso   1.00
C803   C     0.28553   0.86018   0.61631   0.00000  Uiso   1.00
H804   H     0.32506   0.84636   0.62951   0.00000  Uiso   1.00
H805   H     0.27698   0.85453   0.57725   0.00000  Uiso   1.00
C806   C     0.28596   0.91100   0.62631   0.00000  Uiso   1.00
H807   H     0.24685   0.92567   0.61330   0.00000  Uiso   1.00
H808   H     0.31585   0.92797   0.60778   0.00000  Uiso   1.00
H809   H     0.29602   0.91746   0.66515   0.00000  Uiso   1.00
O810   O     0.12061   0.67949   0.86731   0.00000  Uiso   1.00
C811   C     0.06497   0.68036   0.86125   0.00000  Uiso   1.00
H812   H     0.05074   0.68185   0.82244   0.00000  Uiso   1.00
H813   H     0.04813   0.71006   0.87802   0.00000  Uiso   1.00
C814   C     0.04380   0.63656   0.88033   0.00000  Uiso   1.00
H815   H     0.06060   0.60697   0.86381   0.00000  Uiso   1.00
H816   H     0.05584   0.63485   0.91950   0.00000  Uiso   1.00
C817   C     0.31722   0.63398   0.86921   0.00000  Uiso   1.00
H818   H     0.29940   0.66299   0.88576   0.00000  Uiso   1.00
H819   H     0.30298   0.60200   0.88367   0.00000  Uiso   1.00
H820   H     0.30430   0.63447   0.83008   0.00000  Uiso   1.00
O821   O     0.50000   0.68453   0.78974   0.00000  Uiso   1.00
O822   O     0.50000   0.81546   0.71026   0.00000  Uiso   1.00
O823   O     0.50000   0.68453   0.71026   0.00000  Uiso   1.00
O824   O     0.50000   0.81547   0.78974   0.00000  Uiso   1.00
C825   C     0.50143   0.66357   0.75017   0.00000  Uiso   1.00
C826   C     0.50179   0.83650   0.75028   0.00000  Uiso   1.00
O827   O     0.42392   0.75000   0.78044   0.00000  Uiso   1.00
O828   O     0.57608   0.75000   0.71955   0.00000  Uiso   1.00
O829   O     0.42392   0.74999   0.70096   0.00000  Uiso   1.00
O830   O     0.57608   0.75000   0.79903   0.00000  Uiso   1.00
C831   C     0.40037   0.75007   0.73757   0.00000  Uiso   1.00
C832   C     0.59963   0.75055   0.76241   0.00000  Uiso   1.00
Zn833  Zn    0.50000   0.75000   0.80307   0.00000  Uiso   1.00
Zn834  Zn    0.50000   0.74999   0.69693   0.00000  Uiso   1.00
C835   C     0.34536   0.74952   0.73087   0.00000  Uiso   1.00
C836   C     0.65461   0.75236   0.76903   0.00000  Uiso   1.00
H837   H     0.65822   0.74599   0.69469   0.00000  Uiso   1.00
H838   H     0.34177   0.75622   0.80516   0.00000  Uiso   1.00
C839   C     0.50735   0.54354   0.78923   0.00000  Uiso   1.00
C840   C     0.51307   0.95625   0.71233   0.00000  Uiso   1.00
H841   H     0.49089   0.52240   0.81462   0.00000  Uiso   1.00
H842   H     0.50000   0.97679   0.68129   0.00000  Uiso   1.00
C843   C     0.49492   0.58894   0.78671   0.00000  Uiso   1.00
C844   C     0.50049   0.91066   0.71097   0.00000  Uiso   1.00
H845   H     0.47066   0.60283   0.81119   0.00000  Uiso   1.00
H846   H     0.47962   0.89610   0.67843   0.00000  Uiso   1.00
C847   C     0.51227   0.61575   0.75167   0.00000  Uiso   1.00
C848   C     0.51314   0.88454   0.75189   0.00000  Uiso   1.00
C849   C     0.54439   0.59777   0.72066   0.00000  Uiso   1.00
C850   C     0.54109   0.90353   0.79348   0.00000  Uiso   1.00
H851   H     0.55967   0.61948   0.69506   0.00000  Uiso   1.00
H852   H     0.55298   0.88248   0.82436   0.00000  Uiso   1.00
C853   C     0.55858   0.55234   0.72376   0.00000  Uiso   1.00
C854   C     0.55517   0.94925   0.79504   0.00000  Uiso   1.00
C855   C     0.53826   0.52493   0.75751   0.00000  Uiso   1.00
C856   C     0.53912   0.97590   0.75437   0.00000  Uiso   1.00
C857   C     0.45703   0.73131   0.54709   0.00000  Uiso   1.00
C858   C     0.52257   0.78621   0.95033   0.00000  Uiso   1.00
H859   H     0.42316   0.71659   0.52505   0.00000  Uiso   1.00
H860   H     0.54067   0.81486   0.97043   0.00000  Uiso   1.00
C861   C     0.45875   0.73097   0.59692   0.00000  Uiso   1.00
C862   C     0.52316   0.78490   0.90085   0.00000  Uiso   1.00
H863   H     0.42675   0.71558   0.61213   0.00000  Uiso   1.00
H864   H     0.54210   0.81205   0.88406   0.00000  Uiso   1.00
N865   N     0.50000   0.74999   0.62623   0.00000  Uiso   1.00
N866   N     0.50000   0.75001   0.87376   0.00000  Uiso   1.00
C867   C     0.54024   0.77024   0.60714   0.00000  Uiso   1.00
C868   C     0.47510   0.71584   0.89454   0.00000  Uiso   1.00
C869   C     0.54046   0.77011   0.55752   0.00000  Uiso   1.00
C870   C     0.47475   0.71560   0.94423   0.00000  Uiso   1.00
H871   H     0.57411   0.78420   0.54375   0.00000  Uiso   1.00
H872   H     0.45707   0.68708   0.96000   0.00000  Uiso   1.00
C873   C     0.49839   0.75100   0.52640   0.00000  Uiso   1.00
C874   C     0.49830   0.75111   0.97309   0.00000  Uiso   1.00
N875   N     0.59316   0.53456   0.69287   0.00000  Uiso   1.00
O876   O     0.62479   0.50151   0.70693   0.00000  Uiso   1.00
O877   O     0.59706   0.55428   0.65255   0.00000  Uiso   1.00
N878   N     0.58489   0.96813   0.83769   0.00000  Uiso   1.00
O879   O     0.61567   0.50307   0.83547   0.00000  Uiso   1.00
O880   O     0.58507   0.94805   0.87850   0.00000  Uiso   1.00
O881   O     0.58284   0.78825   0.63665   0.00000  Uiso   1.00
C882   C     0.57757   0.83572   0.64079   0.00000  Uiso   1.00
H883   H     0.58519   0.84426   0.67932   0.00000  Uiso   1.00
H884   H     0.53759   0.84877   0.62679   0.00000  Uiso   1.00
C885   C     0.61886   0.86018   0.61631   0.00000  Uiso   1.00
H886   H     0.65840   0.84636   0.62951   0.00000  Uiso   1.00
H887   H     0.61032   0.85453   0.57725   0.00000  Uiso   1.00
C888   C     0.61929   0.91100   0.62631   0.00000  Uiso   1.00
H889   H     0.58019   0.92567   0.61330   0.00000  Uiso   1.00
H890   H     0.64918   0.92797   0.60778   0.00000  Uiso   1.00
H891   H     0.62935   0.91746   0.66515   0.00000  Uiso   1.00
O892   O     0.45394   0.67949   0.86731   0.00000  Uiso   1.00
C893   C     0.39830   0.68036   0.86125   0.00000  Uiso   1.00
H894   H     0.38407   0.68185   0.82244   0.00000  Uiso   1.00
H895   H     0.38146   0.71006   0.87802   0.00000  Uiso   1.00
C896   C     0.37713   0.63656   0.88033   0.00000  Uiso   1.00
H897   H     0.39394   0.60697   0.86381   0.00000  Uiso   1.00
H898   H     0.38917   0.63485   0.91950   0.00000  Uiso   1.00
C899   C     0.65055   0.63398   0.86921   0.00000  Uiso   1.00
H900   H     0.63273   0.66299   0.88576   0.00000  Uiso   1.00
H901   H     0.63631   0.60200   0.88367   0.00000  Uiso   1.00
H902   H     0.63763   0.63447   0.83008   0.00000  Uiso   1.00
O903   O     0.83334   0.68453   0.78974   0.00000  Uiso   1.00
O904   O     0.83333   0.81546   0.71026   0.00000  Uiso   1.00
O905   O     0.83334   0.68453   0.71026   0.00000  Uiso   1.00
O906   O     0.83333   0.81547   0.78974   0.00000  Uiso   1.00
C907   C     0.83476   0.66357   0.75017   0.00000  Uiso   1.00
C908   C     0.83513   0.83650   0.75028   0.00000  Uiso   1.00
O909   O     0.75725   0.75000   0.78044   0.00000  Uiso   1.00
O910   O     0.90942   0.75000   0.71955   0.00000  Uiso   1.00
O911   O     0.75725   0.74999   0.70096   0.00000  Uiso   1.00
O912   O     0.90942   0.75000   0.79903   0.00000  Uiso   1.00
C913   C     0.73371   0.75007   0.73757   0.00000  Uiso   1.00
C914   C     0.93296   0.75055   0.76241   0.00000  Uiso   1.00
Zn915  Zn    0.83333   0.75000   0.80307   0.00000  Uiso   1.00
Zn916  Zn    0.83333   0.74999   0.69693   0.00000  Uiso   1.00
C917   C     0.67870   0.74952   0.73087   0.00000  Uiso   1.00
C918   C     0.98794   0.75236   0.76903   0.00000  Uiso   1.00
H919   H     0.99155   0.74599   0.69469   0.00000  Uiso   1.00
H920   H     0.67511   0.75622   0.80516   0.00000  Uiso   1.00
C921   C     0.84068   0.54354   0.78923   0.00000  Uiso   1.00
C922   C     0.84640   0.95625   0.71233   0.00000  Uiso   1.00
H923   H     0.82422   0.52240   0.81462   0.00000  Uiso   1.00
H924   H     0.83333   0.97679   0.68129   0.00000  Uiso   1.00
C925   C     0.82825   0.58894   0.78671   0.00000  Uiso   1.00
C926   C     0.83382   0.91066   0.71097   0.00000  Uiso   1.00
H927   H     0.80400   0.60283   0.81119   0.00000  Uiso   1.00
H928   H     0.81295   0.89610   0.67843   0.00000  Uiso   1.00
C929   C     0.84560   0.61575   0.75167   0.00000  Uiso   1.00
C930   C     0.84647   0.88454   0.75189   0.00000  Uiso   1.00
C931   C     0.87772   0.59777   0.72066   0.00000  Uiso   1.00
C932   C     0.87442   0.90353   0.79348   0.00000  Uiso   1.00
H933   H     0.89300   0.61948   0.69506   0.00000  Uiso   1.00
H934   H     0.88632   0.88248   0.82436   0.00000  Uiso   1.00
C935   C     0.89191   0.55234   0.72376   0.00000  Uiso   1.00
C936   C     0.88850   0.94925   0.79504   0.00000  Uiso   1.00
C937   C     0.87159   0.52493   0.75751   0.00000  Uiso   1.00
C938   C     0.87245   0.97590   0.75437   0.00000  Uiso   1.00
C939   C     0.79036   0.73131   0.54709   0.00000  Uiso   1.00
C940   C     0.85591   0.78621   0.95033   0.00000  Uiso   1.00
H941   H     0.75649   0.71659   0.52505   0.00000  Uiso   1.00
H942   H     0.87400   0.81486   0.97043   0.00000  Uiso   1.00
C943   C     0.79208   0.73097   0.59692   0.00000  Uiso   1.00
C944   C     0.85649   0.78490   0.90085   0.00000  Uiso   1.00
H945   H     0.76008   0.71558   0.61213   0.00000  Uiso   1.00
H946   H     0.87544   0.81205   0.88406   0.00000  Uiso   1.00
N947   N     0.83333   0.74999   0.62623   0.00000  Uiso   1.00
N948   N     0.83333   0.75001   0.87376   0.00000  Uiso   1.00
C949   C     0.87357   0.77024   0.60714   0.00000  Uiso   1.00
C950   C     0.80844   0.71584   0.89454   0.00000  Uiso   1.00
C951   C     0.87379   0.77011   0.55752   0.00000  Uiso   1.00
C952   C     0.80809   0.71560   0.94423   0.00000  Uiso   1.00
H953   H     0.90744   0.78420   0.54375   0.00000  Uiso   1.00
H954   H     0.79041   0.68708   0.96000   0.00000  Uiso   1.00
C955   C     0.83172   0.75100   0.52640   0.00000  Uiso   1.00
C956   C     0.83163   0.75111   0.97309   0.00000  Uiso   1.00
N957   N     0.92649   0.53456   0.69287   0.00000  Uiso   1.00
O958   O     0.95813   0.50151   0.70693   0.00000  Uiso   1.00
O959   O     0.93039   0.55428   0.65255   0.00000  Uiso   1.00
N960   N     0.91822   0.96813   0.83769   0.00000  Uiso   1.00
O961   O     0.94900   0.50307   0.83547   0.00000  Uiso   1.00
O962   O     0.91840   0.94805   0.87850   0.00000  Uiso   1.00
O963   O     0.91618   0.78825   0.63665   0.00000  Uiso   1.00
C964   C     0.91090   0.83572   0.64079   0.00000  Uiso   1.00
H965   H     0.91852   0.84426   0.67932   0.00000  Uiso   1.00
H966   H     0.87092   0.84877   0.62679   0.00000  Uiso   1.00
C967   C     0.95220   0.86018   0.61631   0.00000  Uiso   1.00
H968   H     0.99173   0.84636   0.62951   0.00000  Uiso   1.00
H969   H     0.94365   0.85453   0.57725   0.00000  Uiso   1.00
C970   C     0.95262   0.91100   0.62631   0.00000  Uiso   1.00
H971   H     0.91352   0.92567   0.61330   0.00000  Uiso   1.00
H972   H     0.98252   0.92797   0.60778   0.00000  Uiso   1.00
H973   H     0.96269   0.91746   0.66515   0.00000  Uiso   1.00
O974   O     0.78728   0.67949   0.86731   0.00000  Uiso   1.00
C975   C     0.73164   0.68036   0.86125   0.00000  Uiso   1.00
H976   H     0.71741   0.68185   0.82244   0.00000  Uiso   1.00
H977   H     0.71480   0.71006   0.87802   0.00000  Uiso   1.00
C978   C     0.71046   0.63656   0.88033   0.00000  Uiso   1.00
H979   H     0.72727   0.60697   0.86381   0.00000  Uiso   1.00
H980   H     0.72251   0.63485   0.91950   0.00000  Uiso   1.00
C981   C     0.98389   0.63398   0.86921   0.00000  Uiso   1.00
H982   H     0.96606   0.66299   0.88576   0.00000  Uiso   1.00
H983   H     0.96965   0.60200   0.88367   0.00000  Uiso   1.00
H984   H     0.97097   0.63447   0.83008   0.00000  Uiso   1.00
loop_
_geom_bond_atom_site_label_1
_geom_bond_atom_site_label_2
_geom_bond_distance
_geom_bond_site_symmetry_2
_ccdc_geom_bond_type
O1     C5      1.288   .     A
O1     Zn13    1.969   .     S
O2     C6      1.289   .     A
O2     Zn14    1.969   .     S
O3     Zn14    1.970   .     S
O3     C5      1.288   .     A
O4     Zn13    1.970   .     S
O4     C6      1.288   .     A
C5     C27     1.441   .     S
C6     C28     1.445   .     S
O7     C11     1.277   .     A
O7     Zn13    1.968   .     S
O8     C12     1.276   .     A
O8     Zn14    1.968   .     S
O9     Zn14    1.978   .     S
O9     C11     1.278   .     A
O10    C12     1.279   .     A
O10    Zn13    1.978   .     S
C11    C15     1.400   .     S
C12    C16     1.400   .     S
Zn13   N46     2.007   .     S
Zn14   N45     2.007   .     S
C15    C180    1.328   1_455 S
C15    H181    1.087   1_455 S
C16    C97     1.328   .     S
C16    H100    1.087   .     S
H17    C97     1.087   .     S
H18    C180    1.087   1_455 S
C19    H21     1.084   .     S
C19    C23     1.380   .     A
C19    C35     1.402   .     A
C20    C24     1.381   .     A
C20    H22     1.084   .     S
C20    C36     1.401   .     A
C23    C27     1.394   .     A
C23    H25     1.083   .     S
C24    H26     1.083   .     S
C24    C28     1.395   .     A
C27    C29     1.401   .     A
C28    C30     1.402   .     A
C29    C33     1.393   .     A
C29    H31     1.084   .     S
C30    C34     1.393   .     A
C30    H32     1.083   .     S
C33    N55     1.440   .     S
C33    C35     1.410   .     A
C34    C36     1.411   .     A
C34    N58     1.442   .     S
C35    C282    1.451   1_545 S
C36    C281    1.451   .     S
C37    C53     1.411   .     A
C37    H39     1.082   .     S
C37    C41     1.409   .     A
C38    H40     1.082   .     S
C38    C42     1.408   .     A
C38    C54     1.411   .     A
C41    H43     1.082   .     S
C41    N45     1.364   .     A
C42    N46     1.363   .     A
C42    H44     1.082   .     S
N45    C47     1.371   .     A
N46    C48     1.370   .     A
C47    C49     1.410   .     A
C47    O61     1.379   .     S
C48    C50     1.412   .     A
C48    O72     1.381   .     S
C49    H51     1.081   .     S
C49    C53     1.405   .     A
C50    C54     1.406   .     A
C50    H52     1.082   .     S
C53    C546    1.513   1_554 S
C54    C545    1.513   .     S
N55    O56     1.301   .     A
N55    O57     1.302   .     A
N58    O60     1.302   .     A
N58    O305    1.302   .     S
O59    N304    1.302   1_545 S
O61    C62     1.416   .     S
C62    H64     1.119   .     S
C62    H63     1.111   .     S
C62    C65     1.529   .     S
C65    H67     1.110   .     S
C65    C68     1.526   .     S
C65    H66     1.112   .     S
C68    H69     1.111   .     S
C68    H70     1.110   .     S
C68    H71     1.111   .     S
O72    C73     1.417   .     S
C73    H75     1.118   .     S
C73    H74     1.110   .     S
C73    C76     1.529   .     S
C76    H77     1.112   .     S
C76    H78     1.111   .     S
C76    C243    1.528   1_455 S
C79    H81     1.110   .     S
C79    H82     1.111   .     S
C79    H80     1.111   .     S
C79    C158    1.528   .     S
O83    C87     1.288   .     A
O83    Zn95    1.969   .     S
O84    C88     1.289   .     A
O84    Zn96    1.969   .     S
O85    Zn96    1.970   .     S
O85    C87     1.288   .     A
O86    Zn95    1.970   .     S
O86    C88     1.288   .     A
C87    C109    1.441   .     S
C88    C110    1.445   .     S
O89    C93     1.277   .     A
O89    Zn95    1.968   .     S
O90    C94     1.276   .     A
O90    Zn96    1.968   .     S
O91    Zn96    1.978   .     S
O91    C93     1.278   .     A
O92    C94     1.279   .     A
O92    Zn95    1.978   .     S
C93    C97     1.400   .     S
C94    C98     1.400   .     S
Zn95   N128    2.007   .     S
Zn96   N127    2.007   .     S
C98    C179    1.328   .     S
C98    H182    1.087   .     S
H99    C179    1.087   .     S
C101   H103    1.084   .     S
C101   C105    1.380   .     A
C101   C117    1.402   .     A
C102   C106    1.381   .     A
C102   H104    1.084   .     S
C102   C118    1.401   .     A
C105   C109    1.394   .     A
C105   H107    1.083   .     S
C106   H108    1.083   .     S
C106   C110    1.395   .     A
C109   C111    1.401   .     A
C110   C112    1.402   .     A
C111   C115    1.393   .     A
C111   H113    1.084   .     S
C112   C116    1.393   .     A
C112   H114    1.083   .     S
C115   N137    1.440   .     S
C115   C117    1.410   .     A
C116   C118    1.411   .     A
C116   N140    1.442   .     S
C117   C364    1.451   1_545 S
C118   C363    1.451   .     S
C119   C135    1.411   .     A
C119   H121    1.082   .     S
C119   C123    1.409   .     A
C120   H122    1.082   .     S
C120   C124    1.408   .     A
C120   C136    1.411   .     A
C123   H125    1.082   .     S
C123   N127    1.364   .     A
C124   N128    1.363   .     A
C124   H126    1.082   .     S
N127   C129    1.371   .     A
N128   C130    1.370   .     A
C129   C131    1.410   .     A
C129   O143    1.379   .     S
C130   C132    1.412   .     A
C130   O154    1.381   .     S
C131   H133    1.081   .     S
C131   C135    1.405   .     A
C132   C136    1.406   .     A
C132   H134    1.082   .     S
C135   C628    1.513   1_554 S
C136   C627    1.513   .     S
N137   O138    1.301   .     A
N137   O139    1.302   .     A
N140   O142    1.302   .     A
N140   O387    1.302   .     S
O141   N386    1.302   1_545 S
O143   C144    1.416   .     S
C144   H146    1.119   .     S
C144   H145    1.111   .     S
C144   C147    1.529   .     S
C147   H149    1.110   .     S
C147   C150    1.526   .     S
C147   H148    1.112   .     S
C150   H151    1.111   .     S
C150   H152    1.110   .     S
C150   H153    1.111   .     S
O154   C155    1.417   .     S
C155   H157    1.118   .     S
C155   H156    1.110   .     S
C155   C158    1.529   .     S
C158   H159    1.112   .     S
C158   H160    1.111   .     S
C161   H163    1.110   .     S
C161   H164    1.111   .     S
C161   H162    1.111   .     S
C161   C240    1.528   .     S
O165   C169    1.288   .     A
O165   Zn177   1.969   .     S
O166   C170    1.289   .     A
O166   Zn178   1.969   .     S
O167   Zn178   1.970   .     S
O167   C169    1.288   .     A
O168   Zn177   1.970   .     S
O168   C170    1.288   .     A
C169   C191    1.441   .     S
C170   C192    1.445   .     S
O171   C175    1.277   .     A
O171   Zn177   1.968   .     S
O172   C176    1.276   .     A
O172   Zn178   1.968   .     S
O173   Zn178   1.978   .     S
O173   C175    1.278   .     A
O174   C176    1.279   .     A
O174   Zn177   1.978   .     S
C175   C179    1.400   .     S
C176   C180    1.400   .     S
Zn177  N210    2.007   .     S
Zn178  N209    2.007   .     S
C180   C15     1.328   1_655 S
C180   H18     1.087   1_655 S
H181   C15     1.087   1_655 S
C183   H185    1.084   .     S
C183   C187    1.380   .     A
C183   C199    1.402   .     A
C184   C188    1.381   .     A
C184   H186    1.084   .     S
C184   C200    1.401   .     A
C187   C191    1.394   .     A
C187   H189    1.083   .     S
C188   H190    1.083   .     S
C188   C192    1.395   .     A
C191   C193    1.401   .     A
C192   C194    1.402   .     A
C193   C197    1.393   .     A
C193   H195    1.084   .     S
C194   C198    1.393   .     A
C194   H196    1.083   .     S
C197   N219    1.440   .     S
C197   C199    1.410   .     A
C198   C200    1.411   .     A
C198   N222    1.442   .     S
C199   C446    1.451   1_545 S
C200   C445    1.451   .     S
C201   C217    1.411   .     A
C201   H203    1.082   .     S
C201   C205    1.409   .     A
C202   H204    1.082   .     S
C202   C206    1.408   .     A
C202   C218    1.411   .     A
C205   H207    1.082   .     S
C205   N209    1.364   .     A
C206   N210    1.363   .     A
C206   H208    1.082   .     S
N209   C211    1.371   .     A
N210   C212    1.370   .     A
C211   C213    1.410   .     A
C211   O225    1.379   .     S
C212   C214    1.412   .     A
C212   O236    1.381   .     S
C213   H215    1.081   .     S
C213   C217    1.405   .     A
C214   C218    1.406   .     A
C214   H216    1.082   .     S
C217   C710    1.513   1_554 S
C218   C709    1.513   .     S
N219   O220    1.301   .     A
N219   O221    1.302   .     A
N222   O224    1.302   .     A
N222   O469    1.302   .     S
O223   N468    1.302   1_545 S
O225   C226    1.416   .     S
C226   H228    1.119   .     S
C226   H227    1.111   .     S
C226   C229    1.529   .     S
C229   H231    1.110   .     S
C229   C232    1.526   .     S
C229   H230    1.112   .     S
C232   H233    1.111   .     S
C232   H234    1.110   .     S
C232   H235    1.111   .     S
O236   C237    1.417   .     S
C237   H239    1.118   .     S
C237   H238    1.110   .     S
C237   C240    1.529   .     S
C240   H241    1.112   .     S
C240   H242    1.111   .     S
C243   H245    1.110   .     S
C243   H246    1.111   .     S
C243   H244    1.111   .     S
C243   C76     1.528   1_655 S
O247   C251    1.288   .     A
O247   Zn259   1.969   .     S
O248   C252    1.289   .     A
O248   Zn260   1.969   .     S
O249   Zn260   1.970   .     S
O249   C251    1.288   .     A
O250   Zn259   1.970   .     S
O250   C252    1.288   .     A
C251   C273    1.441   .     S
C252   C274    1.445   .     S
O253   C257    1.277   .     A
O253   Zn259   1.968   .     S
O254   C258    1.276   .     A
O254   Zn260   1.968   .     S
O255   Zn260   1.978   .     S
O255   C257    1.278   .     A
O256   C258    1.279   .     A
O256   Zn259   1.978   .     S
C257   C261    1.400   .     S
C258   C262    1.400   .     S
Zn259  N292    2.007   .     S
Zn260  N291    2.007   .     S
C261   C426    1.328   1_455 S
C261   H427    1.087   1_455 S
C262   C343    1.328   .     S
C262   H346    1.087   .     S
H263   C343    1.087   .     S
H264   C426    1.087   1_455 S
C265   H267    1.084   .     S
C265   C269    1.380   .     A
C265   C281    1.402   .     A
C266   C270    1.381   .     A
C266   H268    1.084   .     S
C266   C282    1.401   .     A
C269   C273    1.394   .     A
C269   H271    1.083   .     S
C270   H272    1.083   .     S
C270   C274    1.395   .     A
C273   C275    1.401   .     A
C274   C276    1.402   .     A
C275   C279    1.393   .     A
C275   H277    1.084   .     S
C276   C280    1.393   .     A
C276   H278    1.083   .     S
C279   N301    1.440   .     S
C279   C281    1.410   .     A
C280   C282    1.411   .     A
C280   N304    1.442   .     S
C282   C35     1.451   1_565 S
C283   C299    1.411   .     A
C283   H285    1.082   .     S
C283   C287    1.409   .     A
C284   H286    1.082   .     S
C284   C288    1.408   .     A
C284   C300    1.411   .     A
C287   H289    1.082   .     S
C287   N291    1.364   .     A
C288   N292    1.363   .     A
C288   H290    1.082   .     S
N291   C293    1.371   .     A
N292   C294    1.370   .     A
C293   C295    1.410   .     A
C293   O307    1.379   .     S
C294   C296    1.412   .     A
C294   O318    1.381   .     S
C295   H297    1.081   .     S
C295   C299    1.405   .     A
C296   C300    1.406   .     A
C296   H298    1.082   .     S
C299   C792    1.513   1_554 S
C300   C791    1.513   .     S
N301   O302    1.301   .     A
N301   O303    1.302   .     A
N304   O306    1.302   .     A
N304   O59     1.302   1_565 S
O307   C308    1.416   .     S
C308   H310    1.119   .     S
C308   H309    1.111   .     S
C308   C311    1.529   .     S
C311   H313    1.110   .     S
C311   C314    1.526   .     S
C311   H312    1.112   .     S
C314   H315    1.111   .     S
C314   H316    1.110   .     S
C314   H317    1.111   .     S
O318   C319    1.417   .     S
C319   H321    1.118   .     S
C319   H320    1.110   .     S
C319   C322    1.529   .     S
C322   H323    1.112   .     S
C322   H324    1.111   .     S
C322   C489    1.528   1_455 S
C325   H327    1.110   .     S
C325   H328    1.111   .     S
C325   H326    1.111   .     S
C325   C404    1.528   .     S
O329   C333    1.288   .     A
O329   Zn341   1.969   .     S
O330   C334    1.289   .     A
O330   Zn342   1.969   .     S
O331   Zn342   1.970   .     S
O331   C333    1.288   .     A
O332   Zn341   1.970   .     S
O332   C334    1.288   .     A
C333   C355    1.441   .     S
C334   C356    1.445   .     S
O335   C339    1.277   .     A
O335   Zn341   1.968   .     S
O336   C340    1.276   .     A
O336   Zn342   1.968   .     S
O337   Zn342   1.978   .     S
O337   C339    1.278   .     A
O338   C340    1.279   .     A
O338   Zn341   1.978   .     S
C339   C343    1.400   .     S
C340   C344    1.400   .     S
Zn341  N374    2.007   .     S
Zn342  N373    2.007   .     S
C344   C425    1.328   .     S
C344   H428    1.087   .     S
H345   C425    1.087   .     S
C347   H349    1.084   .     S
C347   C351    1.380   .     A
C347   C363    1.402   .     A
C348   C352    1.381   .     A
C348   H350    1.084   .     S
C348   C364    1.401   .     A
C351   C355    1.394   .     A
C351   H353    1.083   .     S
C352   H354    1.083   .     S
C352   C356    1.395   .     A
C355   C357    1.401   .     A
C356   C358    1.402   .     A
C357   C361    1.393   .     A
C357   H359    1.084   .     S
C358   C362    1.393   .     A
C358   H360    1.083   .     S
C361   N383    1.440   .     S
C361   C363    1.410   .     A
C362   C364    1.411   .     A
C362   N386    1.442   .     S
C364   C117    1.451   1_565 S
C365   C381    1.411   .     A
C365   H367    1.082   .     S
C365   C369    1.409   .     A
C366   H368    1.082   .     S
C366   C370    1.408   .     A
C366   C382    1.411   .     A
C369   H371    1.082   .     S
C369   N373    1.364   .     A
C370   N374    1.363   .     A
C370   H372    1.082   .     S
N373   C375    1.371   .     A
N374   C376    1.370   .     A
C375   C377    1.410   .     A
C375   O389    1.379   .     S
C376   C378    1.412   .     A
C376   O400    1.381   .     S
C377   H379    1.081   .     S
C377   C381    1.405   .     A
C378   C382    1.406   .     A
C378   H380    1.082   .     S
C381   C874    1.513   1_554 S
C382   C873    1.513   .     S
N383   O384    1.301   .     A
N383   O385    1.302   .     A
N386   O388    1.302   .     A
N386   O141    1.302   1_565 S
O389   C390    1.416   .     S
C390   H392    1.119   .     S
C390   H391    1.111   .     S
C390   C393    1.529   .     S
C393   H395    1.110   .     S
C393   C396    1.526   .     S
C393   H394    1.112   .     S
C396   H397    1.111   .     S
C396   H398    1.110   .     S
C396   H399    1.111   .     S
O400   C401    1.417   .     S
C401   H403    1.118   .     S
C401   H402    1.110   .     S
C401   C404    1.529   .     S
C404   H405    1.112   .     S
C404   H406    1.111   .     S
C407   H409    1.110   .     S
C407   H410    1.111   .     S
C407   H408    1.111   .     S
C407   C486    1.528   .     S
O411   C415    1.288   .     A
O411   Zn423   1.969   .     S
O412   C416    1.289   .     A
O412   Zn424   1.969   .     S
O413   Zn424   1.970   .     S
O413   C415    1.288   .     A
O414   Zn423   1.970   .     S
O414   C416    1.288   .     A
C415   C437    1.441   .     S
C416   C438    1.445   .     S
O417   C421    1.277   .     A
O417   Zn423   1.968   .     S
O418   C422    1.276   .     A
O418   Zn424   1.968   .     S
O419   Zn424   1.978   .     S
O419   C421    1.278   .     A
O420   C422    1.279   .     A
O420   Zn423   1.978   .     S
C421   C425    1.400   .     S
C422   C426    1.400   .     S
Zn423  N456    2.007   .     S
Zn424  N455    2.007   .     S
C426   C261    1.328   1_655 S
C426   H264    1.087   1_655 S
H427   C261    1.087   1_655 S
C429   H431    1.084   .     S
C429   C433    1.380   .     A
C429   C445    1.402   .     A
C430   C434    1.381   .     A
C430   H432    1.084   .     S
C430   C446    1.401   .     A
C433   C437    1.394   .     A
C433   H435    1.083   .     S
C434   H436    1.083   .     S
C434   C438    1.395   .     A
C437   C439    1.401   .     A
C438   C440    1.402   .     A
C439   C443    1.393   .     A
C439   H441    1.084   .     S
C440   C444    1.393   .     A
C440   H442    1.083   .     S
C443   N465    1.440   .     S
C443   C445    1.410   .     A
C444   C446    1.411   .     A
C444   N468    1.442   .     S
C446   C199    1.451   1_565 S
C447   C463    1.411   .     A
C447   H449    1.082   .     S
C447   C451    1.409   .     A
C448   H450    1.082   .     S
C448   C452    1.408   .     A
C448   C464    1.411   .     A
C451   H453    1.082   .     S
C451   N455    1.364   .     A
C452   N456    1.363   .     A
C452   H454    1.082   .     S
N455   C457    1.371   .     A
N456   C458    1.370   .     A
C457   C459    1.410   .     A
C457   O471    1.379   .     S
C458   C460    1.412   .     A
C458   O482    1.381   .     S
C459   H461    1.081   .     S
C459   C463    1.405   .     A
C460   C464    1.406   .     A
C460   H462    1.082   .     S
C463   C956    1.513   1_554 S
C464   C955    1.513   .     S
N465   O466    1.301   .     A
N465   O467    1.302   .     A
N468   O470    1.302   .     A
N468   O223    1.302   1_565 S
O471   C472    1.416   .     S
C472   H474    1.119   .     S
C472   H473    1.111   .     S
C472   C475    1.529   .     S
C475   H477    1.110   .     S
C475   C478    1.526   .     S
C475   H476    1.112   .     S
C478   H479    1.111   .     S
C478   H480    1.110   .     S
C478   H481    1.111   .     S
O482   C483    1.417   .     S
C483   H485    1.118   .     S
C483   H484    1.110   .     S
C483   C486    1.529   .     S
C486   H487    1.112   .     S
C486   H488    1.111   .     S
C489   H491    1.110   .     S
C489   H492    1.111   .     S
C489   H490    1.111   .     S
C489   C322    1.528   1_655 S
O493   C497    1.288   .     A
O493   Zn505   1.969   .     S
O494   C498    1.289   .     A
O494   Zn506   1.969   .     S
O495   Zn506   1.970   .     S
O495   C497    1.288   .     A
O496   Zn505   1.970   .     S
O496   C498    1.288   .     A
C497   C519    1.441   .     S
C498   C520    1.445   .     S
O499   C503    1.277   .     A
O499   Zn505   1.968   .     S
O500   C504    1.276   .     A
O500   Zn506   1.968   .     S
O501   Zn506   1.978   .     S
O501   C503    1.278   .     A
O502   C504    1.279   .     A
O502   Zn505   1.978   .     S
C503   C507    1.400   .     S
C504   C508    1.400   .     S
Zn505  N538    2.007   .     S
Zn506  N537    2.007   .     S
C507   C672    1.328   1_455 S
C507   H673    1.087   1_455 S
C508   C589    1.328   .     S
C508   H592    1.087   .     S
H509   C589    1.087   .     S
H510   C672    1.087   1_455 S
C511   H513    1.084   .     S
C511   C515    1.380   .     A
C511   C527    1.402   .     A
C512   C516    1.381   .     A
C512   H514    1.084   .     S
C512   C528    1.401   .     A
C515   C519    1.394   .     A
C515   H517    1.083   .     S
C516   H518    1.083   .     S
C516   C520    1.395   .     A
C519   C521    1.401   .     A
C520   C522    1.402   .     A
C521   C525    1.393   .     A
C521   H523    1.084   .     S
C522   C526    1.393   .     A
C522   H524    1.083   .     S
C525   N547    1.440   .     S
C525   C527    1.410   .     A
C526   C528    1.411   .     A
C526   N550    1.442   .     S
C527   C774    1.451   1_545 S
C528   C773    1.451   .     S
C529   C545    1.411   .     A
C529   H531    1.082   .     S
C529   C533    1.409   .     A
C530   H532    1.082   .     S
C530   C534    1.408   .     A
C530   C546    1.411   .     A
C533   H535    1.082   .     S
C533   N537    1.364   .     A
C534   N538    1.363   .     A
C534   H536    1.082   .     S
N537   C539    1.371   .     A
N538   C540    1.370   .     A
C539   C541    1.410   .     A
C539   O553    1.379   .     S
C540   C542    1.412   .     A
C540   O564    1.381   .     S
C541   H543    1.081   .     S
C541   C545    1.405   .     A
C542   C546    1.406   .     A
C542   H544    1.082   .     S
C546   C53     1.513   1_556 S
N547   O548    1.301   .     A
N547   O549    1.302   .     A
N550   O552    1.302   .     A
N550   O797    1.302   .     S
O551   N796    1.302   1_545 S
O553   C554    1.416   .     S
C554   H556    1.119   .     S
C554   H555    1.111   .     S
C554   C557    1.529   .     S
C557   H559    1.110   .     S
C557   C560    1.526   .     S
C557   H558    1.112   .     S
C560   H561    1.111   .     S
C560   H562    1.110   .     S
C560   H563    1.111   .     S
O564   C565    1.417   .     S
C565   H567    1.118   .     S
C565   H566    1.110   .     S
C565   C568    1.529   .     S
C568   H569    1.112   .     S
C568   H570    1.111   .     S
C568   C735    1.528   1_455 S
C571   H573    1.110   .     S
C571   H574    1.111   .     S
C571   H572    1.111   .     S
C571   C650    1.528   .     S
O575   C579    1.288   .     A
O575   Zn587   1.969   .     S
O576   C580    1.289   .     A
O576   Zn588   1.969   .     S
O577   Zn588   1.970   .     S
O577   C579    1.288   .     A
O578   Zn587   1.970   .     S
O578   C580    1.288   .     A
C579   C601    1.441   .     S
C580   C602    1.445   .     S
O581   C585    1.277   .     A
O581   Zn587   1.968   .     S
O582   C586    1.276   .     A
O582   Zn588   1.968   .     S
O583   Zn588   1.978   .     S
O583   C585    1.278   .     A
O584   C586    1.279   .     A
O584   Zn587   1.978   .     S
C585   C589    1.400   .     S
C586   C590    1.400   .     S
Zn587  N620    2.007   .     S
Zn588  N619    2.007   .     S
C590   C671    1.328   .     S
C590   H674    1.087   .     S
H591   C671    1.087   .     S
C593   H595    1.084   .     S
C593   C597    1.380   .     A
C593   C609    1.402   .     A
C594   C598    1.381   .     A
C594   H596    1.084   .     S
C594   C610    1.401   .     A
C597   C601    1.394   .     A
C597   H599    1.083   .     S
C598   H600    1.083   .     S
C598   C602    1.395   .     A
C601   C603    1.401   .     A
C602   C604    1.402   .     A
C603   C607    1.393   .     A
C603   H605    1.084   .     S
C604   C608    1.393   .     A
C604   H606    1.083   .     S
C607   N629    1.440   .     S
C607   C609    1.410   .     A
C608   C610    1.411   .     A
C608   N632    1.442   .     S
C609   C856    1.451   1_545 S
C610   C855    1.451   .     S
C611   C627    1.411   .     A
C611   H613    1.082   .     S
C611   C615    1.409   .     A
C612   H614    1.082   .     S
C612   C616    1.408   .     A
C612   C628    1.411   .     A
C615   H617    1.082   .     S
C615   N619    1.364   .     A
C616   N620    1.363   .     A
C616   H618    1.082   .     S
N619   C621    1.371   .     A
N620   C622    1.370   .     A
C621   C623    1.410   .     A
C621   O635    1.379   .     S
C622   C624    1.412   .     A
C622   O646    1.381   .     S
C623   H625    1.081   .     S
C623   C627    1.405   .     A
C624   C628    1.406   .     A
C624   H626    1.082   .     S
C628   C135    1.513   1_556 S
N629   O630    1.301   .     A
N629   O631    1.302   .     A
N632   O634    1.302   .     A
N632   O879    1.302   .     S
O633   N878    1.302   1_545 S
O635   C636    1.416   .     S
C636   H638    1.119   .     S
C636   H637    1.111   .     S
C636   C639    1.529   .     S
C639   H641    1.110   .     S
C639   C642    1.526   .     S
C639   H640    1.112   .     S
C642   H643    1.111   .     S
C642   H644    1.110   .     S
C642   H645    1.111   .     S
O646   C647    1.417   .     S
C647   H649    1.118   .     S
C647   H648    1.110   .     S
C647   C650    1.529   .     S
C650   H651    1.112   .     S
C650   H652    1.111   .     S
C653   H655    1.110   .     S
C653   H656    1.111   .     S
C653   H654    1.111   .     S
C653   C732    1.528   .     S
O657   C661    1.288   .     A
O657   Zn669   1.969   .     S
O658   C662    1.289   .     A
O658   Zn670   1.969   .     S
O659   Zn670   1.970   .     S
O659   C661    1.288   .     A
O660   Zn669   1.970   .     S
O660   C662    1.288   .     A
C661   C683    1.441   .     S
C662   C684    1.445   .     S
O663   C667    1.277   .     A
O663   Zn669   1.968   .     S
O664   C668    1.276   .     A
O664   Zn670   1.968   .     S
O665   Zn670   1.978   .     S
O665   C667    1.278   .     A
O666   C668    1.279   .     A
O666   Zn669   1.978   .     S
C667   C671    1.400   .     S
C668   C672    1.400   .     S
Zn669  N702    2.007   .     S
Zn670  N701    2.007   .     S
C672   C507    1.328   1_655 S
C672   H510    1.087   1_655 S
H673   C507    1.087   1_655 S
C675   H677    1.084   .     S
C675   C679    1.380   .     A
C675   C691    1.402   .     A
C676   C680    1.381   .     A
C676   H678    1.084   .     S
C676   C692    1.401   .     A
C679   C683    1.394   .     A
C679   H681    1.083   .     S
C680   H682    1.083   .     S
C680   C684    1.395   .     A
C683   C685    1.401   .     A
C684   C686    1.402   .     A
C685   C689    1.393   .     A
C685   H687    1.084   .     S
C686   C690    1.393   .     A
C686   H688    1.083   .     S
C689   N711    1.440   .     S
C689   C691    1.410   .     A
C690   C692    1.411   .     A
C690   N714    1.442   .     S
C691   C938    1.451   1_545 S
C692   C937    1.451   .     S
C693   C709    1.411   .     A
C693   H695    1.082   .     S
C693   C697    1.409   .     A
C694   H696    1.082   .     S
C694   C698    1.408   .     A
C694   C710    1.411   .     A
C697   H699    1.082   .     S
C697   N701    1.364   .     A
C698   N702    1.363   .     A
C698   H700    1.082   .     S
N701   C703    1.371   .     A
N702   C704    1.370   .     A
C703   C705    1.410   .     A
C703   O717    1.379   .     S
C704   C706    1.412   .     A
C704   O728    1.381   .     S
C705   H707    1.081   .     S
C705   C709    1.405   .     A
C706   C710    1.406   .     A
C706   H708    1.082   .     S
C710   C217    1.513   1_556 S
N711   O712    1.301   .     A
N711   O713    1.302   .     A
N714   O716    1.302   .     A
N714   O961    1.302   .     S
O715   N960    1.302   1_545 S
O717   C718    1.416   .     S
C718   H720    1.119   .     S
C718   H719    1.111   .     S
C718   C721    1.529   .     S
C721   H723    1.110   .     S
C721   C724    1.526   .     S
C721   H722    1.112   .     S
C724   H725    1.111   .     S
C724   H726    1.110   .     S
C724   H727    1.111   .     S
O728   C729    1.417   .     S
C729   H731    1.118   .     S
C729   H730    1.110   .     S
C729   C732    1.529   .     S
C732   H733    1.112   .     S
C732   H734    1.111   .     S
C735   H737    1.110   .     S
C735   H738    1.111   .     S
C735   H736    1.111   .     S
C735   C568    1.528   1_655 S
O739   C743    1.288   .     A
O739   Zn751   1.969   .     S
O740   C744    1.289   .     A
O740   Zn752   1.969   .     S
O741   Zn752   1.970   .     S
O741   C743    1.288   .     A
O742   Zn751   1.970   .     S
O742   C744    1.288   .     A
C743   C765    1.441   .     S
C744   C766    1.445   .     S
O745   C749    1.277   .     A
O745   Zn751   1.968   .     S
O746   C750    1.276   .     A
O746   Zn752   1.968   .     S
O747   Zn752   1.978   .     S
O747   C749    1.278   .     A
O748   C750    1.279   .     A
O748   Zn751   1.978   .     S
C749   C753    1.400   .     S
C750   C754    1.400   .     S
Zn751  N784    2.007   .     S
Zn752  N783    2.007   .     S
C753   C918    1.328   1_455 S
C753   H919    1.087   1_455 S
C754   C835    1.328   .     S
C754   H838    1.087   .     S
H755   C835    1.087   .     S
H756   C918    1.087   1_455 S
C757   H759    1.084   .     S
C757   C761    1.380   .     A
C757   C773    1.402   .     A
C758   C762    1.381   .     A
C758   H760    1.084   .     S
C758   C774    1.401   .     A
C761   C765    1.394   .     A
C761   H763    1.083   .     S
C762   H764    1.083   .     S
C762   C766    1.395   .     A
C765   C767    1.401   .     A
C766   C768    1.402   .     A
C767   C771    1.393   .     A
C767   H769    1.084   .     S
C768   C772    1.393   .     A
C768   H770    1.083   .     S
C771   N793    1.440   .     S
C771   C773    1.410   .     A
C772   C774    1.411   .     A
C772   N796    1.442   .     S
C774   C527    1.451   1_565 S
C775   C791    1.411   .     A
C775   H777    1.082   .     S
C775   C779    1.409   .     A
C776   H778    1.082   .     S
C776   C780    1.408   .     A
C776   C792    1.411   .     A
C779   H781    1.082   .     S
C779   N783    1.364   .     A
C780   N784    1.363   .     A
C780   H782    1.082   .     S
N783   C785    1.371   .     A
N784   C786    1.370   .     A
C785   C787    1.410   .     A
C785   O799    1.379   .     S
C786   C788    1.412   .     A
C786   O810    1.381   .     S
C787   H789    1.081   .     S
C787   C791    1.405   .     A
C788   C792    1.406   .     A
C788   H790    1.082   .     S
C792   C299    1.513   1_556 S
N793   O794    1.301   .     A
N793   O795    1.302   .     A
N796   O798    1.302   .     A
N796   O551    1.302   1_565 S
O799   C800    1.416   .     S
C800   H802    1.119   .     S
C800   H801    1.111   .     S
C800   C803    1.529   .     S
C803   H805    1.110   .     S
C803   C806    1.526   .     S
C803   H804    1.112   .     S
C806   H807    1.111   .     S
C806   H808    1.110   .     S
C806   H809    1.111   .     S
O810   C811    1.417   .     S
C811   H813    1.118   .     S
C811   H812    1.110   .     S
C811   C814    1.529   .     S
C814   H815    1.112   .     S
C814   H816    1.111   .     S
C814   C981    1.528   1_455 S
C817   H819    1.110   .     S
C817   H820    1.111   .     S
C817   H818    1.111   .     S
C817   C896    1.528   .     S
O821   C825    1.288   .     A
O821   Zn833   1.969   .     S
O822   C826    1.289   .     A
O822   Zn834   1.969   .     S
O823   Zn834   1.970   .     S
O823   C825    1.288   .     A
O824   Zn833   1.970   .     S
O824   C826    1.288   .     A
C825   C847    1.441   .     S
C826   C848    1.445   .     S
O827   C831    1.277   .     A
O827   Zn833   1.968   .     S
O828   C832    1.276   .     A
O828   Zn834   1.968   .     S
O829   Zn834   1.978   .     S
O829   C831    1.278   .     A
O830   C832    1.279   .     A
O830   Zn833   1.978   .     S
C831   C835    1.400   .     S
C832   C836    1.400   .     S
Zn833  N866    2.007   .     S
Zn834  N865    2.007   .     S
C836   C917    1.328   .     S
C836   H920    1.087   .     S
H837   C917    1.087   .     S
C839   H841    1.084   .     S
C839   C843    1.380   .     A
C839   C855    1.402   .     A
C840   C844    1.381   .     A
C840   H842    1.084   .     S
C840   C856    1.401   .     A
C843   C847    1.394   .     A
C843   H845    1.083   .     S
C844   H846    1.083   .     S
C844   C848    1.395   .     A
C847   C849    1.401   .     A
C848   C850    1.402   .     A
C849   C853    1.393   .     A
C849   H851    1.084   .     S
C850   C854    1.393   .     A
C850   H852    1.083   .     S
C853   N875    1.440   .     S
C853   C855    1.410   .     A
C854   C856    1.411   .     A
C854   N878    1.442   .     S
C856   C609    1.451   1_565 S
C857   C873    1.411   .     A
C857   H859    1.082   .     S
C857   C861    1.409   .     A
C858   H860    1.082   .     S
C858   C862    1.408   .     A
C858   C874    1.411   .     A
C861   H863    1.082   .     S
C861   N865    1.364   .     A
C862   N866    1.363   .     A
C862   H864    1.082   .     S
N865   C867    1.371   .     A
N866   C868    1.370   .     A
C867   C869    1.410   .     A
C867   O881    1.379   .     S
C868   C870    1.412   .     A
C868   O892    1.381   .     S
C869   H871    1.081   .     S
C869   C873    1.405   .     A
C870   C874    1.406   .     A
C870   H872    1.082   .     S
C874   C381    1.513   1_556 S
N875   O876    1.301   .     A
N875   O877    1.302   .     A
N878   O880    1.302   .     A
N878   O633    1.302   1_565 S
O881   C882    1.416   .     S
C882   H884    1.119   .     S
C882   H883    1.111   .     S
C882   C885    1.529   .     S
C885   H887    1.110   .     S
C885   C888    1.526   .     S
C885   H886    1.112   .     S
C888   H889    1.111   .     S
C888   H890    1.110   .     S
C888   H891    1.111   .     S
O892   C893    1.417   .     S
C893   H895    1.118   .     S
C893   H894    1.110   .     S
C893   C896    1.529   .     S
C896   H897    1.112   .     S
C896   H898    1.111   .     S
C899   H901    1.110   .     S
C899   H902    1.111   .     S
C899   H900    1.111   .     S
C899   C978    1.528   .     S
O903   C907    1.288   .     A
O903   Zn915   1.969   .     S
O904   C908    1.289   .     A
O904   Zn916   1.969   .     S
O905   Zn916   1.970   .     S
O905   C907    1.288   .     A
O906   Zn915   1.970   .     S
O906   C908    1.288   .     A
C907   C929    1.441   .     S
C908   C930    1.445   .     S
O909   C913    1.277   .     A
O909   Zn915   1.968   .     S
O910   C914    1.276   .     A
O910   Zn916   1.968   .     S
O911   Zn916   1.978   .     S
O911   C913    1.278   .     A
O912   C914    1.279   .     A
O912   Zn915   1.978   .     S
C913   C917    1.400   .     S
C914   C918    1.400   .     S
Zn915  N948    2.007   .     S
Zn916  N947    2.007   .     S
C918   C753    1.328   1_655 S
C918   H756    1.087   1_655 S
H919   C753    1.087   1_655 S
C921   H923    1.084   .     S
C921   C925    1.380   .     A
C921   C937    1.402   .     A
C922   C926    1.381   .     A
C922   H924    1.084   .     S
C922   C938    1.401   .     A
C925   C929    1.394   .     A
C925   H927    1.083   .     S
C926   H928    1.083   .     S
C926   C930    1.395   .     A
C929   C931    1.401   .     A
C930   C932    1.402   .     A
C931   C935    1.393   .     A
C931   H933    1.084   .     S
C932   C936    1.393   .     A
C932   H934    1.083   .     S
C935   N957    1.440   .     S
C935   C937    1.410   .     A
C936   C938    1.411   .     A
C936   N960    1.442   .     S
C938   C691    1.451   1_565 S
C939   C955    1.411   .     A
C939   H941    1.082   .     S
C939   C943    1.409   .     A
C940   H942    1.082   .     S
C940   C944    1.408   .     A
C940   C956    1.411   .     A
C943   H945    1.082   .     S
C943   N947    1.364   .     A
C944   N948    1.363   .     A
C944   H946    1.082   .     S
N947   C949    1.371   .     A
N948   C950    1.370   .     A
C949   C951    1.410   .     A
C949   O963    1.379   .     S
C950   C952    1.412   .     A
C950   O974    1.381   .     S
C951   H953    1.081   .     S
C951   C955    1.405   .     A
C952   C956    1.406   .     A
C952   H954    1.082   .     S
C956   C463    1.513   1_556 S
N957   O958    1.301   .     A
N957   O959    1.302   .     A
N960   O962    1.302   .     A
N960   O715    1.302   1_565 S
O963   C964    1.416   .     S
C964   H966    1.119   .     S
C964   H965    1.111   .     S
C964   C967    1.529   .     S
C967   H969    1.110   .     S
C967   C970    1.526   .     S
C967   H968    1.112   .     S
C970   H971    1.111   .     S
C970   H972    1.110   .     S
C970   H973    1.111   .     S
O974   C975    1.417   .     S
C975   H977    1.118   .     S
C975   H976    1.110   .     S
C975   C978    1.529   .     S
C978   H979    1.112   .     S
C978   H980    1.111   .     S
C981   H983    1.110   .     S
C981   H984    1.111   .     S
C981   H982    1.111   .     S
C981   C814    1.528   1_655 S
