data_str_m3_o1_o5_pcu_sym.57
_audit_creation_date              2020-01-03
_audit_creation_method            'Materials Studio'
_symmetry_space_group_name_H-M    'P1'
_symmetry_Int_Tables_number       1
_symmetry_cell_setting            triclinic
loop_
_symmetry_equiv_pos_as_xyz
  x,y,z
_cell_length_a                    31.9950
_cell_length_b                    29.6066
_cell_length_c                    26.7282
_cell_angle_alpha                 90.0569
_cell_angle_beta                  90.3170
_cell_angle_gamma                 90.2449
loop_
_atom_site_label
_atom_site_type_symbol
_atom_site_fract_x
_atom_site_fract_y
_atom_site_fract_z
_atom_site_U_iso_or_equiv
_atom_site_adp_type
_atom_site_occupancy
O1     O     0.10559   0.20487   0.16666   0.00000  Uiso   1.00
O2     O     0.22774   0.12846   0.16667   0.00000  Uiso   1.00
O3     O     0.22774   0.20487   0.16667   0.00000  Uiso   1.00
O4     O     0.10559   0.12846   0.16666   0.00000  Uiso   1.00
C5     C     0.08679   0.16655   0.16636   0.00000  Uiso   1.00
C6     C     0.24654   0.16678   0.16699   0.00000  Uiso   1.00
O7     O     0.16667   0.20488   0.09511   0.00000  Uiso   1.00
O8     O     0.16666   0.12845   0.23822   0.00000  Uiso   1.00
O9     O     0.16666   0.20488   0.23822   0.00000  Uiso   1.00
O10    O     0.16667   0.12845   0.09511   0.00000  Uiso   1.00
C11    C     0.16679   0.16665   0.07290   0.00000  Uiso   1.00
C12    C     0.16652   0.16668   0.26044   0.00000  Uiso   1.00
Zn13   Zn    0.16667   0.21771   0.16667   0.00000  Uiso   1.00
Zn14   Zn    0.16667   0.11563   0.16667   0.00000  Uiso   1.00
C15    C     0.16671   0.16664   0.02180   0.00000  Uiso   1.00
C16    C     0.16659   0.16669   0.31154   0.00000  Uiso   1.00
C17    C     0.02182   0.14164   0.20322   0.00000  Uiso   1.00
C18    C     0.31151   0.19169   0.13012   0.00000  Uiso   1.00
C19    C     0.31194   0.14223   0.20417   0.00000  Uiso   1.00
C20    C     0.02139   0.19111   0.12920   0.00000  Uiso   1.00
C21    C     0.29070   0.16713   0.16737   0.00000  Uiso   1.00
C22    C     0.04264   0.16619   0.16597   0.00000  Uiso   1.00
C23    C     0.19361   0.02410   0.19667   0.00000  Uiso   1.00
C24    C     0.13973   0.30923   0.13667   0.00000  Uiso   1.00
C25    C     0.13971   0.02380   0.13668   0.00000  Uiso   1.00
C26    C     0.19362   0.30954   0.19665   0.00000  Uiso   1.00
H27    H     0.21515   0.04231   0.22071   0.00000  Uiso   1.00
H28    H     0.11819   0.29102   0.11262   0.00000  Uiso   1.00
H29    H     0.11813   0.04176   0.11267   0.00000  Uiso   1.00
H30    H     0.21520   0.29157   0.22066   0.00000  Uiso   1.00
N31    N     0.16667   0.28573   0.16667   0.00000  Uiso   1.00
N32    N     0.16667   0.04760   0.16667   0.00000  Uiso   1.00
N33    N     0.04464   0.11918   0.24219   0.00000  Uiso   1.00
O34    O     0.05109   0.07590   0.23950   0.00000  Uiso   1.00
O35    O     0.06288   0.14271   0.27722   0.00000  Uiso   1.00
N36    N     0.28870   0.21414   0.09113   0.00000  Uiso   1.00
O37    O     0.26975   0.19056   0.05667   0.00000  Uiso   1.00
O38    O     0.28296   0.25757   0.09331   0.00000  Uiso   1.00
N39    N     0.28984   0.11996   0.24390   0.00000  Uiso   1.00
O40    O     0.26386   0.14248   0.27155   0.00000  Uiso   1.00
O41    O     0.29672   0.07762   0.25376   0.00000  Uiso   1.00
N42    N     0.04351   0.21334   0.08945   0.00000  Uiso   1.00
O43    O     0.03702   0.25583   0.07996   0.00000  Uiso   1.00
O44    O     0.06930   0.19073   0.06164   0.00000  Uiso   1.00
O45    O     0.43892   0.20487   0.16666   0.00000  Uiso   1.00
O46    O     0.56108   0.12846   0.16667   0.00000  Uiso   1.00
O47    O     0.56108   0.20487   0.16667   0.00000  Uiso   1.00
O48    O     0.43892   0.12846   0.16666   0.00000  Uiso   1.00
C49    C     0.42013   0.16655   0.16636   0.00000  Uiso   1.00
C50    C     0.57987   0.16678   0.16699   0.00000  Uiso   1.00
O51    O     0.50000   0.20488   0.09511   0.00000  Uiso   1.00
O52    O     0.50000   0.12845   0.23822   0.00000  Uiso   1.00
O53    O     0.50000   0.20488   0.23822   0.00000  Uiso   1.00
O54    O     0.50000   0.12845   0.09511   0.00000  Uiso   1.00
C55    C     0.50013   0.16665   0.07290   0.00000  Uiso   1.00
C56    C     0.49985   0.16668   0.26044   0.00000  Uiso   1.00
Zn57   Zn    0.50000   0.21771   0.16667   0.00000  Uiso   1.00
Zn58   Zn    0.50000   0.11563   0.16667   0.00000  Uiso   1.00
C59    C     0.50004   0.16664   0.02180   0.00000  Uiso   1.00
C60    C     0.49993   0.16669   0.31154   0.00000  Uiso   1.00
C61    C     0.35516   0.14164   0.20322   0.00000  Uiso   1.00
C62    C     0.64485   0.19169   0.13012   0.00000  Uiso   1.00
C63    C     0.64528   0.14223   0.20417   0.00000  Uiso   1.00
C64    C     0.35473   0.19111   0.12920   0.00000  Uiso   1.00
C65    C     0.62403   0.16713   0.16737   0.00000  Uiso   1.00
C66    C     0.37597   0.16619   0.16597   0.00000  Uiso   1.00
C67    C     0.52694   0.02410   0.19667   0.00000  Uiso   1.00
C68    C     0.47306   0.30923   0.13667   0.00000  Uiso   1.00
C69    C     0.47305   0.02380   0.13668   0.00000  Uiso   1.00
C70    C     0.52695   0.30954   0.19665   0.00000  Uiso   1.00
H71    H     0.54849   0.04231   0.22071   0.00000  Uiso   1.00
H72    H     0.45152   0.29102   0.11262   0.00000  Uiso   1.00
H73    H     0.45147   0.04176   0.11267   0.00000  Uiso   1.00
H74    H     0.54853   0.29157   0.22066   0.00000  Uiso   1.00
N75    N     0.50000   0.28573   0.16667   0.00000  Uiso   1.00
N76    N     0.50000   0.04760   0.16667   0.00000  Uiso   1.00
N77    N     0.37797   0.11918   0.24219   0.00000  Uiso   1.00
O78    O     0.38443   0.07590   0.23950   0.00000  Uiso   1.00
O79    O     0.39621   0.14271   0.27722   0.00000  Uiso   1.00
N80    N     0.62204   0.21414   0.09113   0.00000  Uiso   1.00
O81    O     0.60308   0.19056   0.05667   0.00000  Uiso   1.00
O82    O     0.61629   0.25757   0.09331   0.00000  Uiso   1.00
N83    N     0.62317   0.11996   0.24390   0.00000  Uiso   1.00
O84    O     0.59719   0.14248   0.27155   0.00000  Uiso   1.00
O85    O     0.63005   0.07762   0.25376   0.00000  Uiso   1.00
N86    N     0.37684   0.21334   0.08945   0.00000  Uiso   1.00
O87    O     0.37036   0.25583   0.07996   0.00000  Uiso   1.00
O88    O     0.40263   0.19073   0.06164   0.00000  Uiso   1.00
O89    O     0.77226   0.20487   0.16666   0.00000  Uiso   1.00
O90    O     0.89441   0.12846   0.16667   0.00000  Uiso   1.00
O91    O     0.89441   0.20487   0.16667   0.00000  Uiso   1.00
O92    O     0.77226   0.12846   0.16666   0.00000  Uiso   1.00
C93    C     0.75346   0.16655   0.16636   0.00000  Uiso   1.00
C94    C     0.91321   0.16678   0.16699   0.00000  Uiso   1.00
O95    O     0.83334   0.20488   0.09511   0.00000  Uiso   1.00
O96    O     0.83333   0.12845   0.23822   0.00000  Uiso   1.00
O97    O     0.83333   0.20488   0.23822   0.00000  Uiso   1.00
O98    O     0.83334   0.12845   0.09511   0.00000  Uiso   1.00
C99    C     0.83346   0.16665   0.07290   0.00000  Uiso   1.00
C100   C     0.83318   0.16668   0.26044   0.00000  Uiso   1.00
Zn101  Zn    0.83333   0.21771   0.16667   0.00000  Uiso   1.00
Zn102  Zn    0.83333   0.11563   0.16667   0.00000  Uiso   1.00
C103   C     0.83337   0.16664   0.02180   0.00000  Uiso   1.00
C104   C     0.83326   0.16669   0.31154   0.00000  Uiso   1.00
C105   C     0.68849   0.14164   0.20322   0.00000  Uiso   1.00
C106   C     0.97818   0.19169   0.13012   0.00000  Uiso   1.00
C107   C     0.97861   0.14223   0.20417   0.00000  Uiso   1.00
C108   C     0.68806   0.19111   0.12920   0.00000  Uiso   1.00
C109   C     0.95736   0.16713   0.16737   0.00000  Uiso   1.00
C110   C     0.70930   0.16619   0.16597   0.00000  Uiso   1.00
C111   C     0.86028   0.02410   0.19667   0.00000  Uiso   1.00
C112   C     0.80639   0.30923   0.13667   0.00000  Uiso   1.00
C113   C     0.80638   0.02380   0.13668   0.00000  Uiso   1.00
C114   C     0.86029   0.30954   0.19665   0.00000  Uiso   1.00
H115   H     0.88182   0.04231   0.22071   0.00000  Uiso   1.00
H116   H     0.78485   0.29102   0.11262   0.00000  Uiso   1.00
H117   H     0.78480   0.04176   0.11267   0.00000  Uiso   1.00
H118   H     0.88187   0.29157   0.22066   0.00000  Uiso   1.00
N119   N     0.83333   0.28573   0.16667   0.00000  Uiso   1.00
N120   N     0.83333   0.04760   0.16667   0.00000  Uiso   1.00
N121   N     0.71130   0.11918   0.24219   0.00000  Uiso   1.00
O122   O     0.71776   0.07590   0.23950   0.00000  Uiso   1.00
O123   O     0.72954   0.14271   0.27722   0.00000  Uiso   1.00
N124   N     0.95537   0.21414   0.09113   0.00000  Uiso   1.00
O125   O     0.93642   0.19056   0.05667   0.00000  Uiso   1.00
O126   O     0.94963   0.25757   0.09331   0.00000  Uiso   1.00
N127   N     0.95650   0.11996   0.24390   0.00000  Uiso   1.00
O128   O     0.93053   0.14248   0.27155   0.00000  Uiso   1.00
O129   O     0.96339   0.07762   0.25376   0.00000  Uiso   1.00
N130   N     0.71018   0.21334   0.08945   0.00000  Uiso   1.00
O131   O     0.70369   0.25583   0.07996   0.00000  Uiso   1.00
O132   O     0.73597   0.19073   0.06164   0.00000  Uiso   1.00
O133   O     0.10559   0.53821   0.16666   0.00000  Uiso   1.00
O134   O     0.22774   0.46179   0.16667   0.00000  Uiso   1.00
O135   O     0.22774   0.53821   0.16667   0.00000  Uiso   1.00
O136   O     0.10559   0.46179   0.16666   0.00000  Uiso   1.00
C137   C     0.08679   0.49989   0.16636   0.00000  Uiso   1.00
C138   C     0.24654   0.50011   0.16699   0.00000  Uiso   1.00
O139   O     0.16667   0.53821   0.09511   0.00000  Uiso   1.00
O140   O     0.16666   0.46179   0.23822   0.00000  Uiso   1.00
O141   O     0.16666   0.53821   0.23822   0.00000  Uiso   1.00
O142   O     0.16667   0.46179   0.09511   0.00000  Uiso   1.00
C143   C     0.16679   0.49998   0.07290   0.00000  Uiso   1.00
C144   C     0.16652   0.50002   0.26044   0.00000  Uiso   1.00
Zn145  Zn    0.16667   0.55104   0.16667   0.00000  Uiso   1.00
Zn146  Zn    0.16667   0.44896   0.16667   0.00000  Uiso   1.00
C147   C     0.16671   0.49997   0.02180   0.00000  Uiso   1.00
C148   C     0.16659   0.50002   0.31154   0.00000  Uiso   1.00
C149   C     0.02182   0.47497   0.20322   0.00000  Uiso   1.00
C150   C     0.31151   0.52502   0.13012   0.00000  Uiso   1.00
C151   C     0.31194   0.47556   0.20417   0.00000  Uiso   1.00
C152   C     0.02139   0.52445   0.12920   0.00000  Uiso   1.00
C153   C     0.29070   0.50047   0.16737   0.00000  Uiso   1.00
C154   C     0.04264   0.49953   0.16597   0.00000  Uiso   1.00
C155   C     0.19361   0.35744   0.19667   0.00000  Uiso   1.00
C156   C     0.13973   0.64256   0.13667   0.00000  Uiso   1.00
C157   C     0.13971   0.35713   0.13668   0.00000  Uiso   1.00
C158   C     0.19362   0.64287   0.19665   0.00000  Uiso   1.00
H159   H     0.21515   0.37565   0.22071   0.00000  Uiso   1.00
H160   H     0.11819   0.62435   0.11262   0.00000  Uiso   1.00
H161   H     0.11813   0.37510   0.11267   0.00000  Uiso   1.00
H162   H     0.21520   0.62490   0.22066   0.00000  Uiso   1.00
N163   N     0.16667   0.61907   0.16667   0.00000  Uiso   1.00
N164   N     0.16667   0.38093   0.16667   0.00000  Uiso   1.00
N165   N     0.04464   0.45251   0.24219   0.00000  Uiso   1.00
O166   O     0.05109   0.40924   0.23950   0.00000  Uiso   1.00
O167   O     0.06288   0.47604   0.27722   0.00000  Uiso   1.00
N168   N     0.28870   0.54747   0.09113   0.00000  Uiso   1.00
O169   O     0.26975   0.52389   0.05667   0.00000  Uiso   1.00
O170   O     0.28296   0.59090   0.09331   0.00000  Uiso   1.00
N171   N     0.28984   0.45329   0.24390   0.00000  Uiso   1.00
O172   O     0.26386   0.47581   0.27155   0.00000  Uiso   1.00
O173   O     0.29672   0.41095   0.25376   0.00000  Uiso   1.00
N174   N     0.04351   0.54667   0.08945   0.00000  Uiso   1.00
O175   O     0.03702   0.58916   0.07996   0.00000  Uiso   1.00
O176   O     0.06930   0.52406   0.06164   0.00000  Uiso   1.00
O177   O     0.43892   0.53821   0.16666   0.00000  Uiso   1.00
O178   O     0.56108   0.46179   0.16667   0.00000  Uiso   1.00
O179   O     0.56108   0.53821   0.16667   0.00000  Uiso   1.00
O180   O     0.43892   0.46179   0.16666   0.00000  Uiso   1.00
C181   C     0.42013   0.49989   0.16636   0.00000  Uiso   1.00
C182   C     0.57987   0.50011   0.16699   0.00000  Uiso   1.00
O183   O     0.50000   0.53821   0.09511   0.00000  Uiso   1.00
O184   O     0.50000   0.46179   0.23822   0.00000  Uiso   1.00
O185   O     0.50000   0.53821   0.23822   0.00000  Uiso   1.00
O186   O     0.50000   0.46179   0.09511   0.00000  Uiso   1.00
C187   C     0.50013   0.49998   0.07290   0.00000  Uiso   1.00
C188   C     0.49985   0.50002   0.26044   0.00000  Uiso   1.00
Zn189  Zn    0.50000   0.55104   0.16667   0.00000  Uiso   1.00
Zn190  Zn    0.50000   0.44896   0.16667   0.00000  Uiso   1.00
C191   C     0.50004   0.49997   0.02180   0.00000  Uiso   1.00
C192   C     0.49993   0.50002   0.31154   0.00000  Uiso   1.00
C193   C     0.35516   0.47497   0.20322   0.00000  Uiso   1.00
C194   C     0.64485   0.52502   0.13012   0.00000  Uiso   1.00
C195   C     0.64528   0.47556   0.20417   0.00000  Uiso   1.00
C196   C     0.35473   0.52445   0.12920   0.00000  Uiso   1.00
C197   C     0.62403   0.50047   0.16737   0.00000  Uiso   1.00
C198   C     0.37597   0.49953   0.16597   0.00000  Uiso   1.00
C199   C     0.52694   0.35744   0.19667   0.00000  Uiso   1.00
C200   C     0.47306   0.64256   0.13667   0.00000  Uiso   1.00
C201   C     0.47305   0.35713   0.13668   0.00000  Uiso   1.00
C202   C     0.52695   0.64287   0.19665   0.00000  Uiso   1.00
H203   H     0.54849   0.37565   0.22071   0.00000  Uiso   1.00
H204   H     0.45152   0.62435   0.11262   0.00000  Uiso   1.00
H205   H     0.45147   0.37510   0.11267   0.00000  Uiso   1.00
H206   H     0.54853   0.62490   0.22066   0.00000  Uiso   1.00
N207   N     0.50000   0.61907   0.16667   0.00000  Uiso   1.00
N208   N     0.50000   0.38093   0.16667   0.00000  Uiso   1.00
N209   N     0.37797   0.45251   0.24219   0.00000  Uiso   1.00
O210   O     0.38443   0.40924   0.23950   0.00000  Uiso   1.00
O211   O     0.39621   0.47604   0.27722   0.00000  Uiso   1.00
N212   N     0.62204   0.54747   0.09113   0.00000  Uiso   1.00
O213   O     0.60308   0.52389   0.05667   0.00000  Uiso   1.00
O214   O     0.61629   0.59090   0.09331   0.00000  Uiso   1.00
N215   N     0.62317   0.45329   0.24390   0.00000  Uiso   1.00
O216   O     0.59719   0.47581   0.27155   0.00000  Uiso   1.00
O217   O     0.63005   0.41095   0.25376   0.00000  Uiso   1.00
N218   N     0.37684   0.54667   0.08945   0.00000  Uiso   1.00
O219   O     0.37036   0.58916   0.07996   0.00000  Uiso   1.00
O220   O     0.40263   0.52406   0.06164   0.00000  Uiso   1.00
O221   O     0.77226   0.53821   0.16666   0.00000  Uiso   1.00
O222   O     0.89441   0.46179   0.16667   0.00000  Uiso   1.00
O223   O     0.89441   0.53821   0.16667   0.00000  Uiso   1.00
O224   O     0.77226   0.46179   0.16666   0.00000  Uiso   1.00
C225   C     0.75346   0.49989   0.16636   0.00000  Uiso   1.00
C226   C     0.91321   0.50011   0.16699   0.00000  Uiso   1.00
O227   O     0.83334   0.53821   0.09511   0.00000  Uiso   1.00
O228   O     0.83333   0.46179   0.23822   0.00000  Uiso   1.00
O229   O     0.83333   0.53821   0.23822   0.00000  Uiso   1.00
O230   O     0.83334   0.46179   0.09511   0.00000  Uiso   1.00
C231   C     0.83346   0.49998   0.07290   0.00000  Uiso   1.00
C232   C     0.83318   0.50002   0.26044   0.00000  Uiso   1.00
Zn233  Zn    0.83333   0.55104   0.16667   0.00000  Uiso   1.00
Zn234  Zn    0.83333   0.44896   0.16667   0.00000  Uiso   1.00
C235   C     0.83337   0.49997   0.02180   0.00000  Uiso   1.00
C236   C     0.83326   0.50002   0.31154   0.00000  Uiso   1.00
C237   C     0.68849   0.47497   0.20322   0.00000  Uiso   1.00
C238   C     0.97818   0.52502   0.13012   0.00000  Uiso   1.00
C239   C     0.97861   0.47556   0.20417   0.00000  Uiso   1.00
C240   C     0.68806   0.52445   0.12920   0.00000  Uiso   1.00
C241   C     0.95736   0.50047   0.16737   0.00000  Uiso   1.00
C242   C     0.70930   0.49953   0.16597   0.00000  Uiso   1.00
C243   C     0.86028   0.35744   0.19667   0.00000  Uiso   1.00
C244   C     0.80639   0.64256   0.13667   0.00000  Uiso   1.00
C245   C     0.80638   0.35713   0.13668   0.00000  Uiso   1.00
C246   C     0.86029   0.64287   0.19665   0.00000  Uiso   1.00
H247   H     0.88182   0.37565   0.22071   0.00000  Uiso   1.00
H248   H     0.78485   0.62435   0.11262   0.00000  Uiso   1.00
H249   H     0.78480   0.37510   0.11267   0.00000  Uiso   1.00
H250   H     0.88187   0.62490   0.22066   0.00000  Uiso   1.00
N251   N     0.83333   0.61907   0.16667   0.00000  Uiso   1.00
N252   N     0.83333   0.38093   0.16667   0.00000  Uiso   1.00
N253   N     0.71130   0.45251   0.24219   0.00000  Uiso   1.00
O254   O     0.71776   0.40924   0.23950   0.00000  Uiso   1.00
O255   O     0.72954   0.47604   0.27722   0.00000  Uiso   1.00
N256   N     0.95537   0.54747   0.09113   0.00000  Uiso   1.00
O257   O     0.93642   0.52389   0.05667   0.00000  Uiso   1.00
O258   O     0.94963   0.59090   0.09331   0.00000  Uiso   1.00
N259   N     0.95650   0.45329   0.24390   0.00000  Uiso   1.00
O260   O     0.93053   0.47581   0.27155   0.00000  Uiso   1.00
O261   O     0.96339   0.41095   0.25376   0.00000  Uiso   1.00
N262   N     0.71018   0.54667   0.08945   0.00000  Uiso   1.00
O263   O     0.70369   0.58916   0.07996   0.00000  Uiso   1.00
O264   O     0.73597   0.52406   0.06164   0.00000  Uiso   1.00
O265   O     0.10559   0.87154   0.16666   0.00000  Uiso   1.00
O266   O     0.22774   0.79513   0.16667   0.00000  Uiso   1.00
O267   O     0.22774   0.87154   0.16667   0.00000  Uiso   1.00
O268   O     0.10559   0.79513   0.16666   0.00000  Uiso   1.00
C269   C     0.08679   0.83322   0.16636   0.00000  Uiso   1.00
C270   C     0.24654   0.83345   0.16699   0.00000  Uiso   1.00
O271   O     0.16667   0.87155   0.09511   0.00000  Uiso   1.00
O272   O     0.16666   0.79512   0.23822   0.00000  Uiso   1.00
O273   O     0.16666   0.87155   0.23822   0.00000  Uiso   1.00
O274   O     0.16667   0.79512   0.09511   0.00000  Uiso   1.00
C275   C     0.16679   0.83332   0.07290   0.00000  Uiso   1.00
C276   C     0.16652   0.83335   0.26044   0.00000  Uiso   1.00
Zn277  Zn    0.16667   0.88437   0.16667   0.00000  Uiso   1.00
Zn278  Zn    0.16667   0.78229   0.16667   0.00000  Uiso   1.00
C279   C     0.16671   0.83331   0.02180   0.00000  Uiso   1.00
C280   C     0.16659   0.83336   0.31154   0.00000  Uiso   1.00
C281   C     0.02182   0.80831   0.20322   0.00000  Uiso   1.00
C282   C     0.31151   0.85836   0.13012   0.00000  Uiso   1.00
C283   C     0.31194   0.80890   0.20417   0.00000  Uiso   1.00
C284   C     0.02139   0.85778   0.12920   0.00000  Uiso   1.00
C285   C     0.29070   0.83380   0.16737   0.00000  Uiso   1.00
C286   C     0.04264   0.83286   0.16597   0.00000  Uiso   1.00
C287   C     0.19361   0.69077   0.19667   0.00000  Uiso   1.00
C288   C     0.13973   0.97590   0.13667   0.00000  Uiso   1.00
C289   C     0.13971   0.69046   0.13668   0.00000  Uiso   1.00
C290   C     0.19362   0.97620   0.19665   0.00000  Uiso   1.00
H291   H     0.21515   0.70898   0.22071   0.00000  Uiso   1.00
H292   H     0.11819   0.95769   0.11262   0.00000  Uiso   1.00
H293   H     0.11813   0.70843   0.11267   0.00000  Uiso   1.00
H294   H     0.21520   0.95824   0.22066   0.00000  Uiso   1.00
N295   N     0.16667   0.95240   0.16667   0.00000  Uiso   1.00
N296   N     0.16667   0.71427   0.16667   0.00000  Uiso   1.00
N297   N     0.04464   0.78585   0.24219   0.00000  Uiso   1.00
O298   O     0.05109   0.74257   0.23950   0.00000  Uiso   1.00
O299   O     0.06288   0.80937   0.27722   0.00000  Uiso   1.00
N300   N     0.28870   0.88080   0.09113   0.00000  Uiso   1.00
O301   O     0.26975   0.85722   0.05667   0.00000  Uiso   1.00
O302   O     0.28296   0.92424   0.09331   0.00000  Uiso   1.00
N303   N     0.28984   0.78663   0.24390   0.00000  Uiso   1.00
O304   O     0.26386   0.80914   0.27155   0.00000  Uiso   1.00
O305   O     0.29672   0.74428   0.25376   0.00000  Uiso   1.00
N306   N     0.04351   0.88000   0.08945   0.00000  Uiso   1.00
O307   O     0.03702   0.92249   0.07996   0.00000  Uiso   1.00
O308   O     0.06930   0.85739   0.06164   0.00000  Uiso   1.00
O309   O     0.43892   0.87154   0.16666   0.00000  Uiso   1.00
O310   O     0.56108   0.79513   0.16667   0.00000  Uiso   1.00
O311   O     0.56108   0.87154   0.16667   0.00000  Uiso   1.00
O312   O     0.43892   0.79513   0.16666   0.00000  Uiso   1.00
C313   C     0.42013   0.83322   0.16636   0.00000  Uiso   1.00
C314   C     0.57987   0.83345   0.16699   0.00000  Uiso   1.00
O315   O     0.50000   0.87155   0.09511   0.00000  Uiso   1.00
O316   O     0.50000   0.79512   0.23822   0.00000  Uiso   1.00
O317   O     0.50000   0.87155   0.23822   0.00000  Uiso   1.00
O318   O     0.50000   0.79512   0.09511   0.00000  Uiso   1.00
C319   C     0.50013   0.83332   0.07290   0.00000  Uiso   1.00
C320   C     0.49985   0.83335   0.26044   0.00000  Uiso   1.00
Zn321  Zn    0.50000   0.88437   0.16667   0.00000  Uiso   1.00
Zn322  Zn    0.50000   0.78229   0.16667   0.00000  Uiso   1.00
C323   C     0.50004   0.83331   0.02180   0.00000  Uiso   1.00
C324   C     0.49993   0.83336   0.31154   0.00000  Uiso   1.00
C325   C     0.35516   0.80831   0.20322   0.00000  Uiso   1.00
C326   C     0.64485   0.85836   0.13012   0.00000  Uiso   1.00
C327   C     0.64528   0.80890   0.20417   0.00000  Uiso   1.00
C328   C     0.35473   0.85778   0.12920   0.00000  Uiso   1.00
C329   C     0.62403   0.83380   0.16737   0.00000  Uiso   1.00
C330   C     0.37597   0.83286   0.16597   0.00000  Uiso   1.00
C331   C     0.52694   0.69077   0.19667   0.00000  Uiso   1.00
C332   C     0.47306   0.97590   0.13667   0.00000  Uiso   1.00
C333   C     0.47305   0.69046   0.13668   0.00000  Uiso   1.00
C334   C     0.52695   0.97620   0.19665   0.00000  Uiso   1.00
H335   H     0.54849   0.70898   0.22071   0.00000  Uiso   1.00
H336   H     0.45152   0.95769   0.11262   0.00000  Uiso   1.00
H337   H     0.45147   0.70843   0.11267   0.00000  Uiso   1.00
H338   H     0.54853   0.95824   0.22066   0.00000  Uiso   1.00
N339   N     0.50000   0.95240   0.16667   0.00000  Uiso   1.00
N340   N     0.50000   0.71427   0.16667   0.00000  Uiso   1.00
N341   N     0.37797   0.78585   0.24219   0.00000  Uiso   1.00
O342   O     0.38443   0.74257   0.23950   0.00000  Uiso   1.00
O343   O     0.39621   0.80937   0.27722   0.00000  Uiso   1.00
N344   N     0.62204   0.88080   0.09113   0.00000  Uiso   1.00
O345   O     0.60308   0.85722   0.05667   0.00000  Uiso   1.00
O346   O     0.61629   0.92424   0.09331   0.00000  Uiso   1.00
N347   N     0.62317   0.78663   0.24390   0.00000  Uiso   1.00
O348   O     0.59719   0.80914   0.27155   0.00000  Uiso   1.00
O349   O     0.63005   0.74428   0.25376   0.00000  Uiso   1.00
N350   N     0.37684   0.88000   0.08945   0.00000  Uiso   1.00
O351   O     0.37036   0.92249   0.07996   0.00000  Uiso   1.00
O352   O     0.40263   0.85739   0.06164   0.00000  Uiso   1.00
O353   O     0.77226   0.87154   0.16666   0.00000  Uiso   1.00
O354   O     0.89441   0.79513   0.16667   0.00000  Uiso   1.00
O355   O     0.89441   0.87154   0.16667   0.00000  Uiso   1.00
O356   O     0.77226   0.79513   0.16666   0.00000  Uiso   1.00
C357   C     0.75346   0.83322   0.16636   0.00000  Uiso   1.00
C358   C     0.91321   0.83345   0.16699   0.00000  Uiso   1.00
O359   O     0.83334   0.87155   0.09511   0.00000  Uiso   1.00
O360   O     0.83333   0.79512   0.23822   0.00000  Uiso   1.00
O361   O     0.83333   0.87155   0.23822   0.00000  Uiso   1.00
O362   O     0.83334   0.79512   0.09511   0.00000  Uiso   1.00
C363   C     0.83346   0.83332   0.07290   0.00000  Uiso   1.00
C364   C     0.83318   0.83335   0.26044   0.00000  Uiso   1.00
Zn365  Zn    0.83333   0.88437   0.16667   0.00000  Uiso   1.00
Zn366  Zn    0.83333   0.78229   0.16667   0.00000  Uiso   1.00
C367   C     0.83337   0.83331   0.02180   0.00000  Uiso   1.00
C368   C     0.83326   0.83336   0.31154   0.00000  Uiso   1.00
C369   C     0.68849   0.80831   0.20322   0.00000  Uiso   1.00
C370   C     0.97818   0.85836   0.13012   0.00000  Uiso   1.00
C371   C     0.97861   0.80890   0.20417   0.00000  Uiso   1.00
C372   C     0.68806   0.85778   0.12920   0.00000  Uiso   1.00
C373   C     0.95736   0.83380   0.16737   0.00000  Uiso   1.00
C374   C     0.70930   0.83286   0.16597   0.00000  Uiso   1.00
C375   C     0.86028   0.69077   0.19667   0.00000  Uiso   1.00
C376   C     0.80639   0.97590   0.13667   0.00000  Uiso   1.00
C377   C     0.80638   0.69046   0.13668   0.00000  Uiso   1.00
C378   C     0.86029   0.97620   0.19665   0.00000  Uiso   1.00
H379   H     0.88182   0.70898   0.22071   0.00000  Uiso   1.00
H380   H     0.78485   0.95769   0.11262   0.00000  Uiso   1.00
H381   H     0.78480   0.70843   0.11267   0.00000  Uiso   1.00
H382   H     0.88187   0.95824   0.22066   0.00000  Uiso   1.00
N383   N     0.83333   0.95240   0.16667   0.00000  Uiso   1.00
N384   N     0.83333   0.71427   0.16667   0.00000  Uiso   1.00
N385   N     0.71130   0.78585   0.24219   0.00000  Uiso   1.00
O386   O     0.71776   0.74257   0.23950   0.00000  Uiso   1.00
O387   O     0.72954   0.80937   0.27722   0.00000  Uiso   1.00
N388   N     0.95537   0.88080   0.09113   0.00000  Uiso   1.00
O389   O     0.93642   0.85722   0.05667   0.00000  Uiso   1.00
O390   O     0.94963   0.92424   0.09331   0.00000  Uiso   1.00
N391   N     0.95650   0.78663   0.24390   0.00000  Uiso   1.00
O392   O     0.93053   0.80914   0.27155   0.00000  Uiso   1.00
O393   O     0.96339   0.74428   0.25376   0.00000  Uiso   1.00
N394   N     0.71018   0.88000   0.08945   0.00000  Uiso   1.00
O395   O     0.70369   0.92249   0.07996   0.00000  Uiso   1.00
O396   O     0.73597   0.85739   0.06164   0.00000  Uiso   1.00
O397   O     0.10559   0.20487   0.50000   0.00000  Uiso   1.00
O398   O     0.22774   0.12846   0.50000   0.00000  Uiso   1.00
O399   O     0.22774   0.20487   0.50000   0.00000  Uiso   1.00
O400   O     0.10559   0.12846   0.50000   0.00000  Uiso   1.00
C401   C     0.08679   0.16655   0.49970   0.00000  Uiso   1.00
C402   C     0.24654   0.16678   0.50032   0.00000  Uiso   1.00
O403   O     0.16667   0.20488   0.42845   0.00000  Uiso   1.00
O404   O     0.16666   0.12845   0.57155   0.00000  Uiso   1.00
O405   O     0.16666   0.20488   0.57155   0.00000  Uiso   1.00
O406   O     0.16667   0.12845   0.42845   0.00000  Uiso   1.00
C407   C     0.16679   0.16665   0.40623   0.00000  Uiso   1.00
C408   C     0.16652   0.16668   0.59377   0.00000  Uiso   1.00
Zn409  Zn    0.16667   0.21771   0.50000   0.00000  Uiso   1.00
Zn410  Zn    0.16667   0.11563   0.50000   0.00000  Uiso   1.00
C411   C     0.16671   0.16664   0.35513   0.00000  Uiso   1.00
C412   C     0.16659   0.16669   0.64487   0.00000  Uiso   1.00
C413   C     0.02182   0.14164   0.53656   0.00000  Uiso   1.00
C414   C     0.31151   0.19169   0.46345   0.00000  Uiso   1.00
C415   C     0.31194   0.14223   0.53750   0.00000  Uiso   1.00
C416   C     0.02139   0.19111   0.46253   0.00000  Uiso   1.00
C417   C     0.29070   0.16713   0.50071   0.00000  Uiso   1.00
C418   C     0.04264   0.16619   0.49931   0.00000  Uiso   1.00
C419   C     0.19361   0.02410   0.53000   0.00000  Uiso   1.00
C420   C     0.13973   0.30923   0.47000   0.00000  Uiso   1.00
C421   C     0.13971   0.02380   0.47001   0.00000  Uiso   1.00
C422   C     0.19362   0.30954   0.52999   0.00000  Uiso   1.00
H423   H     0.21515   0.04231   0.55404   0.00000  Uiso   1.00
H424   H     0.11819   0.29102   0.44596   0.00000  Uiso   1.00
H425   H     0.11813   0.04176   0.44601   0.00000  Uiso   1.00
H426   H     0.21520   0.29157   0.55399   0.00000  Uiso   1.00
N427   N     0.16667   0.28573   0.50000   0.00000  Uiso   1.00
N428   N     0.16667   0.04760   0.50000   0.00000  Uiso   1.00
N429   N     0.04464   0.11918   0.57552   0.00000  Uiso   1.00
O430   O     0.05109   0.07590   0.57283   0.00000  Uiso   1.00
O431   O     0.06288   0.14271   0.61056   0.00000  Uiso   1.00
N432   N     0.28870   0.21414   0.42447   0.00000  Uiso   1.00
O433   O     0.26975   0.19056   0.39001   0.00000  Uiso   1.00
O434   O     0.28296   0.25757   0.42664   0.00000  Uiso   1.00
N435   N     0.28984   0.11996   0.57723   0.00000  Uiso   1.00
O436   O     0.26386   0.14248   0.60488   0.00000  Uiso   1.00
O437   O     0.29672   0.07762   0.58709   0.00000  Uiso   1.00
N438   N     0.04351   0.21334   0.42278   0.00000  Uiso   1.00
O439   O     0.03702   0.25583   0.41329   0.00000  Uiso   1.00
O440   O     0.06930   0.19073   0.39497   0.00000  Uiso   1.00
O441   O     0.43892   0.20487   0.50000   0.00000  Uiso   1.00
O442   O     0.56108   0.12846   0.50000   0.00000  Uiso   1.00
O443   O     0.56108   0.20487   0.50000   0.00000  Uiso   1.00
O444   O     0.43892   0.12846   0.50000   0.00000  Uiso   1.00
C445   C     0.42013   0.16655   0.49970   0.00000  Uiso   1.00
C446   C     0.57987   0.16678   0.50032   0.00000  Uiso   1.00
O447   O     0.50000   0.20488   0.42845   0.00000  Uiso   1.00
O448   O     0.50000   0.12845   0.57155   0.00000  Uiso   1.00
O449   O     0.50000   0.20488   0.57155   0.00000  Uiso   1.00
O450   O     0.50000   0.12845   0.42845   0.00000  Uiso   1.00
C451   C     0.50013   0.16665   0.40623   0.00000  Uiso   1.00
C452   C     0.49985   0.16668   0.59377   0.00000  Uiso   1.00
Zn453  Zn    0.50000   0.21771   0.50000   0.00000  Uiso   1.00
Zn454  Zn    0.50000   0.11563   0.50000   0.00000  Uiso   1.00
C455   C     0.50004   0.16664   0.35513   0.00000  Uiso   1.00
C456   C     0.49993   0.16669   0.64487   0.00000  Uiso   1.00
C457   C     0.35516   0.14164   0.53656   0.00000  Uiso   1.00
C458   C     0.64485   0.19169   0.46345   0.00000  Uiso   1.00
C459   C     0.64528   0.14223   0.53750   0.00000  Uiso   1.00
C460   C     0.35473   0.19111   0.46253   0.00000  Uiso   1.00
C461   C     0.62403   0.16713   0.50071   0.00000  Uiso   1.00
C462   C     0.37597   0.16619   0.49931   0.00000  Uiso   1.00
C463   C     0.52694   0.02410   0.53000   0.00000  Uiso   1.00
C464   C     0.47306   0.30923   0.47000   0.00000  Uiso   1.00
C465   C     0.47305   0.02380   0.47001   0.00000  Uiso   1.00
C466   C     0.52695   0.30954   0.52999   0.00000  Uiso   1.00
H467   H     0.54849   0.04231   0.55404   0.00000  Uiso   1.00
H468   H     0.45152   0.29102   0.44596   0.00000  Uiso   1.00
H469   H     0.45147   0.04176   0.44601   0.00000  Uiso   1.00
H470   H     0.54853   0.29157   0.55399   0.00000  Uiso   1.00
N471   N     0.50000   0.28573   0.50000   0.00000  Uiso   1.00
N472   N     0.50000   0.04760   0.50000   0.00000  Uiso   1.00
N473   N     0.37797   0.11918   0.57552   0.00000  Uiso   1.00
O474   O     0.38443   0.07590   0.57283   0.00000  Uiso   1.00
O475   O     0.39621   0.14271   0.61056   0.00000  Uiso   1.00
N476   N     0.62204   0.21414   0.42447   0.00000  Uiso   1.00
O477   O     0.60308   0.19056   0.39001   0.00000  Uiso   1.00
O478   O     0.61629   0.25757   0.42664   0.00000  Uiso   1.00
N479   N     0.62317   0.11996   0.57723   0.00000  Uiso   1.00
O480   O     0.59719   0.14248   0.60488   0.00000  Uiso   1.00
O481   O     0.63005   0.07762   0.58709   0.00000  Uiso   1.00
N482   N     0.37684   0.21334   0.42278   0.00000  Uiso   1.00
O483   O     0.37036   0.25583   0.41329   0.00000  Uiso   1.00
O484   O     0.40263   0.19073   0.39497   0.00000  Uiso   1.00
O485   O     0.77226   0.20487   0.50000   0.00000  Uiso   1.00
O486   O     0.89441   0.12846   0.50000   0.00000  Uiso   1.00
O487   O     0.89441   0.20487   0.50000   0.00000  Uiso   1.00
O488   O     0.77226   0.12846   0.50000   0.00000  Uiso   1.00
C489   C     0.75346   0.16655   0.49970   0.00000  Uiso   1.00
C490   C     0.91321   0.16678   0.50032   0.00000  Uiso   1.00
O491   O     0.83334   0.20488   0.42845   0.00000  Uiso   1.00
O492   O     0.83333   0.12845   0.57155   0.00000  Uiso   1.00
O493   O     0.83333   0.20488   0.57155   0.00000  Uiso   1.00
O494   O     0.83334   0.12845   0.42845   0.00000  Uiso   1.00
C495   C     0.83346   0.16665   0.40623   0.00000  Uiso   1.00
C496   C     0.83318   0.16668   0.59377   0.00000  Uiso   1.00
Zn497  Zn    0.83333   0.21771   0.50000   0.00000  Uiso   1.00
Zn498  Zn    0.83333   0.11563   0.50000   0.00000  Uiso   1.00
C499   C     0.83337   0.16664   0.35513   0.00000  Uiso   1.00
C500   C     0.83326   0.16669   0.64487   0.00000  Uiso   1.00
C501   C     0.68849   0.14164   0.53656   0.00000  Uiso   1.00
C502   C     0.97818   0.19169   0.46345   0.00000  Uiso   1.00
C503   C     0.97861   0.14223   0.53750   0.00000  Uiso   1.00
C504   C     0.68806   0.19111   0.46253   0.00000  Uiso   1.00
C505   C     0.95736   0.16713   0.50071   0.00000  Uiso   1.00
C506   C     0.70930   0.16619   0.49931   0.00000  Uiso   1.00
C507   C     0.86028   0.02410   0.53000   0.00000  Uiso   1.00
C508   C     0.80639   0.30923   0.47000   0.00000  Uiso   1.00
C509   C     0.80638   0.02380   0.47001   0.00000  Uiso   1.00
C510   C     0.86029   0.30954   0.52999   0.00000  Uiso   1.00
H511   H     0.88182   0.04231   0.55404   0.00000  Uiso   1.00
H512   H     0.78485   0.29102   0.44596   0.00000  Uiso   1.00
H513   H     0.78480   0.04176   0.44601   0.00000  Uiso   1.00
H514   H     0.88187   0.29157   0.55399   0.00000  Uiso   1.00
N515   N     0.83333   0.28573   0.50000   0.00000  Uiso   1.00
N516   N     0.83333   0.04760   0.50000   0.00000  Uiso   1.00
N517   N     0.71130   0.11918   0.57552   0.00000  Uiso   1.00
O518   O     0.71776   0.07590   0.57283   0.00000  Uiso   1.00
O519   O     0.72954   0.14271   0.61056   0.00000  Uiso   1.00
N520   N     0.95537   0.21414   0.42447   0.00000  Uiso   1.00
O521   O     0.93642   0.19056   0.39001   0.00000  Uiso   1.00
O522   O     0.94963   0.25757   0.42664   0.00000  Uiso   1.00
N523   N     0.95650   0.11996   0.57723   0.00000  Uiso   1.00
O524   O     0.93053   0.14248   0.60488   0.00000  Uiso   1.00
O525   O     0.96339   0.07762   0.58709   0.00000  Uiso   1.00
N526   N     0.71018   0.21334   0.42278   0.00000  Uiso   1.00
O527   O     0.70369   0.25583   0.41329   0.00000  Uiso   1.00
O528   O     0.73597   0.19073   0.39497   0.00000  Uiso   1.00
O529   O     0.10559   0.53821   0.50000   0.00000  Uiso   1.00
O530   O     0.22774   0.46179   0.50000   0.00000  Uiso   1.00
O531   O     0.22774   0.53821   0.50000   0.00000  Uiso   1.00
O532   O     0.10559   0.46179   0.50000   0.00000  Uiso   1.00
C533   C     0.08679   0.49989   0.49970   0.00000  Uiso   1.00
C534   C     0.24654   0.50011   0.50032   0.00000  Uiso   1.00
O535   O     0.16667   0.53821   0.42845   0.00000  Uiso   1.00
O536   O     0.16666   0.46179   0.57155   0.00000  Uiso   1.00
O537   O     0.16666   0.53821   0.57155   0.00000  Uiso   1.00
O538   O     0.16667   0.46179   0.42845   0.00000  Uiso   1.00
C539   C     0.16679   0.49998   0.40623   0.00000  Uiso   1.00
C540   C     0.16652   0.50002   0.59377   0.00000  Uiso   1.00
Zn541  Zn    0.16667   0.55104   0.50000   0.00000  Uiso   1.00
Zn542  Zn    0.16667   0.44896   0.50000   0.00000  Uiso   1.00
C543   C     0.16671   0.49997   0.35513   0.00000  Uiso   1.00
C544   C     0.16659   0.50002   0.64487   0.00000  Uiso   1.00
C545   C     0.02182   0.47497   0.53656   0.00000  Uiso   1.00
C546   C     0.31151   0.52502   0.46345   0.00000  Uiso   1.00
C547   C     0.31194   0.47556   0.53750   0.00000  Uiso   1.00
C548   C     0.02139   0.52445   0.46253   0.00000  Uiso   1.00
C549   C     0.29070   0.50047   0.50071   0.00000  Uiso   1.00
C550   C     0.04264   0.49953   0.49931   0.00000  Uiso   1.00
C551   C     0.19361   0.35744   0.53000   0.00000  Uiso   1.00
C552   C     0.13973   0.64256   0.47000   0.00000  Uiso   1.00
C553   C     0.13971   0.35713   0.47001   0.00000  Uiso   1.00
C554   C     0.19362   0.64287   0.52999   0.00000  Uiso   1.00
H555   H     0.21515   0.37565   0.55404   0.00000  Uiso   1.00
H556   H     0.11819   0.62435   0.44596   0.00000  Uiso   1.00
H557   H     0.11813   0.37510   0.44601   0.00000  Uiso   1.00
H558   H     0.21520   0.62490   0.55399   0.00000  Uiso   1.00
N559   N     0.16667   0.61907   0.50000   0.00000  Uiso   1.00
N560   N     0.16667   0.38093   0.50000   0.00000  Uiso   1.00
N561   N     0.04464   0.45251   0.57552   0.00000  Uiso   1.00
O562   O     0.05109   0.40924   0.57283   0.00000  Uiso   1.00
O563   O     0.06288   0.47604   0.61056   0.00000  Uiso   1.00
N564   N     0.28870   0.54747   0.42447   0.00000  Uiso   1.00
O565   O     0.26975   0.52389   0.39001   0.00000  Uiso   1.00
O566   O     0.28296   0.59090   0.42664   0.00000  Uiso   1.00
N567   N     0.28984   0.45329   0.57723   0.00000  Uiso   1.00
O568   O     0.26386   0.47581   0.60488   0.00000  Uiso   1.00
O569   O     0.29672   0.41095   0.58709   0.00000  Uiso   1.00
N570   N     0.04351   0.54667   0.42278   0.00000  Uiso   1.00
O571   O     0.03702   0.58916   0.41329   0.00000  Uiso   1.00
O572   O     0.06930   0.52406   0.39497   0.00000  Uiso   1.00
O573   O     0.43892   0.53821   0.50000   0.00000  Uiso   1.00
O574   O     0.56108   0.46179   0.50000   0.00000  Uiso   1.00
O575   O     0.56108   0.53821   0.50000   0.00000  Uiso   1.00
O576   O     0.43892   0.46179   0.50000   0.00000  Uiso   1.00
C577   C     0.42013   0.49989   0.49970   0.00000  Uiso   1.00
C578   C     0.57987   0.50011   0.50032   0.00000  Uiso   1.00
O579   O     0.50000   0.53821   0.42845   0.00000  Uiso   1.00
O580   O     0.50000   0.46179   0.57155   0.00000  Uiso   1.00
O581   O     0.50000   0.53821   0.57155   0.00000  Uiso   1.00
O582   O     0.50000   0.46179   0.42845   0.00000  Uiso   1.00
C583   C     0.50013   0.49998   0.40623   0.00000  Uiso   1.00
C584   C     0.49985   0.50002   0.59377   0.00000  Uiso   1.00
Zn585  Zn    0.50000   0.55104   0.50000   0.00000  Uiso   1.00
Zn586  Zn    0.50000   0.44896   0.50000   0.00000  Uiso   1.00
C587   C     0.50004   0.49997   0.35513   0.00000  Uiso   1.00
C588   C     0.49993   0.50002   0.64487   0.00000  Uiso   1.00
C589   C     0.35516   0.47497   0.53656   0.00000  Uiso   1.00
C590   C     0.64485   0.52502   0.46345   0.00000  Uiso   1.00
C591   C     0.64528   0.47556   0.53750   0.00000  Uiso   1.00
C592   C     0.35473   0.52445   0.46253   0.00000  Uiso   1.00
C593   C     0.62403   0.50047   0.50071   0.00000  Uiso   1.00
C594   C     0.37597   0.49953   0.49931   0.00000  Uiso   1.00
C595   C     0.52694   0.35744   0.53000   0.00000  Uiso   1.00
C596   C     0.47306   0.64256   0.47000   0.00000  Uiso   1.00
C597   C     0.47305   0.35713   0.47001   0.00000  Uiso   1.00
C598   C     0.52695   0.64287   0.52999   0.00000  Uiso   1.00
H599   H     0.54849   0.37565   0.55404   0.00000  Uiso   1.00
H600   H     0.45152   0.62435   0.44596   0.00000  Uiso   1.00
H601   H     0.45147   0.37510   0.44601   0.00000  Uiso   1.00
H602   H     0.54853   0.62490   0.55399   0.00000  Uiso   1.00
N603   N     0.50000   0.61907   0.50000   0.00000  Uiso   1.00
N604   N     0.50000   0.38093   0.50000   0.00000  Uiso   1.00
N605   N     0.37797   0.45251   0.57552   0.00000  Uiso   1.00
O606   O     0.38443   0.40924   0.57283   0.00000  Uiso   1.00
O607   O     0.39621   0.47604   0.61056   0.00000  Uiso   1.00
N608   N     0.62204   0.54747   0.42447   0.00000  Uiso   1.00
O609   O     0.60308   0.52389   0.39001   0.00000  Uiso   1.00
O610   O     0.61629   0.59090   0.42664   0.00000  Uiso   1.00
N611   N     0.62317   0.45329   0.57723   0.00000  Uiso   1.00
O612   O     0.59719   0.47581   0.60488   0.00000  Uiso   1.00
O613   O     0.63005   0.41095   0.58709   0.00000  Uiso   1.00
N614   N     0.37684   0.54667   0.42278   0.00000  Uiso   1.00
O615   O     0.37036   0.58916   0.41329   0.00000  Uiso   1.00
O616   O     0.40263   0.52406   0.39497   0.00000  Uiso   1.00
O617   O     0.77226   0.53821   0.50000   0.00000  Uiso   1.00
O618   O     0.89441   0.46179   0.50000   0.00000  Uiso   1.00
O619   O     0.89441   0.53821   0.50000   0.00000  Uiso   1.00
O620   O     0.77226   0.46179   0.50000   0.00000  Uiso   1.00
C621   C     0.75346   0.49989   0.49970   0.00000  Uiso   1.00
C622   C     0.91321   0.50011   0.50032   0.00000  Uiso   1.00
O623   O     0.83334   0.53821   0.42845   0.00000  Uiso   1.00
O624   O     0.83333   0.46179   0.57155   0.00000  Uiso   1.00
O625   O     0.83333   0.53821   0.57155   0.00000  Uiso   1.00
O626   O     0.83334   0.46179   0.42845   0.00000  Uiso   1.00
C627   C     0.83346   0.49998   0.40623   0.00000  Uiso   1.00
C628   C     0.83318   0.50002   0.59377   0.00000  Uiso   1.00
Zn629  Zn    0.83333   0.55104   0.50000   0.00000  Uiso   1.00
Zn630  Zn    0.83333   0.44896   0.50000   0.00000  Uiso   1.00
C631   C     0.83337   0.49997   0.35513   0.00000  Uiso   1.00
C632   C     0.83326   0.50002   0.64487   0.00000  Uiso   1.00
C633   C     0.68849   0.47497   0.53656   0.00000  Uiso   1.00
C634   C     0.97818   0.52502   0.46345   0.00000  Uiso   1.00
C635   C     0.97861   0.47556   0.53750   0.00000  Uiso   1.00
C636   C     0.68806   0.52445   0.46253   0.00000  Uiso   1.00
C637   C     0.95736   0.50047   0.50071   0.00000  Uiso   1.00
C638   C     0.70930   0.49953   0.49931   0.00000  Uiso   1.00
C639   C     0.86028   0.35744   0.53000   0.00000  Uiso   1.00
C640   C     0.80639   0.64256   0.47000   0.00000  Uiso   1.00
C641   C     0.80638   0.35713   0.47001   0.00000  Uiso   1.00
C642   C     0.86029   0.64287   0.52999   0.00000  Uiso   1.00
H643   H     0.88182   0.37565   0.55404   0.00000  Uiso   1.00
H644   H     0.78485   0.62435   0.44596   0.00000  Uiso   1.00
H645   H     0.78480   0.37510   0.44601   0.00000  Uiso   1.00
H646   H     0.88187   0.62490   0.55399   0.00000  Uiso   1.00
N647   N     0.83333   0.61907   0.50000   0.00000  Uiso   1.00
N648   N     0.83333   0.38093   0.50000   0.00000  Uiso   1.00
N649   N     0.71130   0.45251   0.57552   0.00000  Uiso   1.00
O650   O     0.71776   0.40924   0.57283   0.00000  Uiso   1.00
O651   O     0.72954   0.47604   0.61056   0.00000  Uiso   1.00
N652   N     0.95537   0.54747   0.42447   0.00000  Uiso   1.00
O653   O     0.93642   0.52389   0.39001   0.00000  Uiso   1.00
O654   O     0.94963   0.59090   0.42664   0.00000  Uiso   1.00
N655   N     0.95650   0.45329   0.57723   0.00000  Uiso   1.00
O656   O     0.93053   0.47581   0.60488   0.00000  Uiso   1.00
O657   O     0.96339   0.41095   0.58709   0.00000  Uiso   1.00
N658   N     0.71018   0.54667   0.42278   0.00000  Uiso   1.00
O659   O     0.70369   0.58916   0.41329   0.00000  Uiso   1.00
O660   O     0.73597   0.52406   0.39497   0.00000  Uiso   1.00
O661   O     0.10559   0.87154   0.50000   0.00000  Uiso   1.00
O662   O     0.22774   0.79513   0.50000   0.00000  Uiso   1.00
O663   O     0.22774   0.87154   0.50000   0.00000  Uiso   1.00
O664   O     0.10559   0.79513   0.50000   0.00000  Uiso   1.00
C665   C     0.08679   0.83322   0.49970   0.00000  Uiso   1.00
C666   C     0.24654   0.83345   0.50032   0.00000  Uiso   1.00
O667   O     0.16667   0.87155   0.42845   0.00000  Uiso   1.00
O668   O     0.16666   0.79512   0.57155   0.00000  Uiso   1.00
O669   O     0.16666   0.87155   0.57155   0.00000  Uiso   1.00
O670   O     0.16667   0.79512   0.42845   0.00000  Uiso   1.00
C671   C     0.16679   0.83332   0.40623   0.00000  Uiso   1.00
C672   C     0.16652   0.83335   0.59377   0.00000  Uiso   1.00
Zn673  Zn    0.16667   0.88437   0.50000   0.00000  Uiso   1.00
Zn674  Zn    0.16667   0.78229   0.50000   0.00000  Uiso   1.00
C675   C     0.16671   0.83331   0.35513   0.00000  Uiso   1.00
C676   C     0.16659   0.83336   0.64487   0.00000  Uiso   1.00
C677   C     0.02182   0.80831   0.53656   0.00000  Uiso   1.00
C678   C     0.31151   0.85836   0.46345   0.00000  Uiso   1.00
C679   C     0.31194   0.80890   0.53750   0.00000  Uiso   1.00
C680   C     0.02139   0.85778   0.46253   0.00000  Uiso   1.00
C681   C     0.29070   0.83380   0.50071   0.00000  Uiso   1.00
C682   C     0.04264   0.83286   0.49931   0.00000  Uiso   1.00
C683   C     0.19361   0.69077   0.53000   0.00000  Uiso   1.00
C684   C     0.13973   0.97590   0.47000   0.00000  Uiso   1.00
C685   C     0.13971   0.69046   0.47001   0.00000  Uiso   1.00
C686   C     0.19362   0.97620   0.52999   0.00000  Uiso   1.00
H687   H     0.21515   0.70898   0.55404   0.00000  Uiso   1.00
H688   H     0.11819   0.95769   0.44596   0.00000  Uiso   1.00
H689   H     0.11813   0.70843   0.44601   0.00000  Uiso   1.00
H690   H     0.21520   0.95824   0.55399   0.00000  Uiso   1.00
N691   N     0.16667   0.95240   0.50000   0.00000  Uiso   1.00
N692   N     0.16667   0.71427   0.50000   0.00000  Uiso   1.00
N693   N     0.04464   0.78585   0.57552   0.00000  Uiso   1.00
O694   O     0.05109   0.74257   0.57283   0.00000  Uiso   1.00
O695   O     0.06288   0.80937   0.61056   0.00000  Uiso   1.00
N696   N     0.28870   0.88080   0.42447   0.00000  Uiso   1.00
O697   O     0.26975   0.85722   0.39001   0.00000  Uiso   1.00
O698   O     0.28296   0.92424   0.42664   0.00000  Uiso   1.00
N699   N     0.28984   0.78663   0.57723   0.00000  Uiso   1.00
O700   O     0.26386   0.80914   0.60488   0.00000  Uiso   1.00
O701   O     0.29672   0.74428   0.58709   0.00000  Uiso   1.00
N702   N     0.04351   0.88000   0.42278   0.00000  Uiso   1.00
O703   O     0.03702   0.92249   0.41329   0.00000  Uiso   1.00
O704   O     0.06930   0.85739   0.39497   0.00000  Uiso   1.00
O705   O     0.43892   0.87154   0.50000   0.00000  Uiso   1.00
O706   O     0.56108   0.79513   0.50000   0.00000  Uiso   1.00
O707   O     0.56108   0.87154   0.50000   0.00000  Uiso   1.00
O708   O     0.43892   0.79513   0.50000   0.00000  Uiso   1.00
C709   C     0.42013   0.83322   0.49970   0.00000  Uiso   1.00
C710   C     0.57987   0.83345   0.50032   0.00000  Uiso   1.00
O711   O     0.50000   0.87155   0.42845   0.00000  Uiso   1.00
O712   O     0.50000   0.79512   0.57155   0.00000  Uiso   1.00
O713   O     0.50000   0.87155   0.57155   0.00000  Uiso   1.00
O714   O     0.50000   0.79512   0.42845   0.00000  Uiso   1.00
C715   C     0.50013   0.83332   0.40623   0.00000  Uiso   1.00
C716   C     0.49985   0.83335   0.59377   0.00000  Uiso   1.00
Zn717  Zn    0.50000   0.88437   0.50000   0.00000  Uiso   1.00
Zn718  Zn    0.50000   0.78229   0.50000   0.00000  Uiso   1.00
C719   C     0.50004   0.83331   0.35513   0.00000  Uiso   1.00
C720   C     0.49993   0.83336   0.64487   0.00000  Uiso   1.00
C721   C     0.35516   0.80831   0.53656   0.00000  Uiso   1.00
C722   C     0.64485   0.85836   0.46345   0.00000  Uiso   1.00
C723   C     0.64528   0.80890   0.53750   0.00000  Uiso   1.00
C724   C     0.35473   0.85778   0.46253   0.00000  Uiso   1.00
C725   C     0.62403   0.83380   0.50071   0.00000  Uiso   1.00
C726   C     0.37597   0.83286   0.49931   0.00000  Uiso   1.00
C727   C     0.52694   0.69077   0.53000   0.00000  Uiso   1.00
C728   C     0.47306   0.97590   0.47000   0.00000  Uiso   1.00
C729   C     0.47305   0.69046   0.47001   0.00000  Uiso   1.00
C730   C     0.52695   0.97620   0.52999   0.00000  Uiso   1.00
H731   H     0.54849   0.70898   0.55404   0.00000  Uiso   1.00
H732   H     0.45152   0.95769   0.44596   0.00000  Uiso   1.00
H733   H     0.45147   0.70843   0.44601   0.00000  Uiso   1.00
H734   H     0.54853   0.95824   0.55399   0.00000  Uiso   1.00
N735   N     0.50000   0.95240   0.50000   0.00000  Uiso   1.00
N736   N     0.50000   0.71427   0.50000   0.00000  Uiso   1.00
N737   N     0.37797   0.78585   0.57552   0.00000  Uiso   1.00
O738   O     0.38443   0.74257   0.57283   0.00000  Uiso   1.00
O739   O     0.39621   0.80937   0.61056   0.00000  Uiso   1.00
N740   N     0.62204   0.88080   0.42447   0.00000  Uiso   1.00
O741   O     0.60308   0.85722   0.39001   0.00000  Uiso   1.00
O742   O     0.61629   0.92424   0.42664   0.00000  Uiso   1.00
N743   N     0.62317   0.78663   0.57723   0.00000  Uiso   1.00
O744   O     0.59719   0.80914   0.60488   0.00000  Uiso   1.00
O745   O     0.63005   0.74428   0.58709   0.00000  Uiso   1.00
N746   N     0.37684   0.88000   0.42278   0.00000  Uiso   1.00
O747   O     0.37036   0.92249   0.41329   0.00000  Uiso   1.00
O748   O     0.40263   0.85739   0.39497   0.00000  Uiso   1.00
O749   O     0.77226   0.87154   0.50000   0.00000  Uiso   1.00
O750   O     0.89441   0.79513   0.50000   0.00000  Uiso   1.00
O751   O     0.89441   0.87154   0.50000   0.00000  Uiso   1.00
O752   O     0.77226   0.79513   0.50000   0.00000  Uiso   1.00
C753   C     0.75346   0.83322   0.49970   0.00000  Uiso   1.00
C754   C     0.91321   0.83345   0.50032   0.00000  Uiso   1.00
O755   O     0.83334   0.87155   0.42845   0.00000  Uiso   1.00
O756   O     0.83333   0.79512   0.57155   0.00000  Uiso   1.00
O757   O     0.83333   0.87155   0.57155   0.00000  Uiso   1.00
O758   O     0.83334   0.79512   0.42845   0.00000  Uiso   1.00
C759   C     0.83346   0.83332   0.40623   0.00000  Uiso   1.00
C760   C     0.83318   0.83335   0.59377   0.00000  Uiso   1.00
Zn761  Zn    0.83333   0.88437   0.50000   0.00000  Uiso   1.00
Zn762  Zn    0.83333   0.78229   0.50000   0.00000  Uiso   1.00
C763   C     0.83337   0.83331   0.35513   0.00000  Uiso   1.00
C764   C     0.83326   0.83336   0.64487   0.00000  Uiso   1.00
C765   C     0.68849   0.80831   0.53656   0.00000  Uiso   1.00
C766   C     0.97818   0.85836   0.46345   0.00000  Uiso   1.00
C767   C     0.97861   0.80890   0.53750   0.00000  Uiso   1.00
C768   C     0.68806   0.85778   0.46253   0.00000  Uiso   1.00
C769   C     0.95736   0.83380   0.50071   0.00000  Uiso   1.00
C770   C     0.70930   0.83286   0.49931   0.00000  Uiso   1.00
C771   C     0.86028   0.69077   0.53000   0.00000  Uiso   1.00
C772   C     0.80639   0.97590   0.47000   0.00000  Uiso   1.00
C773   C     0.80638   0.69046   0.47001   0.00000  Uiso   1.00
C774   C     0.86029   0.97620   0.52999   0.00000  Uiso   1.00
H775   H     0.88182   0.70898   0.55404   0.00000  Uiso   1.00
H776   H     0.78485   0.95769   0.44596   0.00000  Uiso   1.00
H777   H     0.78480   0.70843   0.44601   0.00000  Uiso   1.00
H778   H     0.88187   0.95824   0.55399   0.00000  Uiso   1.00
N779   N     0.83333   0.95240   0.50000   0.00000  Uiso   1.00
N780   N     0.83333   0.71427   0.50000   0.00000  Uiso   1.00
N781   N     0.71130   0.78585   0.57552   0.00000  Uiso   1.00
O782   O     0.71776   0.74257   0.57283   0.00000  Uiso   1.00
O783   O     0.72954   0.80937   0.61056   0.00000  Uiso   1.00
N784   N     0.95537   0.88080   0.42447   0.00000  Uiso   1.00
O785   O     0.93642   0.85722   0.39001   0.00000  Uiso   1.00
O786   O     0.94963   0.92424   0.42664   0.00000  Uiso   1.00
N787   N     0.95650   0.78663   0.57723   0.00000  Uiso   1.00
O788   O     0.93053   0.80914   0.60488   0.00000  Uiso   1.00
O789   O     0.96339   0.74428   0.58709   0.00000  Uiso   1.00
N790   N     0.71018   0.88000   0.42278   0.00000  Uiso   1.00
O791   O     0.70369   0.92249   0.41329   0.00000  Uiso   1.00
O792   O     0.73597   0.85739   0.39497   0.00000  Uiso   1.00
O793   O     0.10559   0.20487   0.83333   0.00000  Uiso   1.00
O794   O     0.22774   0.12846   0.83334   0.00000  Uiso   1.00
O795   O     0.22774   0.20487   0.83334   0.00000  Uiso   1.00
O796   O     0.10559   0.12846   0.83333   0.00000  Uiso   1.00
C797   C     0.08679   0.16655   0.83303   0.00000  Uiso   1.00
C798   C     0.24654   0.16678   0.83365   0.00000  Uiso   1.00
O799   O     0.16667   0.20488   0.76178   0.00000  Uiso   1.00
O800   O     0.16666   0.12845   0.90489   0.00000  Uiso   1.00
O801   O     0.16666   0.20488   0.90489   0.00000  Uiso   1.00
O802   O     0.16667   0.12845   0.76178   0.00000  Uiso   1.00
C803   C     0.16679   0.16665   0.73956   0.00000  Uiso   1.00
C804   C     0.16652   0.16668   0.92710   0.00000  Uiso   1.00
Zn805  Zn    0.16667   0.21771   0.83333   0.00000  Uiso   1.00
Zn806  Zn    0.16667   0.11563   0.83333   0.00000  Uiso   1.00
C807   C     0.16671   0.16664   0.68846   0.00000  Uiso   1.00
C808   C     0.16659   0.16669   0.97820   0.00000  Uiso   1.00
C809   C     0.02182   0.14164   0.86989   0.00000  Uiso   1.00
C810   C     0.31151   0.19169   0.79679   0.00000  Uiso   1.00
C811   C     0.31194   0.14223   0.87084   0.00000  Uiso   1.00
C812   C     0.02139   0.19111   0.79586   0.00000  Uiso   1.00
C813   C     0.29070   0.16713   0.83404   0.00000  Uiso   1.00
C814   C     0.04264   0.16619   0.83264   0.00000  Uiso   1.00
C815   C     0.19361   0.02410   0.86333   0.00000  Uiso   1.00
C816   C     0.13973   0.30923   0.80333   0.00000  Uiso   1.00
C817   C     0.13971   0.02380   0.80335   0.00000  Uiso   1.00
C818   C     0.19362   0.30954   0.86332   0.00000  Uiso   1.00
H819   H     0.21515   0.04231   0.88737   0.00000  Uiso   1.00
H820   H     0.11819   0.29102   0.77929   0.00000  Uiso   1.00
H821   H     0.11813   0.04176   0.77934   0.00000  Uiso   1.00
H822   H     0.21520   0.29157   0.88733   0.00000  Uiso   1.00
N823   N     0.16667   0.28573   0.83333   0.00000  Uiso   1.00
N824   N     0.16667   0.04760   0.83333   0.00000  Uiso   1.00
N825   N     0.04464   0.11918   0.90886   0.00000  Uiso   1.00
O826   O     0.05109   0.07590   0.90617   0.00000  Uiso   1.00
O827   O     0.06288   0.14271   0.94389   0.00000  Uiso   1.00
N828   N     0.28870   0.21414   0.75780   0.00000  Uiso   1.00
O829   O     0.26975   0.19056   0.72334   0.00000  Uiso   1.00
O830   O     0.28296   0.25757   0.75997   0.00000  Uiso   1.00
N831   N     0.28984   0.11996   0.91057   0.00000  Uiso   1.00
O832   O     0.26386   0.14248   0.93822   0.00000  Uiso   1.00
O833   O     0.29672   0.07762   0.92043   0.00000  Uiso   1.00
N834   N     0.04351   0.21334   0.75612   0.00000  Uiso   1.00
O835   O     0.03702   0.25583   0.74662   0.00000  Uiso   1.00
O836   O     0.06930   0.19073   0.72830   0.00000  Uiso   1.00
O837   O     0.43892   0.20487   0.83333   0.00000  Uiso   1.00
O838   O     0.56108   0.12846   0.83334   0.00000  Uiso   1.00
O839   O     0.56108   0.20487   0.83334   0.00000  Uiso   1.00
O840   O     0.43892   0.12846   0.83333   0.00000  Uiso   1.00
C841   C     0.42013   0.16655   0.83303   0.00000  Uiso   1.00
C842   C     0.57987   0.16678   0.83365   0.00000  Uiso   1.00
O843   O     0.50000   0.20488   0.76178   0.00000  Uiso   1.00
O844   O     0.50000   0.12845   0.90489   0.00000  Uiso   1.00
O845   O     0.50000   0.20488   0.90489   0.00000  Uiso   1.00
O846   O     0.50000   0.12845   0.76178   0.00000  Uiso   1.00
C847   C     0.50013   0.16665   0.73956   0.00000  Uiso   1.00
C848   C     0.49985   0.16668   0.92710   0.00000  Uiso   1.00
Zn849  Zn    0.50000   0.21771   0.83333   0.00000  Uiso   1.00
Zn850  Zn    0.50000   0.11563   0.83333   0.00000  Uiso   1.00
C851   C     0.50004   0.16664   0.68846   0.00000  Uiso   1.00
C852   C     0.49993   0.16669   0.97820   0.00000  Uiso   1.00
C853   C     0.35516   0.14164   0.86989   0.00000  Uiso   1.00
C854   C     0.64485   0.19169   0.79679   0.00000  Uiso   1.00
C855   C     0.64528   0.14223   0.87084   0.00000  Uiso   1.00
C856   C     0.35473   0.19111   0.79586   0.00000  Uiso   1.00
C857   C     0.62403   0.16713   0.83404   0.00000  Uiso   1.00
C858   C     0.37597   0.16619   0.83264   0.00000  Uiso   1.00
C859   C     0.52694   0.02410   0.86333   0.00000  Uiso   1.00
C860   C     0.47306   0.30923   0.80333   0.00000  Uiso   1.00
C861   C     0.47305   0.02380   0.80335   0.00000  Uiso   1.00
C862   C     0.52695   0.30954   0.86332   0.00000  Uiso   1.00
H863   H     0.54849   0.04231   0.88737   0.00000  Uiso   1.00
H864   H     0.45152   0.29102   0.77929   0.00000  Uiso   1.00
H865   H     0.45147   0.04176   0.77934   0.00000  Uiso   1.00
H866   H     0.54853   0.29157   0.88733   0.00000  Uiso   1.00
N867   N     0.50000   0.28573   0.83333   0.00000  Uiso   1.00
N868   N     0.50000   0.04760   0.83333   0.00000  Uiso   1.00
N869   N     0.37797   0.11918   0.90886   0.00000  Uiso   1.00
O870   O     0.38443   0.07590   0.90617   0.00000  Uiso   1.00
O871   O     0.39621   0.14271   0.94389   0.00000  Uiso   1.00
N872   N     0.62204   0.21414   0.75780   0.00000  Uiso   1.00
O873   O     0.60308   0.19056   0.72334   0.00000  Uiso   1.00
O874   O     0.61629   0.25757   0.75997   0.00000  Uiso   1.00
N875   N     0.62317   0.11996   0.91057   0.00000  Uiso   1.00
O876   O     0.59719   0.14248   0.93822   0.00000  Uiso   1.00
O877   O     0.63005   0.07762   0.92043   0.00000  Uiso   1.00
N878   N     0.37684   0.21334   0.75612   0.00000  Uiso   1.00
O879   O     0.37036   0.25583   0.74662   0.00000  Uiso   1.00
O880   O     0.40263   0.19073   0.72830   0.00000  Uiso   1.00
O881   O     0.77226   0.20487   0.83333   0.00000  Uiso   1.00
O882   O     0.89441   0.12846   0.83334   0.00000  Uiso   1.00
O883   O     0.89441   0.20487   0.83334   0.00000  Uiso   1.00
O884   O     0.77226   0.12846   0.83333   0.00000  Uiso   1.00
C885   C     0.75346   0.16655   0.83303   0.00000  Uiso   1.00
C886   C     0.91321   0.16678   0.83365   0.00000  Uiso   1.00
O887   O     0.83334   0.20488   0.76178   0.00000  Uiso   1.00
O888   O     0.83333   0.12845   0.90489   0.00000  Uiso   1.00
O889   O     0.83333   0.20488   0.90489   0.00000  Uiso   1.00
O890   O     0.83334   0.12845   0.76178   0.00000  Uiso   1.00
C891   C     0.83346   0.16665   0.73956   0.00000  Uiso   1.00
C892   C     0.83318   0.16668   0.92710   0.00000  Uiso   1.00
Zn893  Zn    0.83333   0.21771   0.83333   0.00000  Uiso   1.00
Zn894  Zn    0.83333   0.11563   0.83333   0.00000  Uiso   1.00
C895   C     0.83337   0.16664   0.68846   0.00000  Uiso   1.00
C896   C     0.83326   0.16669   0.97820   0.00000  Uiso   1.00
C897   C     0.68849   0.14164   0.86989   0.00000  Uiso   1.00
C898   C     0.97818   0.19169   0.79679   0.00000  Uiso   1.00
C899   C     0.97861   0.14223   0.87084   0.00000  Uiso   1.00
C900   C     0.68806   0.19111   0.79586   0.00000  Uiso   1.00
C901   C     0.95736   0.16713   0.83404   0.00000  Uiso   1.00
C902   C     0.70930   0.16619   0.83264   0.00000  Uiso   1.00
C903   C     0.86028   0.02410   0.86333   0.00000  Uiso   1.00
C904   C     0.80639   0.30923   0.80333   0.00000  Uiso   1.00
C905   C     0.80638   0.02380   0.80335   0.00000  Uiso   1.00
C906   C     0.86029   0.30954   0.86332   0.00000  Uiso   1.00
H907   H     0.88182   0.04231   0.88737   0.00000  Uiso   1.00
H908   H     0.78485   0.29102   0.77929   0.00000  Uiso   1.00
H909   H     0.78480   0.04176   0.77934   0.00000  Uiso   1.00
H910   H     0.88187   0.29157   0.88733   0.00000  Uiso   1.00
N911   N     0.83333   0.28573   0.83333   0.00000  Uiso   1.00
N912   N     0.83333   0.04760   0.83333   0.00000  Uiso   1.00
N913   N     0.71130   0.11918   0.90886   0.00000  Uiso   1.00
O914   O     0.71776   0.07590   0.90617   0.00000  Uiso   1.00
O915   O     0.72954   0.14271   0.94389   0.00000  Uiso   1.00
N916   N     0.95537   0.21414   0.75780   0.00000  Uiso   1.00
O917   O     0.93642   0.19056   0.72334   0.00000  Uiso   1.00
O918   O     0.94963   0.25757   0.75997   0.00000  Uiso   1.00
N919   N     0.95650   0.11996   0.91057   0.00000  Uiso   1.00
O920   O     0.93053   0.14248   0.93822   0.00000  Uiso   1.00
O921   O     0.96339   0.07762   0.92043   0.00000  Uiso   1.00
N922   N     0.71018   0.21334   0.75612   0.00000  Uiso   1.00
O923   O     0.70369   0.25583   0.74662   0.00000  Uiso   1.00
O924   O     0.73597   0.19073   0.72830   0.00000  Uiso   1.00
O925   O     0.10559   0.53821   0.83333   0.00000  Uiso   1.00
O926   O     0.22774   0.46179   0.83334   0.00000  Uiso   1.00
O927   O     0.22774   0.53821   0.83334   0.00000  Uiso   1.00
O928   O     0.10559   0.46179   0.83333   0.00000  Uiso   1.00
C929   C     0.08679   0.49989   0.83303   0.00000  Uiso   1.00
C930   C     0.24654   0.50011   0.83365   0.00000  Uiso   1.00
O931   O     0.16667   0.53821   0.76178   0.00000  Uiso   1.00
O932   O     0.16666   0.46179   0.90489   0.00000  Uiso   1.00
O933   O     0.16666   0.53821   0.90489   0.00000  Uiso   1.00
O934   O     0.16667   0.46179   0.76178   0.00000  Uiso   1.00
C935   C     0.16679   0.49998   0.73956   0.00000  Uiso   1.00
C936   C     0.16652   0.50002   0.92710   0.00000  Uiso   1.00
Zn937  Zn    0.16667   0.55104   0.83333   0.00000  Uiso   1.00
Zn938  Zn    0.16667   0.44896   0.83333   0.00000  Uiso   1.00
C939   C     0.16671   0.49997   0.68846   0.00000  Uiso   1.00
C940   C     0.16659   0.50002   0.97820   0.00000  Uiso   1.00
C941   C     0.02182   0.47497   0.86989   0.00000  Uiso   1.00
C942   C     0.31151   0.52502   0.79679   0.00000  Uiso   1.00
C943   C     0.31194   0.47556   0.87084   0.00000  Uiso   1.00
C944   C     0.02139   0.52445   0.79586   0.00000  Uiso   1.00
C945   C     0.29070   0.50047   0.83404   0.00000  Uiso   1.00
C946   C     0.04264   0.49953   0.83264   0.00000  Uiso   1.00
C947   C     0.19361   0.35744   0.86333   0.00000  Uiso   1.00
C948   C     0.13973   0.64256   0.80333   0.00000  Uiso   1.00
C949   C     0.13971   0.35713   0.80335   0.00000  Uiso   1.00
C950   C     0.19362   0.64287   0.86332   0.00000  Uiso   1.00
H951   H     0.21515   0.37565   0.88737   0.00000  Uiso   1.00
H952   H     0.11819   0.62435   0.77929   0.00000  Uiso   1.00
H953   H     0.11813   0.37510   0.77934   0.00000  Uiso   1.00
H954   H     0.21520   0.62490   0.88733   0.00000  Uiso   1.00
N955   N     0.16667   0.61907   0.83333   0.00000  Uiso   1.00
N956   N     0.16667   0.38093   0.83333   0.00000  Uiso   1.00
N957   N     0.04464   0.45251   0.90886   0.00000  Uiso   1.00
O958   O     0.05109   0.40924   0.90617   0.00000  Uiso   1.00
O959   O     0.06288   0.47604   0.94389   0.00000  Uiso   1.00
N960   N     0.28870   0.54747   0.75780   0.00000  Uiso   1.00
O961   O     0.26975   0.52389   0.72334   0.00000  Uiso   1.00
O962   O     0.28296   0.59090   0.75997   0.00000  Uiso   1.00
N963   N     0.28984   0.45329   0.91057   0.00000  Uiso   1.00
O964   O     0.26386   0.47581   0.93822   0.00000  Uiso   1.00
O965   O     0.29672   0.41095   0.92043   0.00000  Uiso   1.00
N966   N     0.04351   0.54667   0.75612   0.00000  Uiso   1.00
O967   O     0.03702   0.58916   0.74662   0.00000  Uiso   1.00
O968   O     0.06930   0.52406   0.72830   0.00000  Uiso   1.00
O969   O     0.43892   0.53821   0.83333   0.00000  Uiso   1.00
O970   O     0.56108   0.46179   0.83334   0.00000  Uiso   1.00
O971   O     0.56108   0.53821   0.83334   0.00000  Uiso   1.00
O972   O     0.43892   0.46179   0.83333   0.00000  Uiso   1.00
C973   C     0.42013   0.49989   0.83303   0.00000  Uiso   1.00
C974   C     0.57987   0.50011   0.83365   0.00000  Uiso   1.00
O975   O     0.50000   0.53821   0.76178   0.00000  Uiso   1.00
O976   O     0.50000   0.46179   0.90489   0.00000  Uiso   1.00
O977   O     0.50000   0.53821   0.90489   0.00000  Uiso   1.00
O978   O     0.50000   0.46179   0.76178   0.00000  Uiso   1.00
C979   C     0.50013   0.49998   0.73956   0.00000  Uiso   1.00
C980   C     0.49985   0.50002   0.92710   0.00000  Uiso   1.00
Zn981  Zn    0.50000   0.55104   0.83333   0.00000  Uiso   1.00
Zn982  Zn    0.50000   0.44896   0.83333   0.00000  Uiso   1.00
C983   C     0.50004   0.49997   0.68846   0.00000  Uiso   1.00
C984   C     0.49993   0.50002   0.97820   0.00000  Uiso   1.00
C985   C     0.35516   0.47497   0.86989   0.00000  Uiso   1.00
C986   C     0.64485   0.52502   0.79679   0.00000  Uiso   1.00
C987   C     0.64528   0.47556   0.87084   0.00000  Uiso   1.00
C988   C     0.35473   0.52445   0.79586   0.00000  Uiso   1.00
C989   C     0.62403   0.50047   0.83404   0.00000  Uiso   1.00
C990   C     0.37597   0.49953   0.83264   0.00000  Uiso   1.00
C991   C     0.52694   0.35744   0.86333   0.00000  Uiso   1.00
C992   C     0.47306   0.64256   0.80333   0.00000  Uiso   1.00
C993   C     0.47305   0.35713   0.80335   0.00000  Uiso   1.00
C994   C     0.52695   0.64287   0.86332   0.00000  Uiso   1.00
H995   H     0.54849   0.37565   0.88737   0.00000  Uiso   1.00
H996   H     0.45152   0.62435   0.77929   0.00000  Uiso   1.00
H997   H     0.45147   0.37510   0.77934   0.00000  Uiso   1.00
H998   H     0.54853   0.62490   0.88733   0.00000  Uiso   1.00
N999   N     0.50000   0.61907   0.83333   0.00000  Uiso   1.00
N1000  N     0.50000   0.38093   0.83333   0.00000  Uiso   1.00
N1001  N     0.37797   0.45251   0.90886   0.00000  Uiso   1.00
O1002  O     0.38443   0.40924   0.90617   0.00000  Uiso   1.00
O1003  O     0.39621   0.47604   0.94389   0.00000  Uiso   1.00
N1004  N     0.62204   0.54747   0.75780   0.00000  Uiso   1.00
O1005  O     0.60308   0.52389   0.72334   0.00000  Uiso   1.00
O1006  O     0.61629   0.59090   0.75997   0.00000  Uiso   1.00
N1007  N     0.62317   0.45329   0.91057   0.00000  Uiso   1.00
O1008  O     0.59719   0.47581   0.93822   0.00000  Uiso   1.00
O1009  O     0.63005   0.41095   0.92043   0.00000  Uiso   1.00
N1010  N     0.37684   0.54667   0.75612   0.00000  Uiso   1.00
O1011  O     0.37036   0.58916   0.74662   0.00000  Uiso   1.00
O1012  O     0.40263   0.52406   0.72830   0.00000  Uiso   1.00
O1013  O     0.77226   0.53821   0.83333   0.00000  Uiso   1.00
O1014  O     0.89441   0.46179   0.83334   0.00000  Uiso   1.00
O1015  O     0.89441   0.53821   0.83334   0.00000  Uiso   1.00
O1016  O     0.77226   0.46179   0.83333   0.00000  Uiso   1.00
C1017  C     0.75346   0.49989   0.83303   0.00000  Uiso   1.00
C1018  C     0.91321   0.50011   0.83365   0.00000  Uiso   1.00
O1019  O     0.83334   0.53821   0.76178   0.00000  Uiso   1.00
O1020  O     0.83333   0.46179   0.90489   0.00000  Uiso   1.00
O1021  O     0.83333   0.53821   0.90489   0.00000  Uiso   1.00
O1022  O     0.83334   0.46179   0.76178   0.00000  Uiso   1.00
C1023  C     0.83346   0.49998   0.73956   0.00000  Uiso   1.00
C1024  C     0.83318   0.50002   0.92710   0.00000  Uiso   1.00
Zn1025 Zn    0.83333   0.55104   0.83333   0.00000  Uiso   1.00
Zn1026 Zn    0.83333   0.44896   0.83333   0.00000  Uiso   1.00
C1027  C     0.83337   0.49997   0.68846   0.00000  Uiso   1.00
C1028  C     0.83326   0.50002   0.97820   0.00000  Uiso   1.00
C1029  C     0.68849   0.47497   0.86989   0.00000  Uiso   1.00
C1030  C     0.97818   0.52502   0.79679   0.00000  Uiso   1.00
C1031  C     0.97861   0.47556   0.87084   0.00000  Uiso   1.00
C1032  C     0.68806   0.52445   0.79586   0.00000  Uiso   1.00
C1033  C     0.95736   0.50047   0.83404   0.00000  Uiso   1.00
C1034  C     0.70930   0.49953   0.83264   0.00000  Uiso   1.00
C1035  C     0.86028   0.35744   0.86333   0.00000  Uiso   1.00
C1036  C     0.80639   0.64256   0.80333   0.00000  Uiso   1.00
C1037  C     0.80638   0.35713   0.80335   0.00000  Uiso   1.00
C1038  C     0.86029   0.64287   0.86332   0.00000  Uiso   1.00
H1039  H     0.88182   0.37565   0.88737   0.00000  Uiso   1.00
H1040  H     0.78485   0.62435   0.77929   0.00000  Uiso   1.00
H1041  H     0.78480   0.37510   0.77934   0.00000  Uiso   1.00
H1042  H     0.88187   0.62490   0.88733   0.00000  Uiso   1.00
N1043  N     0.83333   0.61907   0.83333   0.00000  Uiso   1.00
N1044  N     0.83333   0.38093   0.83333   0.00000  Uiso   1.00
N1045  N     0.71130   0.45251   0.90886   0.00000  Uiso   1.00
O1046  O     0.71776   0.40924   0.90617   0.00000  Uiso   1.00
O1047  O     0.72954   0.47604   0.94389   0.00000  Uiso   1.00
N1048  N     0.95537   0.54747   0.75780   0.00000  Uiso   1.00
O1049  O     0.93642   0.52389   0.72334   0.00000  Uiso   1.00
O1050  O     0.94963   0.59090   0.75997   0.00000  Uiso   1.00
N1051  N     0.95650   0.45329   0.91057   0.00000  Uiso   1.00
O1052  O     0.93053   0.47581   0.93822   0.00000  Uiso   1.00
O1053  O     0.96339   0.41095   0.92043   0.00000  Uiso   1.00
N1054  N     0.71018   0.54667   0.75612   0.00000  Uiso   1.00
O1055  O     0.70369   0.58916   0.74662   0.00000  Uiso   1.00
O1056  O     0.73597   0.52406   0.72830   0.00000  Uiso   1.00
O1057  O     0.10559   0.87154   0.83333   0.00000  Uiso   1.00
O1058  O     0.22774   0.79513   0.83334   0.00000  Uiso   1.00
O1059  O     0.22774   0.87154   0.83334   0.00000  Uiso   1.00
O1060  O     0.10559   0.79513   0.83333   0.00000  Uiso   1.00
C1061  C     0.08679   0.83322   0.83303   0.00000  Uiso   1.00
C1062  C     0.24654   0.83345   0.83365   0.00000  Uiso   1.00
O1063  O     0.16667   0.87155   0.76178   0.00000  Uiso   1.00
O1064  O     0.16666   0.79512   0.90489   0.00000  Uiso   1.00
O1065  O     0.16666   0.87155   0.90489   0.00000  Uiso   1.00
O1066  O     0.16667   0.79512   0.76178   0.00000  Uiso   1.00
C1067  C     0.16679   0.83332   0.73956   0.00000  Uiso   1.00
C1068  C     0.16652   0.83335   0.92710   0.00000  Uiso   1.00
Zn1069 Zn    0.16667   0.88437   0.83333   0.00000  Uiso   1.00
Zn1070 Zn    0.16667   0.78229   0.83333   0.00000  Uiso   1.00
C1071  C     0.16671   0.83331   0.68846   0.00000  Uiso   1.00
C1072  C     0.16659   0.83336   0.97820   0.00000  Uiso   1.00
C1073  C     0.02182   0.80831   0.86989   0.00000  Uiso   1.00
C1074  C     0.31151   0.85836   0.79679   0.00000  Uiso   1.00
C1075  C     0.31194   0.80890   0.87084   0.00000  Uiso   1.00
C1076  C     0.02139   0.85778   0.79586   0.00000  Uiso   1.00
C1077  C     0.29070   0.83380   0.83404   0.00000  Uiso   1.00
C1078  C     0.04264   0.83286   0.83264   0.00000  Uiso   1.00
C1079  C     0.19361   0.69077   0.86333   0.00000  Uiso   1.00
C1080  C     0.13973   0.97590   0.80333   0.00000  Uiso   1.00
C1081  C     0.13971   0.69046   0.80335   0.00000  Uiso   1.00
C1082  C     0.19362   0.97620   0.86332   0.00000  Uiso   1.00
H1083  H     0.21515   0.70898   0.88737   0.00000  Uiso   1.00
H1084  H     0.11819   0.95769   0.77929   0.00000  Uiso   1.00
H1085  H     0.11813   0.70843   0.77934   0.00000  Uiso   1.00
H1086  H     0.21520   0.95824   0.88733   0.00000  Uiso   1.00
N1087  N     0.16667   0.95240   0.83333   0.00000  Uiso   1.00
N1088  N     0.16667   0.71427   0.83333   0.00000  Uiso   1.00
N1089  N     0.04464   0.78585   0.90886   0.00000  Uiso   1.00
O1090  O     0.05109   0.74257   0.90617   0.00000  Uiso   1.00
O1091  O     0.06288   0.80937   0.94389   0.00000  Uiso   1.00
N1092  N     0.28870   0.88080   0.75780   0.00000  Uiso   1.00
O1093  O     0.26975   0.85722   0.72334   0.00000  Uiso   1.00
O1094  O     0.28296   0.92424   0.75997   0.00000  Uiso   1.00
N1095  N     0.28984   0.78663   0.91057   0.00000  Uiso   1.00
O1096  O     0.26386   0.80914   0.93822   0.00000  Uiso   1.00
O1097  O     0.29672   0.74428   0.92043   0.00000  Uiso   1.00
N1098  N     0.04351   0.88000   0.75612   0.00000  Uiso   1.00
O1099  O     0.03702   0.92249   0.74662   0.00000  Uiso   1.00
O1100  O     0.06930   0.85739   0.72830   0.00000  Uiso   1.00
O1101  O     0.43892   0.87154   0.83333   0.00000  Uiso   1.00
O1102  O     0.56108   0.79513   0.83334   0.00000  Uiso   1.00
O1103  O     0.56108   0.87154   0.83334   0.00000  Uiso   1.00
O1104  O     0.43892   0.79513   0.83333   0.00000  Uiso   1.00
C1105  C     0.42013   0.83322   0.83303   0.00000  Uiso   1.00
C1106  C     0.57987   0.83345   0.83365   0.00000  Uiso   1.00
O1107  O     0.50000   0.87155   0.76178   0.00000  Uiso   1.00
O1108  O     0.50000   0.79512   0.90489   0.00000  Uiso   1.00
O1109  O     0.50000   0.87155   0.90489   0.00000  Uiso   1.00
O1110  O     0.50000   0.79512   0.76178   0.00000  Uiso   1.00
C1111  C     0.50013   0.83332   0.73956   0.00000  Uiso   1.00
C1112  C     0.49985   0.83335   0.92710   0.00000  Uiso   1.00
Zn1113 Zn    0.50000   0.88437   0.83333   0.00000  Uiso   1.00
Zn1114 Zn    0.50000   0.78229   0.83333   0.00000  Uiso   1.00
C1115  C     0.50004   0.83331   0.68846   0.00000  Uiso   1.00
C1116  C     0.49993   0.83336   0.97820   0.00000  Uiso   1.00
C1117  C     0.35516   0.80831   0.86989   0.00000  Uiso   1.00
C1118  C     0.64485   0.85836   0.79679   0.00000  Uiso   1.00
C1119  C     0.64528   0.80890   0.87084   0.00000  Uiso   1.00
C1120  C     0.35473   0.85778   0.79586   0.00000  Uiso   1.00
C1121  C     0.62403   0.83380   0.83404   0.00000  Uiso   1.00
C1122  C     0.37597   0.83286   0.83264   0.00000  Uiso   1.00
C1123  C     0.52694   0.69077   0.86333   0.00000  Uiso   1.00
C1124  C     0.47306   0.97590   0.80333   0.00000  Uiso   1.00
C1125  C     0.47305   0.69046   0.80335   0.00000  Uiso   1.00
C1126  C     0.52695   0.97620   0.86332   0.00000  Uiso   1.00
H1127  H     0.54849   0.70898   0.88737   0.00000  Uiso   1.00
H1128  H     0.45152   0.95769   0.77929   0.00000  Uiso   1.00
H1129  H     0.45147   0.70843   0.77934   0.00000  Uiso   1.00
H1130  H     0.54853   0.95824   0.88733   0.00000  Uiso   1.00
N1131  N     0.50000   0.95240   0.83333   0.00000  Uiso   1.00
N1132  N     0.50000   0.71427   0.83333   0.00000  Uiso   1.00
N1133  N     0.37797   0.78585   0.90886   0.00000  Uiso   1.00
O1134  O     0.38443   0.74257   0.90617   0.00000  Uiso   1.00
O1135  O     0.39621   0.80937   0.94389   0.00000  Uiso   1.00
N1136  N     0.62204   0.88080   0.75780   0.00000  Uiso   1.00
O1137  O     0.60308   0.85722   0.72334   0.00000  Uiso   1.00
O1138  O     0.61629   0.92424   0.75997   0.00000  Uiso   1.00
N1139  N     0.62317   0.78663   0.91057   0.00000  Uiso   1.00
O1140  O     0.59719   0.80914   0.93822   0.00000  Uiso   1.00
O1141  O     0.63005   0.74428   0.92043   0.00000  Uiso   1.00
N1142  N     0.37684   0.88000   0.75612   0.00000  Uiso   1.00
O1143  O     0.37036   0.92249   0.74662   0.00000  Uiso   1.00
O1144  O     0.40263   0.85739   0.72830   0.00000  Uiso   1.00
O1145  O     0.77226   0.87154   0.83333   0.00000  Uiso   1.00
O1146  O     0.89441   0.79513   0.83334   0.00000  Uiso   1.00
O1147  O     0.89441   0.87154   0.83334   0.00000  Uiso   1.00
O1148  O     0.77226   0.79513   0.83333   0.00000  Uiso   1.00
C1149  C     0.75346   0.83322   0.83303   0.00000  Uiso   1.00
C1150  C     0.91321   0.83345   0.83365   0.00000  Uiso   1.00
O1151  O     0.83334   0.87155   0.76178   0.00000  Uiso   1.00
O1152  O     0.83333   0.79512   0.90489   0.00000  Uiso   1.00
O1153  O     0.83333   0.87155   0.90489   0.00000  Uiso   1.00
O1154  O     0.83334   0.79512   0.76178   0.00000  Uiso   1.00
C1155  C     0.83346   0.83332   0.73956   0.00000  Uiso   1.00
C1156  C     0.83318   0.83335   0.92710   0.00000  Uiso   1.00
Zn1157 Zn    0.83333   0.88437   0.83333   0.00000  Uiso   1.00
Zn1158 Zn    0.83333   0.78229   0.83333   0.00000  Uiso   1.00
C1159  C     0.83337   0.83331   0.68846   0.00000  Uiso   1.00
C1160  C     0.83326   0.83336   0.97820   0.00000  Uiso   1.00
C1161  C     0.68849   0.80831   0.86989   0.00000  Uiso   1.00
C1162  C     0.97818   0.85836   0.79679   0.00000  Uiso   1.00
C1163  C     0.97861   0.80890   0.87084   0.00000  Uiso   1.00
C1164  C     0.68806   0.85778   0.79586   0.00000  Uiso   1.00
C1165  C     0.95736   0.83380   0.83404   0.00000  Uiso   1.00
C1166  C     0.70930   0.83286   0.83264   0.00000  Uiso   1.00
C1167  C     0.86028   0.69077   0.86333   0.00000  Uiso   1.00
C1168  C     0.80639   0.97590   0.80333   0.00000  Uiso   1.00
C1169  C     0.80638   0.69046   0.80335   0.00000  Uiso   1.00
C1170  C     0.86029   0.97620   0.86332   0.00000  Uiso   1.00
H1171  H     0.88182   0.70898   0.88737   0.00000  Uiso   1.00
H1172  H     0.78485   0.95769   0.77929   0.00000  Uiso   1.00
H1173  H     0.78480   0.70843   0.77934   0.00000  Uiso   1.00
H1174  H     0.88187   0.95824   0.88733   0.00000  Uiso   1.00
N1175  N     0.83333   0.95240   0.83333   0.00000  Uiso   1.00
N1176  N     0.83333   0.71427   0.83333   0.00000  Uiso   1.00
N1177  N     0.71130   0.78585   0.90886   0.00000  Uiso   1.00
O1178  O     0.71776   0.74257   0.90617   0.00000  Uiso   1.00
O1179  O     0.72954   0.80937   0.94389   0.00000  Uiso   1.00
N1180  N     0.95537   0.88080   0.75780   0.00000  Uiso   1.00
O1181  O     0.93642   0.85722   0.72334   0.00000  Uiso   1.00
O1182  O     0.94963   0.92424   0.75997   0.00000  Uiso   1.00
N1183  N     0.95650   0.78663   0.91057   0.00000  Uiso   1.00
O1184  O     0.93053   0.80914   0.93822   0.00000  Uiso   1.00
O1185  O     0.96339   0.74428   0.92043   0.00000  Uiso   1.00
N1186  N     0.71018   0.88000   0.75612   0.00000  Uiso   1.00
O1187  O     0.70369   0.92249   0.74662   0.00000  Uiso   1.00
O1188  O     0.73597   0.85739   0.72830   0.00000  Uiso   1.00
loop_
_geom_bond_atom_site_label_1
_geom_bond_atom_site_label_2
_geom_bond_distance
_geom_bond_site_symmetry_2
_ccdc_geom_bond_type
O1     C5      1.282   .     A
O1     Zn13    1.989   .     S
O2     C6      1.282   .     A
O2     Zn14    1.989   .     S
O3     Zn13    1.992   .     S
O3     C6      1.280   .     A
O4     Zn14    1.992   .     S
O4     C5      1.280   .     A
C5     C22     1.413   .     S
C6     C21     1.413   .     S
O7     C11     1.278   .     A
O7     Zn13    1.949   .     S
O8     C12     1.278   .     A
O8     Zn14    1.949   .     S
O9     C12     1.278   .     A
O9     Zn13    1.950   .     S
O10    C11     1.278   .     A
O10    Zn14    1.950   .     S
C11    C15     1.366   .     S
C12    C16     1.366   .     S
Zn13   N31     2.014   .     S
Zn14   N32     2.014   .     S
C15    C808    1.165   1_554 S
C16    C411    1.165   .     S
C17    C22     1.403   .     A
C17    N33     1.434   .     S
C17    C107    1.383   1_455 S
C18    C21     1.403   .     A
C18    N36     1.434   .     S
C18    C64     1.383   .     S
C19    N39     1.438   .     S
C19    C21     1.404   .     A
C19    C61     1.383   .     S
C20    N42     1.438   .     S
C20    C22     1.404   .     A
C20    C106    1.383   1_455 S
C23    H27     1.082   .     S
C23    N32     1.367   .     A
C23    C290    1.418   1_545 S
C24    N31     1.367   .     A
C24    H28     1.082   .     S
C24    C157    1.418   .     S
C25    N32     1.367   .     A
C25    H29     1.082   .     S
C25    C288    1.418   1_545 S
C26    N31     1.367   .     A
C26    H30     1.082   .     S
C26    C155    1.418   .     S
N33    O34     1.301   .     A
N33    O35     1.301   .     A
N36    O38     1.301   .     A
N36    O37     1.301   .     A
N39    O41     1.301   .     A
N39    O40     1.301   .     A
N42    O44     1.301   .     A
N42    O43     1.301   .     A
O45    C49     1.282   .     A
O45    Zn57    1.989   .     S
O46    C50     1.282   .     A
O46    Zn58    1.989   .     S
O47    Zn57    1.992   .     S
O47    C50     1.280   .     A
O48    Zn58    1.992   .     S
O48    C49     1.280   .     A
C49    C66     1.413   .     S
C50    C65     1.413   .     S
O51    C55     1.278   .     A
O51    Zn57    1.949   .     S
O52    C56     1.278   .     A
O52    Zn58    1.949   .     S
O53    C56     1.278   .     A
O53    Zn57    1.950   .     S
O54    C55     1.278   .     A
O54    Zn58    1.950   .     S
C55    C59     1.366   .     S
C56    C60     1.366   .     S
Zn57   N75     2.014   .     S
Zn58   N76     2.014   .     S
C59    C852    1.165   1_554 S
C60    C455    1.165   .     S
C61    C66     1.403   .     A
C61    N77     1.434   .     S
C62    C65     1.403   .     A
C62    N80     1.434   .     S
C62    C108    1.383   .     S
C63    N83     1.438   .     S
C63    C65     1.404   .     A
C63    C105    1.383   .     S
C64    N86     1.438   .     S
C64    C66     1.404   .     A
C67    H71     1.082   .     S
C67    N76     1.367   .     A
C67    C334    1.418   1_545 S
C68    N75     1.367   .     A
C68    H72     1.082   .     S
C68    C201    1.418   .     S
C69    N76     1.367   .     A
C69    H73     1.082   .     S
C69    C332    1.418   1_545 S
C70    N75     1.367   .     A
C70    H74     1.082   .     S
C70    C199    1.418   .     S
N77    O78     1.301   .     A
N77    O79     1.301   .     A
N80    O82     1.301   .     A
N80    O81     1.301   .     A
N83    O85     1.301   .     A
N83    O84     1.301   .     A
N86    O88     1.301   .     A
N86    O87     1.301   .     A
O89    C93     1.282   .     A
O89    Zn101   1.989   .     S
O90    C94     1.282   .     A
O90    Zn102   1.989   .     S
O91    Zn101   1.992   .     S
O91    C94     1.280   .     A
O92    Zn102   1.992   .     S
O92    C93     1.280   .     A
C93    C110    1.413   .     S
C94    C109    1.413   .     S
O95    C99     1.278   .     A
O95    Zn101   1.949   .     S
O96    C100    1.278   .     A
O96    Zn102   1.949   .     S
O97    C100    1.278   .     A
O97    Zn101   1.950   .     S
O98    C99     1.278   .     A
O98    Zn102   1.950   .     S
C99    C103    1.366   .     S
C100   C104    1.366   .     S
Zn101  N119    2.014   .     S
Zn102  N120    2.014   .     S
C103   C896    1.165   1_554 S
C104   C499    1.165   .     S
C105   C110    1.403   .     A
C105   N121    1.434   .     S
C106   C109    1.403   .     A
C106   N124    1.434   .     S
C106   C20     1.383   1_655 S
C107   N127    1.438   .     S
C107   C109    1.404   .     A
C107   C17     1.383   1_655 S
C108   N130    1.438   .     S
C108   C110    1.404   .     A
C111   H115    1.082   .     S
C111   N120    1.367   .     A
C111   C378    1.418   1_545 S
C112   N119    1.367   .     A
C112   H116    1.082   .     S
C112   C245    1.418   .     S
C113   N120    1.367   .     A
C113   H117    1.082   .     S
C113   C376    1.418   1_545 S
C114   N119    1.367   .     A
C114   H118    1.082   .     S
C114   C243    1.418   .     S
N121   O122    1.301   .     A
N121   O123    1.301   .     A
N124   O126    1.301   .     A
N124   O125    1.301   .     A
N127   O129    1.301   .     A
N127   O128    1.301   .     A
N130   O132    1.301   .     A
N130   O131    1.301   .     A
O133   C137    1.282   .     A
O133   Zn145   1.989   .     S
O134   C138    1.282   .     A
O134   Zn146   1.989   .     S
O135   Zn145   1.992   .     S
O135   C138    1.280   .     A
O136   Zn146   1.992   .     S
O136   C137    1.280   .     A
C137   C154    1.413   .     S
C138   C153    1.413   .     S
O139   C143    1.278   .     A
O139   Zn145   1.949   .     S
O140   C144    1.278   .     A
O140   Zn146   1.949   .     S
O141   C144    1.278   .     A
O141   Zn145   1.950   .     S
O142   C143    1.278   .     A
O142   Zn146   1.950   .     S
C143   C147    1.366   .     S
C144   C148    1.366   .     S
Zn145  N163    2.014   .     S
Zn146  N164    2.014   .     S
C147   C940    1.165   1_554 S
C148   C543    1.165   .     S
C149   C154    1.403   .     A
C149   N165    1.434   .     S
C149   C239    1.383   1_455 S
C150   C153    1.403   .     A
C150   N168    1.434   .     S
C150   C196    1.383   .     S
C151   N171    1.438   .     S
C151   C153    1.404   .     A
C151   C193    1.383   .     S
C152   N174    1.438   .     S
C152   C154    1.404   .     A
C152   C238    1.383   1_455 S
C155   H159    1.082   .     S
C155   N164    1.367   .     A
C156   N163    1.367   .     A
C156   H160    1.082   .     S
C156   C289    1.418   .     S
C157   N164    1.367   .     A
C157   H161    1.082   .     S
C158   N163    1.367   .     A
C158   H162    1.082   .     S
C158   C287    1.418   .     S
N165   O166    1.301   .     A
N165   O167    1.301   .     A
N168   O170    1.301   .     A
N168   O169    1.301   .     A
N171   O173    1.301   .     A
N171   O172    1.301   .     A
N174   O176    1.301   .     A
N174   O175    1.301   .     A
O177   C181    1.282   .     A
O177   Zn189   1.989   .     S
O178   C182    1.282   .     A
O178   Zn190   1.989   .     S
O179   Zn189   1.992   .     S
O179   C182    1.280   .     A
O180   Zn190   1.992   .     S
O180   C181    1.280   .     A
C181   C198    1.413   .     S
C182   C197    1.413   .     S
O183   C187    1.278   .     A
O183   Zn189   1.949   .     S
O184   C188    1.278   .     A
O184   Zn190   1.949   .     S
O185   C188    1.278   .     A
O185   Zn189   1.950   .     S
O186   C187    1.278   .     A
O186   Zn190   1.950   .     S
C187   C191    1.366   .     S
C188   C192    1.366   .     S
Zn189  N207    2.014   .     S
Zn190  N208    2.014   .     S
C191   C984    1.165   1_554 S
C192   C587    1.165   .     S
C193   C198    1.403   .     A
C193   N209    1.434   .     S
C194   C197    1.403   .     A
C194   N212    1.434   .     S
C194   C240    1.383   .     S
C195   N215    1.438   .     S
C195   C197    1.404   .     A
C195   C237    1.383   .     S
C196   N218    1.438   .     S
C196   C198    1.404   .     A
C199   H203    1.082   .     S
C199   N208    1.367   .     A
C200   N207    1.367   .     A
C200   H204    1.082   .     S
C200   C333    1.418   .     S
C201   N208    1.367   .     A
C201   H205    1.082   .     S
C202   N207    1.367   .     A
C202   H206    1.082   .     S
C202   C331    1.418   .     S
N209   O210    1.301   .     A
N209   O211    1.301   .     A
N212   O214    1.301   .     A
N212   O213    1.301   .     A
N215   O217    1.301   .     A
N215   O216    1.301   .     A
N218   O220    1.301   .     A
N218   O219    1.301   .     A
O221   C225    1.282   .     A
O221   Zn233   1.989   .     S
O222   C226    1.282   .     A
O222   Zn234   1.989   .     S
O223   Zn233   1.992   .     S
O223   C226    1.280   .     A
O224   Zn234   1.992   .     S
O224   C225    1.280   .     A
C225   C242    1.413   .     S
C226   C241    1.413   .     S
O227   C231    1.278   .     A
O227   Zn233   1.949   .     S
O228   C232    1.278   .     A
O228   Zn234   1.949   .     S
O229   C232    1.278   .     A
O229   Zn233   1.950   .     S
O230   C231    1.278   .     A
O230   Zn234   1.950   .     S
C231   C235    1.366   .     S
C232   C236    1.366   .     S
Zn233  N251    2.014   .     S
Zn234  N252    2.014   .     S
C235   C1028   1.165   1_554 S
C236   C631    1.165   .     S
C237   C242    1.403   .     A
C237   N253    1.434   .     S
C238   C241    1.403   .     A
C238   N256    1.434   .     S
C238   C152    1.383   1_655 S
C239   N259    1.438   .     S
C239   C241    1.404   .     A
C239   C149    1.383   1_655 S
C240   N262    1.438   .     S
C240   C242    1.404   .     A
C243   H247    1.082   .     S
C243   N252    1.367   .     A
C244   N251    1.367   .     A
C244   H248    1.082   .     S
C244   C377    1.418   .     S
C245   N252    1.367   .     A
C245   H249    1.082   .     S
C246   N251    1.367   .     A
C246   H250    1.082   .     S
C246   C375    1.418   .     S
N253   O254    1.301   .     A
N253   O255    1.301   .     A
N256   O258    1.301   .     A
N256   O257    1.301   .     A
N259   O261    1.301   .     A
N259   O260    1.301   .     A
N262   O264    1.301   .     A
N262   O263    1.301   .     A
O265   C269    1.282   .     A
O265   Zn277   1.989   .     S
O266   C270    1.282   .     A
O266   Zn278   1.989   .     S
O267   Zn277   1.992   .     S
O267   C270    1.280   .     A
O268   Zn278   1.992   .     S
O268   C269    1.280   .     A
C269   C286    1.413   .     S
C270   C285    1.413   .     S
O271   C275    1.278   .     A
O271   Zn277   1.949   .     S
O272   C276    1.278   .     A
O272   Zn278   1.949   .     S
O273   C276    1.278   .     A
O273   Zn277   1.950   .     S
O274   C275    1.278   .     A
O274   Zn278   1.950   .     S
C275   C279    1.366   .     S
C276   C280    1.366   .     S
Zn277  N295    2.014   .     S
Zn278  N296    2.014   .     S
C279   C1072   1.165   1_554 S
C280   C675    1.165   .     S
C281   C286    1.403   .     A
C281   N297    1.434   .     S
C281   C371    1.383   1_455 S
C282   C285    1.403   .     A
C282   N300    1.434   .     S
C282   C328    1.383   .     S
C283   N303    1.438   .     S
C283   C285    1.404   .     A
C283   C325    1.383   .     S
C284   N306    1.438   .     S
C284   C286    1.404   .     A
C284   C370    1.383   1_455 S
C287   H291    1.082   .     S
C287   N296    1.367   .     A
C288   N295    1.367   .     A
C288   H292    1.082   .     S
C288   C25     1.418   1_565 S
C289   N296    1.367   .     A
C289   H293    1.082   .     S
C290   N295    1.367   .     A
C290   H294    1.082   .     S
C290   C23     1.418   1_565 S
N297   O298    1.301   .     A
N297   O299    1.301   .     A
N300   O302    1.301   .     A
N300   O301    1.301   .     A
N303   O305    1.301   .     A
N303   O304    1.301   .     A
N306   O308    1.301   .     A
N306   O307    1.301   .     A
O309   C313    1.282   .     A
O309   Zn321   1.989   .     S
O310   C314    1.282   .     A
O310   Zn322   1.989   .     S
O311   Zn321   1.992   .     S
O311   C314    1.280   .     A
O312   Zn322   1.992   .     S
O312   C313    1.280   .     A
C313   C330    1.413   .     S
C314   C329    1.413   .     S
O315   C319    1.278   .     A
O315   Zn321   1.949   .     S
O316   C320    1.278   .     A
O316   Zn322   1.949   .     S
O317   C320    1.278   .     A
O317   Zn321   1.950   .     S
O318   C319    1.278   .     A
O318   Zn322   1.950   .     S
C319   C323    1.366   .     S
C320   C324    1.366   .     S
Zn321  N339    2.014   .     S
Zn322  N340    2.014   .     S
C323   C1116   1.165   1_554 S
C324   C719    1.165   .     S
C325   C330    1.403   .     A
C325   N341    1.434   .     S
C326   C329    1.403   .     A
C326   N344    1.434   .     S
C326   C372    1.383   .     S
C327   N347    1.438   .     S
C327   C329    1.404   .     A
C327   C369    1.383   .     S
C328   N350    1.438   .     S
C328   C330    1.404   .     A
C331   H335    1.082   .     S
C331   N340    1.367   .     A
C332   N339    1.367   .     A
C332   H336    1.082   .     S
C332   C69     1.418   1_565 S
C333   N340    1.367   .     A
C333   H337    1.082   .     S
C334   N339    1.367   .     A
C334   H338    1.082   .     S
C334   C67     1.418   1_565 S
N341   O342    1.301   .     A
N341   O343    1.301   .     A
N344   O346    1.301   .     A
N344   O345    1.301   .     A
N347   O349    1.301   .     A
N347   O348    1.301   .     A
N350   O352    1.301   .     A
N350   O351    1.301   .     A
O353   C357    1.282   .     A
O353   Zn365   1.989   .     S
O354   C358    1.282   .     A
O354   Zn366   1.989   .     S
O355   Zn365   1.992   .     S
O355   C358    1.280   .     A
O356   Zn366   1.992   .     S
O356   C357    1.280   .     A
C357   C374    1.413   .     S
C358   C373    1.413   .     S
O359   C363    1.278   .     A
O359   Zn365   1.949   .     S
O360   C364    1.278   .     A
O360   Zn366   1.949   .     S
O361   C364    1.278   .     A
O361   Zn365   1.950   .     S
O362   C363    1.278   .     A
O362   Zn366   1.950   .     S
C363   C367    1.366   .     S
C364   C368    1.366   .     S
Zn365  N383    2.014   .     S
Zn366  N384    2.014   .     S
C367   C1160   1.165   1_554 S
C368   C763    1.165   .     S
C369   C374    1.403   .     A
C369   N385    1.434   .     S
C370   C373    1.403   .     A
C370   N388    1.434   .     S
C370   C284    1.383   1_655 S
C371   N391    1.438   .     S
C371   C373    1.404   .     A
C371   C281    1.383   1_655 S
C372   N394    1.438   .     S
C372   C374    1.404   .     A
C375   H379    1.082   .     S
C375   N384    1.367   .     A
C376   N383    1.367   .     A
C376   H380    1.082   .     S
C376   C113    1.418   1_565 S
C377   N384    1.367   .     A
C377   H381    1.082   .     S
C378   N383    1.367   .     A
C378   H382    1.082   .     S
C378   C111    1.418   1_565 S
N385   O386    1.301   .     A
N385   O387    1.301   .     A
N388   O390    1.301   .     A
N388   O389    1.301   .     A
N391   O393    1.301   .     A
N391   O392    1.301   .     A
N394   O396    1.301   .     A
N394   O395    1.301   .     A
O397   C401    1.282   .     A
O397   Zn409   1.989   .     S
O398   C402    1.282   .     A
O398   Zn410   1.989   .     S
O399   Zn409   1.992   .     S
O399   C402    1.280   .     A
O400   Zn410   1.992   .     S
O400   C401    1.280   .     A
C401   C418    1.413   .     S
C402   C417    1.413   .     S
O403   C407    1.278   .     A
O403   Zn409   1.949   .     S
O404   C408    1.278   .     A
O404   Zn410   1.949   .     S
O405   C408    1.278   .     A
O405   Zn409   1.950   .     S
O406   C407    1.278   .     A
O406   Zn410   1.950   .     S
C407   C411    1.366   .     S
C408   C412    1.366   .     S
Zn409  N427    2.014   .     S
Zn410  N428    2.014   .     S
C412   C807    1.165   .     S
C413   C418    1.403   .     A
C413   N429    1.434   .     S
C413   C503    1.383   1_455 S
C414   C417    1.403   .     A
C414   N432    1.434   .     S
C414   C460    1.383   .     S
C415   N435    1.438   .     S
C415   C417    1.404   .     A
C415   C457    1.383   .     S
C416   N438    1.438   .     S
C416   C418    1.404   .     A
C416   C502    1.383   1_455 S
C419   H423    1.082   .     S
C419   N428    1.367   .     A
C419   C686    1.418   1_545 S
C420   N427    1.367   .     A
C420   H424    1.082   .     S
C420   C553    1.418   .     S
C421   N428    1.367   .     A
C421   H425    1.082   .     S
C421   C684    1.418   1_545 S
C422   N427    1.367   .     A
C422   H426    1.082   .     S
C422   C551    1.418   .     S
N429   O430    1.301   .     A
N429   O431    1.301   .     A
N432   O434    1.301   .     A
N432   O433    1.301   .     A
N435   O437    1.301   .     A
N435   O436    1.301   .     A
N438   O440    1.301   .     A
N438   O439    1.301   .     A
O441   C445    1.282   .     A
O441   Zn453   1.989   .     S
O442   C446    1.282   .     A
O442   Zn454   1.989   .     S
O443   Zn453   1.992   .     S
O443   C446    1.280   .     A
O444   Zn454   1.992   .     S
O444   C445    1.280   .     A
C445   C462    1.413   .     S
C446   C461    1.413   .     S
O447   C451    1.278   .     A
O447   Zn453   1.949   .     S
O448   C452    1.278   .     A
O448   Zn454   1.949   .     S
O449   C452    1.278   .     A
O449   Zn453   1.950   .     S
O450   C451    1.278   .     A
O450   Zn454   1.950   .     S
C451   C455    1.366   .     S
C452   C456    1.366   .     S
Zn453  N471    2.014   .     S
Zn454  N472    2.014   .     S
C456   C851    1.165   .     S
C457   C462    1.403   .     A
C457   N473    1.434   .     S
C458   C461    1.403   .     A
C458   N476    1.434   .     S
C458   C504    1.383   .     S
C459   N479    1.438   .     S
C459   C461    1.404   .     A
C459   C501    1.383   .     S
C460   N482    1.438   .     S
C460   C462    1.404   .     A
C463   H467    1.082   .     S
C463   N472    1.367   .     A
C463   C730    1.418   1_545 S
C464   N471    1.367   .     A
C464   H468    1.082   .     S
C464   C597    1.418   .     S
C465   N472    1.367   .     A
C465   H469    1.082   .     S
C465   C728    1.418   1_545 S
C466   N471    1.367   .     A
C466   H470    1.082   .     S
C466   C595    1.418   .     S
N473   O474    1.301   .     A
N473   O475    1.301   .     A
N476   O478    1.301   .     A
N476   O477    1.301   .     A
N479   O481    1.301   .     A
N479   O480    1.301   .     A
N482   O484    1.301   .     A
N482   O483    1.301   .     A
O485   C489    1.282   .     A
O485   Zn497   1.989   .     S
O486   C490    1.282   .     A
O486   Zn498   1.989   .     S
O487   Zn497   1.992   .     S
O487   C490    1.280   .     A
O488   Zn498   1.992   .     S
O488   C489    1.280   .     A
C489   C506    1.413   .     S
C490   C505    1.413   .     S
O491   C495    1.278   .     A
O491   Zn497   1.949   .     S
O492   C496    1.278   .     A
O492   Zn498   1.949   .     S
O493   C496    1.278   .     A
O493   Zn497   1.950   .     S
O494   C495    1.278   .     A
O494   Zn498   1.950   .     S
C495   C499    1.366   .     S
C496   C500    1.366   .     S
Zn497  N515    2.014   .     S
Zn498  N516    2.014   .     S
C500   C895    1.165   .     S
C501   C506    1.403   .     A
C501   N517    1.434   .     S
C502   C505    1.403   .     A
C502   N520    1.434   .     S
C502   C416    1.383   1_655 S
C503   N523    1.438   .     S
C503   C505    1.404   .     A
C503   C413    1.383   1_655 S
C504   N526    1.438   .     S
C504   C506    1.404   .     A
C507   H511    1.082   .     S
C507   N516    1.367   .     A
C507   C774    1.418   1_545 S
C508   N515    1.367   .     A
C508   H512    1.082   .     S
C508   C641    1.418   .     S
C509   N516    1.367   .     A
C509   H513    1.082   .     S
C509   C772    1.418   1_545 S
C510   N515    1.367   .     A
C510   H514    1.082   .     S
C510   C639    1.418   .     S
N517   O518    1.301   .     A
N517   O519    1.301   .     A
N520   O522    1.301   .     A
N520   O521    1.301   .     A
N523   O525    1.301   .     A
N523   O524    1.301   .     A
N526   O528    1.301   .     A
N526   O527    1.301   .     A
O529   C533    1.282   .     A
O529   Zn541   1.989   .     S
O530   C534    1.282   .     A
O530   Zn542   1.989   .     S
O531   Zn541   1.992   .     S
O531   C534    1.280   .     A
O532   Zn542   1.992   .     S
O532   C533    1.280   .     A
C533   C550    1.413   .     S
C534   C549    1.413   .     S
O535   C539    1.278   .     A
O535   Zn541   1.949   .     S
O536   C540    1.278   .     A
O536   Zn542   1.949   .     S
O537   C540    1.278   .     A
O537   Zn541   1.950   .     S
O538   C539    1.278   .     A
O538   Zn542   1.950   .     S
C539   C543    1.366   .     S
C540   C544    1.366   .     S
Zn541  N559    2.014   .     S
Zn542  N560    2.014   .     S
C544   C939    1.165   .     S
C545   C550    1.403   .     A
C545   N561    1.434   .     S
C545   C635    1.383   1_455 S
C546   C549    1.403   .     A
C546   N564    1.434   .     S
C546   C592    1.383   .     S
C547   N567    1.438   .     S
C547   C549    1.404   .     A
C547   C589    1.383   .     S
C548   N570    1.438   .     S
C548   C550    1.404   .     A
C548   C634    1.383   1_455 S
C551   H555    1.082   .     S
C551   N560    1.367   .     A
C552   N559    1.367   .     A
C552   H556    1.082   .     S
C552   C685    1.418   .     S
C553   N560    1.367   .     A
C553   H557    1.082   .     S
C554   N559    1.367   .     A
C554   H558    1.082   .     S
C554   C683    1.418   .     S
N561   O562    1.301   .     A
N561   O563    1.301   .     A
N564   O566    1.301   .     A
N564   O565    1.301   .     A
N567   O569    1.301   .     A
N567   O568    1.301   .     A
N570   O572    1.301   .     A
N570   O571    1.301   .     A
O573   C577    1.282   .     A
O573   Zn585   1.989   .     S
O574   C578    1.282   .     A
O574   Zn586   1.989   .     S
O575   Zn585   1.992   .     S
O575   C578    1.280   .     A
O576   Zn586   1.992   .     S
O576   C577    1.280   .     A
C577   C594    1.413   .     S
C578   C593    1.413   .     S
O579   C583    1.278   .     A
O579   Zn585   1.949   .     S
O580   C584    1.278   .     A
O580   Zn586   1.949   .     S
O581   C584    1.278   .     A
O581   Zn585   1.950   .     S
O582   C583    1.278   .     A
O582   Zn586   1.950   .     S
C583   C587    1.366   .     S
C584   C588    1.366   .     S
Zn585  N603    2.014   .     S
Zn586  N604    2.014   .     S
C588   C983    1.165   .     S
C589   C594    1.403   .     A
C589   N605    1.434   .     S
C590   C593    1.403   .     A
C590   N608    1.434   .     S
C590   C636    1.383   .     S
C591   N611    1.438   .     S
C591   C593    1.404   .     A
C591   C633    1.383   .     S
C592   N614    1.438   .     S
C592   C594    1.404   .     A
C595   H599    1.082   .     S
C595   N604    1.367   .     A
C596   N603    1.367   .     A
C596   H600    1.082   .     S
C596   C729    1.418   .     S
C597   N604    1.367   .     A
C597   H601    1.082   .     S
C598   N603    1.367   .     A
C598   H602    1.082   .     S
C598   C727    1.418   .     S
N605   O606    1.301   .     A
N605   O607    1.301   .     A
N608   O610    1.301   .     A
N608   O609    1.301   .     A
N611   O613    1.301   .     A
N611   O612    1.301   .     A
N614   O616    1.301   .     A
N614   O615    1.301   .     A
O617   C621    1.282   .     A
O617   Zn629   1.989   .     S
O618   C622    1.282   .     A
O618   Zn630   1.989   .     S
O619   Zn629   1.992   .     S
O619   C622    1.280   .     A
O620   Zn630   1.992   .     S
O620   C621    1.280   .     A
C621   C638    1.413   .     S
C622   C637    1.413   .     S
O623   C627    1.278   .     A
O623   Zn629   1.949   .     S
O624   C628    1.278   .     A
O624   Zn630   1.949   .     S
O625   C628    1.278   .     A
O625   Zn629   1.950   .     S
O626   C627    1.278   .     A
O626   Zn630   1.950   .     S
C627   C631    1.366   .     S
C628   C632    1.366   .     S
Zn629  N647    2.014   .     S
Zn630  N648    2.014   .     S
C632   C1027   1.165   .     S
C633   C638    1.403   .     A
C633   N649    1.434   .     S
C634   C637    1.403   .     A
C634   N652    1.434   .     S
C634   C548    1.383   1_655 S
C635   N655    1.438   .     S
C635   C637    1.404   .     A
C635   C545    1.383   1_655 S
C636   N658    1.438   .     S
C636   C638    1.404   .     A
C639   H643    1.082   .     S
C639   N648    1.367   .     A
C640   N647    1.367   .     A
C640   H644    1.082   .     S
C640   C773    1.418   .     S
C641   N648    1.367   .     A
C641   H645    1.082   .     S
C642   N647    1.367   .     A
C642   H646    1.082   .     S
C642   C771    1.418   .     S
N649   O650    1.301   .     A
N649   O651    1.301   .     A
N652   O654    1.301   .     A
N652   O653    1.301   .     A
N655   O657    1.301   .     A
N655   O656    1.301   .     A
N658   O660    1.301   .     A
N658   O659    1.301   .     A
O661   C665    1.282   .     A
O661   Zn673   1.989   .     S
O662   C666    1.282   .     A
O662   Zn674   1.989   .     S
O663   Zn673   1.992   .     S
O663   C666    1.280   .     A
O664   Zn674   1.992   .     S
O664   C665    1.280   .     A
C665   C682    1.413   .     S
C666   C681    1.413   .     S
O667   C671    1.278   .     A
O667   Zn673   1.949   .     S
O668   C672    1.278   .     A
O668   Zn674   1.949   .     S
O669   C672    1.278   .     A
O669   Zn673   1.950   .     S
O670   C671    1.278   .     A
O670   Zn674   1.950   .     S
C671   C675    1.366   .     S
C672   C676    1.366   .     S
Zn673  N691    2.014   .     S
Zn674  N692    2.014   .     S
C676   C1071   1.165   .     S
C677   C682    1.403   .     A
C677   N693    1.434   .     S
C677   C767    1.383   1_455 S
C678   C681    1.403   .     A
C678   N696    1.434   .     S
C678   C724    1.383   .     S
C679   N699    1.438   .     S
C679   C681    1.404   .     A
C679   C721    1.383   .     S
C680   N702    1.438   .     S
C680   C682    1.404   .     A
C680   C766    1.383   1_455 S
C683   H687    1.082   .     S
C683   N692    1.367   .     A
C684   N691    1.367   .     A
C684   H688    1.082   .     S
C684   C421    1.418   1_565 S
C685   N692    1.367   .     A
C685   H689    1.082   .     S
C686   N691    1.367   .     A
C686   H690    1.082   .     S
C686   C419    1.418   1_565 S
N693   O694    1.301   .     A
N693   O695    1.301   .     A
N696   O698    1.301   .     A
N696   O697    1.301   .     A
N699   O701    1.301   .     A
N699   O700    1.301   .     A
N702   O704    1.301   .     A
N702   O703    1.301   .     A
O705   C709    1.282   .     A
O705   Zn717   1.989   .     S
O706   C710    1.282   .     A
O706   Zn718   1.989   .     S
O707   Zn717   1.992   .     S
O707   C710    1.280   .     A
O708   Zn718   1.992   .     S
O708   C709    1.280   .     A
C709   C726    1.413   .     S
C710   C725    1.413   .     S
O711   C715    1.278   .     A
O711   Zn717   1.949   .     S
O712   C716    1.278   .     A
O712   Zn718   1.949   .     S
O713   C716    1.278   .     A
O713   Zn717   1.950   .     S
O714   C715    1.278   .     A
O714   Zn718   1.950   .     S
C715   C719    1.366   .     S
C716   C720    1.366   .     S
Zn717  N735    2.014   .     S
Zn718  N736    2.014   .     S
C720   C1115   1.165   .     S
C721   C726    1.403   .     A
C721   N737    1.434   .     S
C722   C725    1.403   .     A
C722   N740    1.434   .     S
C722   C768    1.383   .     S
C723   N743    1.438   .     S
C723   C725    1.404   .     A
C723   C765    1.383   .     S
C724   N746    1.438   .     S
C724   C726    1.404   .     A
C727   H731    1.082   .     S
C727   N736    1.367   .     A
C728   N735    1.367   .     A
C728   H732    1.082   .     S
C728   C465    1.418   1_565 S
C729   N736    1.367   .     A
C729   H733    1.082   .     S
C730   N735    1.367   .     A
C730   H734    1.082   .     S
C730   C463    1.418   1_565 S
N737   O738    1.301   .     A
N737   O739    1.301   .     A
N740   O742    1.301   .     A
N740   O741    1.301   .     A
N743   O745    1.301   .     A
N743   O744    1.301   .     A
N746   O748    1.301   .     A
N746   O747    1.301   .     A
O749   C753    1.282   .     A
O749   Zn761   1.989   .     S
O750   C754    1.282   .     A
O750   Zn762   1.989   .     S
O751   Zn761   1.992   .     S
O751   C754    1.280   .     A
O752   Zn762   1.992   .     S
O752   C753    1.280   .     A
C753   C770    1.413   .     S
C754   C769    1.413   .     S
O755   C759    1.278   .     A
O755   Zn761   1.949   .     S
O756   C760    1.278   .     A
O756   Zn762   1.949   .     S
O757   C760    1.278   .     A
O757   Zn761   1.950   .     S
O758   C759    1.278   .     A
O758   Zn762   1.950   .     S
C759   C763    1.366   .     S
C760   C764    1.366   .     S
Zn761  N779    2.014   .     S
Zn762  N780    2.014   .     S
C764   C1159   1.165   .     S
C765   C770    1.403   .     A
C765   N781    1.434   .     S
C766   C769    1.403   .     A
C766   N784    1.434   .     S
C766   C680    1.383   1_655 S
C767   N787    1.438   .     S
C767   C769    1.404   .     A
C767   C677    1.383   1_655 S
C768   N790    1.438   .     S
C768   C770    1.404   .     A
C771   H775    1.082   .     S
C771   N780    1.367   .     A
C772   N779    1.367   .     A
C772   H776    1.082   .     S
C772   C509    1.418   1_565 S
C773   N780    1.367   .     A
C773   H777    1.082   .     S
C774   N779    1.367   .     A
C774   H778    1.082   .     S
C774   C507    1.418   1_565 S
N781   O782    1.301   .     A
N781   O783    1.301   .     A
N784   O786    1.301   .     A
N784   O785    1.301   .     A
N787   O789    1.301   .     A
N787   O788    1.301   .     A
N790   O792    1.301   .     A
N790   O791    1.301   .     A
O793   C797    1.282   .     A
O793   Zn805   1.989   .     S
O794   C798    1.282   .     A
O794   Zn806   1.989   .     S
O795   Zn805   1.992   .     S
O795   C798    1.280   .     A
O796   Zn806   1.992   .     S
O796   C797    1.280   .     A
C797   C814    1.413   .     S
C798   C813    1.413   .     S
O799   C803    1.278   .     A
O799   Zn805   1.949   .     S
O800   C804    1.278   .     A
O800   Zn806   1.949   .     S
O801   C804    1.278   .     A
O801   Zn805   1.950   .     S
O802   C803    1.278   .     A
O802   Zn806   1.950   .     S
C803   C807    1.366   .     S
C804   C808    1.366   .     S
Zn805  N823    2.014   .     S
Zn806  N824    2.014   .     S
C808   C15     1.165   1_556 S
C809   C814    1.403   .     A
C809   N825    1.434   .     S
C809   C899    1.383   1_455 S
C810   C813    1.403   .     A
C810   N828    1.434   .     S
C810   C856    1.383   .     S
C811   N831    1.438   .     S
C811   C813    1.404   .     A
C811   C853    1.383   .     S
C812   N834    1.438   .     S
C812   C814    1.404   .     A
C812   C898    1.383   1_455 S
C815   H819    1.082   .     S
C815   N824    1.367   .     A
C815   C1082   1.418   1_545 S
C816   N823    1.367   .     A
C816   H820    1.082   .     S
C816   C949    1.418   .     S
C817   N824    1.367   .     A
C817   H821    1.082   .     S
C817   C1080   1.418   1_545 S
C818   N823    1.367   .     A
C818   H822    1.082   .     S
C818   C947    1.418   .     S
N825   O826    1.301   .     A
N825   O827    1.301   .     A
N828   O830    1.301   .     A
N828   O829    1.301   .     A
N831   O833    1.301   .     A
N831   O832    1.301   .     A
N834   O836    1.301   .     A
N834   O835    1.301   .     A
O837   C841    1.282   .     A
O837   Zn849   1.989   .     S
O838   C842    1.282   .     A
O838   Zn850   1.989   .     S
O839   Zn849   1.992   .     S
O839   C842    1.280   .     A
O840   Zn850   1.992   .     S
O840   C841    1.280   .     A
C841   C858    1.413   .     S
C842   C857    1.413   .     S
O843   C847    1.278   .     A
O843   Zn849   1.949   .     S
O844   C848    1.278   .     A
O844   Zn850   1.949   .     S
O845   C848    1.278   .     A
O845   Zn849   1.950   .     S
O846   C847    1.278   .     A
O846   Zn850   1.950   .     S
C847   C851    1.366   .     S
C848   C852    1.366   .     S
Zn849  N867    2.014   .     S
Zn850  N868    2.014   .     S
C852   C59     1.165   1_556 S
C853   C858    1.403   .     A
C853   N869    1.434   .     S
C854   C857    1.403   .     A
C854   N872    1.434   .     S
C854   C900    1.383   .     S
C855   N875    1.438   .     S
C855   C857    1.404   .     A
C855   C897    1.383   .     S
C856   N878    1.438   .     S
C856   C858    1.404   .     A
C859   H863    1.082   .     S
C859   N868    1.367   .     A
C859   C1126   1.418   1_545 S
C860   N867    1.367   .     A
C860   H864    1.082   .     S
C860   C993    1.418   .     S
C861   N868    1.367   .     A
C861   H865    1.082   .     S
C861   C1124   1.418   1_545 S
C862   N867    1.367   .     A
C862   H866    1.082   .     S
C862   C991    1.418   .     S
N869   O870    1.301   .     A
N869   O871    1.301   .     A
N872   O874    1.301   .     A
N872   O873    1.301   .     A
N875   O877    1.301   .     A
N875   O876    1.301   .     A
N878   O880    1.301   .     A
N878   O879    1.301   .     A
O881   C885    1.282   .     A
O881   Zn893   1.989   .     S
O882   C886    1.282   .     A
O882   Zn894   1.989   .     S
O883   Zn893   1.992   .     S
O883   C886    1.280   .     A
O884   Zn894   1.992   .     S
O884   C885    1.280   .     A
C885   C902    1.413   .     S
C886   C901    1.413   .     S
O887   C891    1.278   .     A
O887   Zn893   1.949   .     S
O888   C892    1.278   .     A
O888   Zn894   1.949   .     S
O889   C892    1.278   .     A
O889   Zn893   1.950   .     S
O890   C891    1.278   .     A
O890   Zn894   1.950   .     S
C891   C895    1.366   .     S
C892   C896    1.366   .     S
Zn893  N911    2.014   .     S
Zn894  N912    2.014   .     S
C896   C103    1.165   1_556 S
C897   C902    1.403   .     A
C897   N913    1.434   .     S
C898   C901    1.403   .     A
C898   N916    1.434   .     S
C898   C812    1.383   1_655 S
C899   N919    1.438   .     S
C899   C901    1.404   .     A
C899   C809    1.383   1_655 S
C900   N922    1.438   .     S
C900   C902    1.404   .     A
C903   H907    1.082   .     S
C903   N912    1.367   .     A
C903   C1170   1.418   1_545 S
C904   N911    1.367   .     A
C904   H908    1.082   .     S
C904   C1037   1.418   .     S
C905   N912    1.367   .     A
C905   H909    1.082   .     S
C905   C1168   1.418   1_545 S
C906   N911    1.367   .     A
C906   H910    1.082   .     S
C906   C1035   1.418   .     S
N913   O914    1.301   .     A
N913   O915    1.301   .     A
N916   O918    1.301   .     A
N916   O917    1.301   .     A
N919   O921    1.301   .     A
N919   O920    1.301   .     A
N922   O924    1.301   .     A
N922   O923    1.301   .     A
O925   C929    1.282   .     A
O925   Zn937   1.989   .     S
O926   C930    1.282   .     A
O926   Zn938   1.989   .     S
O927   Zn937   1.992   .     S
O927   C930    1.280   .     A
O928   Zn938   1.992   .     S
O928   C929    1.280   .     A
C929   C946    1.413   .     S
C930   C945    1.413   .     S
O931   C935    1.278   .     A
O931   Zn937   1.949   .     S
O932   C936    1.278   .     A
O932   Zn938   1.949   .     S
O933   C936    1.278   .     A
O933   Zn937   1.950   .     S
O934   C935    1.278   .     A
O934   Zn938   1.950   .     S
C935   C939    1.366   .     S
C936   C940    1.366   .     S
Zn937  N955    2.014   .     S
Zn938  N956    2.014   .     S
C940   C147    1.165   1_556 S
C941   C946    1.403   .     A
C941   N957    1.434   .     S
C941   C1031   1.383   1_455 S
C942   C945    1.403   .     A
C942   N960    1.434   .     S
C942   C988    1.383   .     S
C943   N963    1.438   .     S
C943   C945    1.404   .     A
C943   C985    1.383   .     S
C944   N966    1.438   .     S
C944   C946    1.404   .     A
C944   C1030   1.383   1_455 S
C947   H951    1.082   .     S
C947   N956    1.367   .     A
C948   N955    1.367   .     A
C948   H952    1.082   .     S
C948   C1081   1.418   .     S
C949   N956    1.367   .     A
C949   H953    1.082   .     S
C950   N955    1.367   .     A
C950   H954    1.082   .     S
C950   C1079   1.418   .     S
N957   O958    1.301   .     A
N957   O959    1.301   .     A
N960   O962    1.301   .     A
N960   O961    1.301   .     A
N963   O965    1.301   .     A
N963   O964    1.301   .     A
N966   O968    1.301   .     A
N966   O967    1.301   .     A
O969   C973    1.282   .     A
O969   Zn981   1.989   .     S
O970   C974    1.282   .     A
O970   Zn982   1.989   .     S
O971   Zn981   1.992   .     S
O971   C974    1.280   .     A
O972   Zn982   1.992   .     S
O972   C973    1.280   .     A
C973   C990    1.413   .     S
C974   C989    1.413   .     S
O975   C979    1.278   .     A
O975   Zn981   1.949   .     S
O976   C980    1.278   .     A
O976   Zn982   1.949   .     S
O977   C980    1.278   .     A
O977   Zn981   1.950   .     S
O978   C979    1.278   .     A
O978   Zn982   1.950   .     S
C979   C983    1.366   .     S
C980   C984    1.366   .     S
Zn981  N999    2.014   .     S
Zn982  N1000   2.014   .     S
C984   C191    1.165   1_556 S
C985   C990    1.403   .     A
C985   N1001   1.434   .     S
C986   C989    1.403   .     A
C986   N1004   1.434   .     S
C986   C1032   1.383   .     S
C987   N1007   1.438   .     S
C987   C989    1.404   .     A
C987   C1029   1.383   .     S
C988   N1010   1.438   .     S
C988   C990    1.404   .     A
C991   H995    1.082   .     S
C991   N1000   1.367   .     A
C992   N999    1.367   .     A
C992   H996    1.082   .     S
C992   C1125   1.418   .     S
C993   N1000   1.367   .     A
C993   H997    1.082   .     S
C994   N999    1.367   .     A
C994   H998    1.082   .     S
C994   C1123   1.418   .     S
N1001  O1002   1.301   .     A
N1001  O1003   1.301   .     A
N1004  O1006   1.301   .     A
N1004  O1005   1.301   .     A
N1007  O1009   1.301   .     A
N1007  O1008   1.301   .     A
N1010  O1012   1.301   .     A
N1010  O1011   1.301   .     A
O1013  C1017   1.282   .     A
O1013  Zn1025  1.989   .     S
O1014  C1018   1.282   .     A
O1014  Zn1026  1.989   .     S
O1015  Zn1025  1.992   .     S
O1015  C1018   1.280   .     A
O1016  Zn1026  1.992   .     S
O1016  C1017   1.280   .     A
C1017  C1034   1.413   .     S
C1018  C1033   1.413   .     S
O1019  C1023   1.278   .     A
O1019  Zn1025  1.949   .     S
O1020  C1024   1.278   .     A
O1020  Zn1026  1.949   .     S
O1021  C1024   1.278   .     A
O1021  Zn1025  1.950   .     S
O1022  C1023   1.278   .     A
O1022  Zn1026  1.950   .     S
C1023  C1027   1.366   .     S
C1024  C1028   1.366   .     S
Zn1025 N1043   2.014   .     S
Zn1026 N1044   2.014   .     S
C1028  C235    1.165   1_556 S
C1029  C1034   1.403   .     A
C1029  N1045   1.434   .     S
C1030  C1033   1.403   .     A
C1030  N1048   1.434   .     S
C1030  C944    1.383   1_655 S
C1031  N1051   1.438   .     S
C1031  C1033   1.404   .     A
C1031  C941    1.383   1_655 S
C1032  N1054   1.438   .     S
C1032  C1034   1.404   .     A
C1035  H1039   1.082   .     S
C1035  N1044   1.367   .     A
C1036  N1043   1.367   .     A
C1036  H1040   1.082   .     S
C1036  C1169   1.418   .     S
C1037  N1044   1.367   .     A
C1037  H1041   1.082   .     S
C1038  N1043   1.367   .     A
C1038  H1042   1.082   .     S
C1038  C1167   1.418   .     S
N1045  O1046   1.301   .     A
N1045  O1047   1.301   .     A
N1048  O1050   1.301   .     A
N1048  O1049   1.301   .     A
N1051  O1053   1.301   .     A
N1051  O1052   1.301   .     A
N1054  O1056   1.301   .     A
N1054  O1055   1.301   .     A
O1057  C1061   1.282   .     A
O1057  Zn1069  1.989   .     S
O1058  C1062   1.282   .     A
O1058  Zn1070  1.989   .     S
O1059  Zn1069  1.992   .     S
O1059  C1062   1.280   .     A
O1060  Zn1070  1.992   .     S
O1060  C1061   1.280   .     A
C1061  C1078   1.413   .     S
C1062  C1077   1.413   .     S
O1063  C1067   1.278   .     A
O1063  Zn1069  1.949   .     S
O1064  C1068   1.278   .     A
O1064  Zn1070  1.949   .     S
O1065  C1068   1.278   .     A
O1065  Zn1069  1.950   .     S
O1066  C1067   1.278   .     A
O1066  Zn1070  1.950   .     S
C1067  C1071   1.366   .     S
C1068  C1072   1.366   .     S
Zn1069 N1087   2.014   .     S
Zn1070 N1088   2.014   .     S
C1072  C279    1.165   1_556 S
C1073  C1078   1.403   .     A
C1073  N1089   1.434   .     S
C1073  C1163   1.383   1_455 S
C1074  C1077   1.403   .     A
C1074  N1092   1.434   .     S
C1074  C1120   1.383   .     S
C1075  N1095   1.438   .     S
C1075  C1077   1.404   .     A
C1075  C1117   1.383   .     S
C1076  N1098   1.438   .     S
C1076  C1078   1.404   .     A
C1076  C1162   1.383   1_455 S
C1079  H1083   1.082   .     S
C1079  N1088   1.367   .     A
C1080  N1087   1.367   .     A
C1080  H1084   1.082   .     S
C1080  C817    1.418   1_565 S
C1081  N1088   1.367   .     A
C1081  H1085   1.082   .     S
C1082  N1087   1.367   .     A
C1082  H1086   1.082   .     S
C1082  C815    1.418   1_565 S
N1089  O1090   1.301   .     A
N1089  O1091   1.301   .     A
N1092  O1094   1.301   .     A
N1092  O1093   1.301   .     A
N1095  O1097   1.301   .     A
N1095  O1096   1.301   .     A
N1098  O1100   1.301   .     A
N1098  O1099   1.301   .     A
O1101  C1105   1.282   .     A
O1101  Zn1113  1.989   .     S
O1102  C1106   1.282   .     A
O1102  Zn1114  1.989   .     S
O1103  Zn1113  1.992   .     S
O1103  C1106   1.280   .     A
O1104  Zn1114  1.992   .     S
O1104  C1105   1.280   .     A
C1105  C1122   1.413   .     S
C1106  C1121   1.413   .     S
O1107  C1111   1.278   .     A
O1107  Zn1113  1.949   .     S
O1108  C1112   1.278   .     A
O1108  Zn1114  1.949   .     S
O1109  C1112   1.278   .     A
O1109  Zn1113  1.950   .     S
O1110  C1111   1.278   .     A
O1110  Zn1114  1.950   .     S
C1111  C1115   1.366   .     S
C1112  C1116   1.366   .     S
Zn1113 N1131   2.014   .     S
Zn1114 N1132   2.014   .     S
C1116  C323    1.165   1_556 S
C1117  C1122   1.403   .     A
C1117  N1133   1.434   .     S
C1118  C1121   1.403   .     A
C1118  N1136   1.434   .     S
C1118  C1164   1.383   .     S
C1119  N1139   1.438   .     S
C1119  C1121   1.404   .     A
C1119  C1161   1.383   .     S
C1120  N1142   1.438   .     S
C1120  C1122   1.404   .     A
C1123  H1127   1.082   .     S
C1123  N1132   1.367   .     A
C1124  N1131   1.367   .     A
C1124  H1128   1.082   .     S
C1124  C861    1.418   1_565 S
C1125  N1132   1.367   .     A
C1125  H1129   1.082   .     S
C1126  N1131   1.367   .     A
C1126  H1130   1.082   .     S
C1126  C859    1.418   1_565 S
N1133  O1134   1.301   .     A
N1133  O1135   1.301   .     A
N1136  O1138   1.301   .     A
N1136  O1137   1.301   .     A
N1139  O1141   1.301   .     A
N1139  O1140   1.301   .     A
N1142  O1144   1.301   .     A
N1142  O1143   1.301   .     A
O1145  C1149   1.282   .     A
O1145  Zn1157  1.989   .     S
O1146  C1150   1.282   .     A
O1146  Zn1158  1.989   .     S
O1147  Zn1157  1.992   .     S
O1147  C1150   1.280   .     A
O1148  Zn1158  1.992   .     S
O1148  C1149   1.280   .     A
C1149  C1166   1.413   .     S
C1150  C1165   1.413   .     S
O1151  C1155   1.278   .     A
O1151  Zn1157  1.949   .     S
O1152  C1156   1.278   .     A
O1152  Zn1158  1.949   .     S
O1153  C1156   1.278   .     A
O1153  Zn1157  1.950   .     S
O1154  C1155   1.278   .     A
O1154  Zn1158  1.950   .     S
C1155  C1159   1.366   .     S
C1156  C1160   1.366   .     S
Zn1157 N1175   2.014   .     S
Zn1158 N1176   2.014   .     S
C1160  C367    1.165   1_556 S
C1161  C1166   1.403   .     A
C1161  N1177   1.434   .     S
C1162  C1165   1.403   .     A
C1162  N1180   1.434   .     S
C1162  C1076   1.383   1_655 S
C1163  N1183   1.438   .     S
C1163  C1165   1.404   .     A
C1163  C1073   1.383   1_655 S
C1164  N1186   1.438   .     S
C1164  C1166   1.404   .     A
C1167  H1171   1.082   .     S
C1167  N1176   1.367   .     A
C1168  N1175   1.367   .     A
C1168  H1172   1.082   .     S
C1168  C905    1.418   1_565 S
C1169  N1176   1.367   .     A
C1169  H1173   1.082   .     S
C1170  N1175   1.367   .     A
C1170  H1174   1.082   .     S
C1170  C903    1.418   1_565 S
N1177  O1178   1.301   .     A
N1177  O1179   1.301   .     A
N1180  O1182   1.301   .     A
N1180  O1181   1.301   .     A
N1183  O1185   1.301   .     A
N1183  O1184   1.301   .     A
N1186  O1188   1.301   .     A
N1186  O1187   1.301   .     A
