data_str_m3_o1_o17_pcu_sym.140
_audit_creation_date              2020-01-03
_audit_creation_method            'Materials Studio'
_symmetry_space_group_name_H-M    'P1'
_symmetry_Int_Tables_number       1
_symmetry_cell_setting            triclinic
loop_
_symmetry_equiv_pos_as_xyz
  x,y,z
_cell_length_a                    32.0632
_cell_length_b                    29.5416
_cell_length_c                    29.9456
_cell_angle_alpha                 89.9712
_cell_angle_beta                  90.0025
_cell_angle_gamma                 89.9886
loop_
_atom_site_label
_atom_site_type_symbol
_atom_site_fract_x
_atom_site_fract_y
_atom_site_fract_z
_atom_site_U_iso_or_equiv
_atom_site_adp_type
_atom_site_occupancy
C1     C     0.08665   0.16666   0.24988   0.00000  Uiso   1.00
C2     C     0.24669   0.16668   0.25012   0.00000  Uiso   1.00
C3     C     0.09109   0.17623   0.02309   0.00000  Uiso   1.00
C4     C     0.24225   0.15710   0.47691   0.00000  Uiso   1.00
C5     C     0.02137   0.12732   0.26242   0.00000  Uiso   1.00
C6     C     0.31196   0.20601   0.23758   0.00000  Uiso   1.00
C7     C     0.31201   0.12736   0.26259   0.00000  Uiso   1.00
C8     C     0.02133   0.20597   0.23741   0.00000  Uiso   1.00
C9     C     0.29083   0.16671   0.25019   0.00000  Uiso   1.00
C10    C     0.04250   0.16663   0.24981   0.00000  Uiso   1.00
C11    C     0.19385   0.02396   0.27630   0.00000  Uiso   1.00
C12    C     0.13948   0.30937   0.22370   0.00000  Uiso   1.00
C13    C     0.13948   0.02399   0.22370   0.00000  Uiso   1.00
C14    C     0.19385   0.30934   0.27630   0.00000  Uiso   1.00
C15    C     0.16680   0.16668   0.16370   0.00000  Uiso   1.00
C16    C     0.16654   0.16665   0.33630   0.00000  Uiso   1.00
C17    C     0.20484   0.16277   0.40635   0.00000  Uiso   1.00
C18    C     0.12849   0.17057   0.09365   0.00000  Uiso   1.00
C19    C     0.16659   0.16658   0.38393   0.00000  Uiso   1.00
C20    C     0.16675   0.16675   0.11607   0.00000  Uiso   1.00
C21    C     0.12839   0.17025   0.40642   0.00000  Uiso   1.00
C22    C     0.20495   0.16308   0.09358   0.00000  Uiso   1.00
C23    C     0.12838   0.17074   0.45314   0.00000  Uiso   1.00
C24    C     0.20495   0.16259   0.04686   0.00000  Uiso   1.00
C25    C     0.16666   0.16664   0.47651   0.00000  Uiso   1.00
C26    C     0.16668   0.16670   0.02349   0.00000  Uiso   1.00
C27    C     0.20490   0.16246   0.45308   0.00000  Uiso   1.00
C28    C     0.12843   0.17088   0.04692   0.00000  Uiso   1.00
C29    C     0.09106   0.17614   0.47701   0.00000  Uiso   1.00
C30    C     0.24227   0.15719   0.02299   0.00000  Uiso   1.00
H31    H     0.06137   0.18076   0.46045   0.00000  Uiso   1.00
H32    H     0.27196   0.15257   0.03955   0.00000  Uiso   1.00
H33    H     0.06144   0.18095   0.03967   0.00000  Uiso   1.00
H34    H     0.27190   0.15238   0.46033   0.00000  Uiso   1.00
H35    H     0.03773   0.09688   0.27249   0.00000  Uiso   1.00
H36    H     0.29561   0.23645   0.22751   0.00000  Uiso   1.00
H37    H     0.29568   0.09691   0.27269   0.00000  Uiso   1.00
H38    H     0.03765   0.23642   0.22731   0.00000  Uiso   1.00
H39    H     0.21559   0.04211   0.29734   0.00000  Uiso   1.00
H40    H     0.11774   0.29122   0.20266   0.00000  Uiso   1.00
H41    H     0.11775   0.04217   0.20266   0.00000  Uiso   1.00
H42    H     0.21559   0.29116   0.29734   0.00000  Uiso   1.00
N43    N     0.16667   0.28573   0.25000   0.00000  Uiso   1.00
N44    N     0.16667   0.04760   0.25000   0.00000  Uiso   1.00
O45    O     0.10559   0.20487   0.24999   0.00000  Uiso   1.00
O46    O     0.22774   0.12846   0.25000   0.00000  Uiso   1.00
O47    O     0.22774   0.20487   0.25000   0.00000  Uiso   1.00
O48    O     0.10559   0.12846   0.24999   0.00000  Uiso   1.00
O49    O     0.16666   0.20489   0.18392   0.00000  Uiso   1.00
O50    O     0.16667   0.12844   0.31607   0.00000  Uiso   1.00
O51    O     0.16667   0.20489   0.31607   0.00000  Uiso   1.00
O52    O     0.16666   0.12844   0.18392   0.00000  Uiso   1.00
Zn53   Zn    0.16667   0.21771   0.25000   0.00000  Uiso   1.00
Zn54   Zn    0.16667   0.11563   0.25000   0.00000  Uiso   1.00
C55    C     0.24447   0.15959   0.38057   0.00000  Uiso   1.00
O56    O     0.25056   0.12734   0.35585   0.00000  Uiso   1.00
O57    O     0.27455   0.19358   0.38469   0.00000  Uiso   1.00
H58    H     0.29999   0.18773   0.36542   0.00000  Uiso   1.00
C59    C     0.08886   0.17374   0.11943   0.00000  Uiso   1.00
O60    O     0.08277   0.20599   0.14415   0.00000  Uiso   1.00
O61    O     0.05878   0.13975   0.11531   0.00000  Uiso   1.00
H62    H     0.03334   0.14561   0.13458   0.00000  Uiso   1.00
C63    C     0.08879   0.17344   0.38066   0.00000  Uiso   1.00
O64    O     0.06303   0.14301   0.38308   0.00000  Uiso   1.00
O65    O     0.08120   0.21129   0.35386   0.00000  Uiso   1.00
H66    H     0.05296   0.20998   0.33870   0.00000  Uiso   1.00
C67    C     0.24454   0.15990   0.11934   0.00000  Uiso   1.00
O68    O     0.27030   0.19032   0.11692   0.00000  Uiso   1.00
O69    O     0.25213   0.12205   0.14614   0.00000  Uiso   1.00
H70    H     0.28037   0.12335   0.16130   0.00000  Uiso   1.00
C71    C     0.41998   0.16666   0.24988   0.00000  Uiso   1.00
C72    C     0.58002   0.16668   0.25012   0.00000  Uiso   1.00
C73    C     0.42442   0.17623   0.02309   0.00000  Uiso   1.00
C74    C     0.57558   0.15710   0.47691   0.00000  Uiso   1.00
C75    C     0.35470   0.12732   0.26242   0.00000  Uiso   1.00
C76    C     0.64530   0.20601   0.23758   0.00000  Uiso   1.00
C77    C     0.64534   0.12736   0.26259   0.00000  Uiso   1.00
C78    C     0.35466   0.20597   0.23741   0.00000  Uiso   1.00
C79    C     0.62416   0.16671   0.25019   0.00000  Uiso   1.00
C80    C     0.37584   0.16663   0.24981   0.00000  Uiso   1.00
C81    C     0.52719   0.02396   0.27630   0.00000  Uiso   1.00
C82    C     0.47281   0.30937   0.22370   0.00000  Uiso   1.00
C83    C     0.47281   0.02399   0.22370   0.00000  Uiso   1.00
C84    C     0.52719   0.30934   0.27630   0.00000  Uiso   1.00
C85    C     0.50013   0.16668   0.16370   0.00000  Uiso   1.00
C86    C     0.49987   0.16665   0.33630   0.00000  Uiso   1.00
C87    C     0.53818   0.16277   0.40635   0.00000  Uiso   1.00
C88    C     0.46182   0.17057   0.09365   0.00000  Uiso   1.00
C89    C     0.49992   0.16658   0.38393   0.00000  Uiso   1.00
C90    C     0.50008   0.16675   0.11607   0.00000  Uiso   1.00
C91    C     0.46172   0.17025   0.40642   0.00000  Uiso   1.00
C92    C     0.53828   0.16308   0.09358   0.00000  Uiso   1.00
C93    C     0.46172   0.17074   0.45314   0.00000  Uiso   1.00
C94    C     0.53828   0.16259   0.04686   0.00000  Uiso   1.00
C95    C     0.49999   0.16664   0.47651   0.00000  Uiso   1.00
C96    C     0.50001   0.16670   0.02349   0.00000  Uiso   1.00
C97    C     0.53824   0.16246   0.45308   0.00000  Uiso   1.00
C98    C     0.46176   0.17088   0.04692   0.00000  Uiso   1.00
C99    C     0.42439   0.17614   0.47701   0.00000  Uiso   1.00
C100   C     0.57561   0.15719   0.02299   0.00000  Uiso   1.00
H101   H     0.39471   0.18076   0.46045   0.00000  Uiso   1.00
H102   H     0.60529   0.15257   0.03955   0.00000  Uiso   1.00
H103   H     0.39477   0.18095   0.03967   0.00000  Uiso   1.00
H104   H     0.60523   0.15238   0.46033   0.00000  Uiso   1.00
H105   H     0.37106   0.09688   0.27249   0.00000  Uiso   1.00
H106   H     0.62894   0.23645   0.22751   0.00000  Uiso   1.00
H107   H     0.62901   0.09691   0.27269   0.00000  Uiso   1.00
H108   H     0.37099   0.23642   0.22731   0.00000  Uiso   1.00
H109   H     0.54893   0.04211   0.29734   0.00000  Uiso   1.00
H110   H     0.45107   0.29122   0.20266   0.00000  Uiso   1.00
H111   H     0.45108   0.04217   0.20266   0.00000  Uiso   1.00
H112   H     0.54892   0.29116   0.29734   0.00000  Uiso   1.00
N113   N     0.50000   0.28573   0.25000   0.00000  Uiso   1.00
N114   N     0.50000   0.04760   0.25000   0.00000  Uiso   1.00
O115   O     0.43892   0.20487   0.24999   0.00000  Uiso   1.00
O116   O     0.56108   0.12846   0.25000   0.00000  Uiso   1.00
O117   O     0.56108   0.20487   0.25000   0.00000  Uiso   1.00
O118   O     0.43892   0.12846   0.24999   0.00000  Uiso   1.00
O119   O     0.49999   0.20489   0.18392   0.00000  Uiso   1.00
O120   O     0.50001   0.12844   0.31607   0.00000  Uiso   1.00
O121   O     0.50001   0.20489   0.31607   0.00000  Uiso   1.00
O122   O     0.49999   0.12844   0.18392   0.00000  Uiso   1.00
Zn123  Zn    0.50000   0.21771   0.25000   0.00000  Uiso   1.00
Zn124  Zn    0.50000   0.11563   0.25000   0.00000  Uiso   1.00
C125   C     0.57780   0.15959   0.38057   0.00000  Uiso   1.00
O126   O     0.58389   0.12734   0.35585   0.00000  Uiso   1.00
O127   O     0.60788   0.19358   0.38469   0.00000  Uiso   1.00
H128   H     0.63332   0.18773   0.36542   0.00000  Uiso   1.00
C129   C     0.42220   0.17374   0.11943   0.00000  Uiso   1.00
O130   O     0.41611   0.20599   0.14415   0.00000  Uiso   1.00
O131   O     0.39212   0.13975   0.11531   0.00000  Uiso   1.00
H132   H     0.36668   0.14561   0.13458   0.00000  Uiso   1.00
C133   C     0.42212   0.17344   0.38066   0.00000  Uiso   1.00
O134   O     0.39637   0.14301   0.38308   0.00000  Uiso   1.00
O135   O     0.41454   0.21129   0.35386   0.00000  Uiso   1.00
H136   H     0.38630   0.20998   0.33870   0.00000  Uiso   1.00
C137   C     0.57788   0.15990   0.11934   0.00000  Uiso   1.00
O138   O     0.60363   0.19032   0.11692   0.00000  Uiso   1.00
O139   O     0.58546   0.12205   0.14614   0.00000  Uiso   1.00
H140   H     0.61370   0.12335   0.16130   0.00000  Uiso   1.00
C141   C     0.75331   0.16666   0.24988   0.00000  Uiso   1.00
C142   C     0.91335   0.16668   0.25012   0.00000  Uiso   1.00
C143   C     0.75775   0.17623   0.02309   0.00000  Uiso   1.00
C144   C     0.90891   0.15710   0.47691   0.00000  Uiso   1.00
C145   C     0.68804   0.12732   0.26242   0.00000  Uiso   1.00
C146   C     0.97863   0.20601   0.23758   0.00000  Uiso   1.00
C147   C     0.97867   0.12736   0.26259   0.00000  Uiso   1.00
C148   C     0.68799   0.20597   0.23741   0.00000  Uiso   1.00
C149   C     0.95750   0.16671   0.25019   0.00000  Uiso   1.00
C150   C     0.70917   0.16663   0.24981   0.00000  Uiso   1.00
C151   C     0.86052   0.02396   0.27630   0.00000  Uiso   1.00
C152   C     0.80615   0.30937   0.22370   0.00000  Uiso   1.00
C153   C     0.80615   0.02399   0.22370   0.00000  Uiso   1.00
C154   C     0.86052   0.30934   0.27630   0.00000  Uiso   1.00
C155   C     0.83346   0.16668   0.16370   0.00000  Uiso   1.00
C156   C     0.83320   0.16665   0.33630   0.00000  Uiso   1.00
C157   C     0.87151   0.16277   0.40635   0.00000  Uiso   1.00
C158   C     0.79516   0.17057   0.09365   0.00000  Uiso   1.00
C159   C     0.83325   0.16658   0.38393   0.00000  Uiso   1.00
C160   C     0.83341   0.16675   0.11607   0.00000  Uiso   1.00
C161   C     0.79505   0.17025   0.40642   0.00000  Uiso   1.00
C162   C     0.87161   0.16308   0.09358   0.00000  Uiso   1.00
C163   C     0.79505   0.17074   0.45314   0.00000  Uiso   1.00
C164   C     0.87162   0.16259   0.04686   0.00000  Uiso   1.00
C165   C     0.83332   0.16664   0.47651   0.00000  Uiso   1.00
C166   C     0.83334   0.16670   0.02349   0.00000  Uiso   1.00
C167   C     0.87157   0.16246   0.45308   0.00000  Uiso   1.00
C168   C     0.79510   0.17088   0.04692   0.00000  Uiso   1.00
C169   C     0.75773   0.17614   0.47701   0.00000  Uiso   1.00
C170   C     0.90894   0.15719   0.02299   0.00000  Uiso   1.00
H171   H     0.72804   0.18076   0.46045   0.00000  Uiso   1.00
H172   H     0.93862   0.15257   0.03955   0.00000  Uiso   1.00
H173   H     0.72810   0.18095   0.03967   0.00000  Uiso   1.00
H174   H     0.93856   0.15238   0.46033   0.00000  Uiso   1.00
H175   H     0.70439   0.09688   0.27249   0.00000  Uiso   1.00
H176   H     0.96227   0.23645   0.22751   0.00000  Uiso   1.00
H177   H     0.96234   0.09691   0.27269   0.00000  Uiso   1.00
H178   H     0.70432   0.23642   0.22731   0.00000  Uiso   1.00
H179   H     0.88226   0.04211   0.29734   0.00000  Uiso   1.00
H180   H     0.78441   0.29122   0.20266   0.00000  Uiso   1.00
H181   H     0.78441   0.04217   0.20266   0.00000  Uiso   1.00
H182   H     0.88225   0.29116   0.29734   0.00000  Uiso   1.00
N183   N     0.83333   0.28573   0.25000   0.00000  Uiso   1.00
N184   N     0.83333   0.04760   0.25000   0.00000  Uiso   1.00
O185   O     0.77226   0.20487   0.24999   0.00000  Uiso   1.00
O186   O     0.89441   0.12846   0.25000   0.00000  Uiso   1.00
O187   O     0.89441   0.20487   0.25000   0.00000  Uiso   1.00
O188   O     0.77226   0.12846   0.24999   0.00000  Uiso   1.00
O189   O     0.83333   0.20489   0.18392   0.00000  Uiso   1.00
O190   O     0.83334   0.12844   0.31607   0.00000  Uiso   1.00
O191   O     0.83334   0.20489   0.31607   0.00000  Uiso   1.00
O192   O     0.83333   0.12844   0.18392   0.00000  Uiso   1.00
Zn193  Zn    0.83333   0.21771   0.25000   0.00000  Uiso   1.00
Zn194  Zn    0.83333   0.11563   0.25000   0.00000  Uiso   1.00
C195   C     0.91114   0.15959   0.38057   0.00000  Uiso   1.00
O196   O     0.91723   0.12734   0.35585   0.00000  Uiso   1.00
O197   O     0.94122   0.19358   0.38469   0.00000  Uiso   1.00
H198   H     0.96666   0.18773   0.36542   0.00000  Uiso   1.00
C199   C     0.75553   0.17374   0.11943   0.00000  Uiso   1.00
O200   O     0.74944   0.20599   0.14415   0.00000  Uiso   1.00
O201   O     0.72545   0.13975   0.11531   0.00000  Uiso   1.00
H202   H     0.70001   0.14561   0.13458   0.00000  Uiso   1.00
C203   C     0.75546   0.17344   0.38066   0.00000  Uiso   1.00
O204   O     0.72970   0.14301   0.38308   0.00000  Uiso   1.00
O205   O     0.74787   0.21129   0.35386   0.00000  Uiso   1.00
H206   H     0.71963   0.20998   0.33870   0.00000  Uiso   1.00
C207   C     0.91121   0.15990   0.11934   0.00000  Uiso   1.00
O208   O     0.93697   0.19032   0.11692   0.00000  Uiso   1.00
O209   O     0.91880   0.12205   0.14614   0.00000  Uiso   1.00
H210   H     0.94704   0.12335   0.16130   0.00000  Uiso   1.00
C211   C     0.08665   0.49999   0.24988   0.00000  Uiso   1.00
C212   C     0.24669   0.50001   0.25012   0.00000  Uiso   1.00
C213   C     0.09109   0.50956   0.02309   0.00000  Uiso   1.00
C214   C     0.24225   0.49044   0.47691   0.00000  Uiso   1.00
C215   C     0.02137   0.46066   0.26242   0.00000  Uiso   1.00
C216   C     0.31196   0.53934   0.23758   0.00000  Uiso   1.00
C217   C     0.31201   0.46069   0.26259   0.00000  Uiso   1.00
C218   C     0.02133   0.53931   0.23741   0.00000  Uiso   1.00
C219   C     0.29083   0.50004   0.25019   0.00000  Uiso   1.00
C220   C     0.04250   0.49996   0.24981   0.00000  Uiso   1.00
C221   C     0.19385   0.35729   0.27630   0.00000  Uiso   1.00
C222   C     0.13948   0.64271   0.22370   0.00000  Uiso   1.00
C223   C     0.13948   0.35733   0.22370   0.00000  Uiso   1.00
C224   C     0.19385   0.64267   0.27630   0.00000  Uiso   1.00
C225   C     0.16680   0.50001   0.16370   0.00000  Uiso   1.00
C226   C     0.16654   0.49999   0.33630   0.00000  Uiso   1.00
C227   C     0.20484   0.49610   0.40635   0.00000  Uiso   1.00
C228   C     0.12849   0.50390   0.09365   0.00000  Uiso   1.00
C229   C     0.16659   0.49991   0.38393   0.00000  Uiso   1.00
C230   C     0.16675   0.50009   0.11607   0.00000  Uiso   1.00
C231   C     0.12839   0.50359   0.40642   0.00000  Uiso   1.00
C232   C     0.20495   0.49641   0.09358   0.00000  Uiso   1.00
C233   C     0.12838   0.50407   0.45314   0.00000  Uiso   1.00
C234   C     0.20495   0.49593   0.04686   0.00000  Uiso   1.00
C235   C     0.16666   0.49997   0.47651   0.00000  Uiso   1.00
C236   C     0.16668   0.50003   0.02349   0.00000  Uiso   1.00
C237   C     0.20490   0.49579   0.45308   0.00000  Uiso   1.00
C238   C     0.12843   0.50421   0.04692   0.00000  Uiso   1.00
C239   C     0.09106   0.50948   0.47701   0.00000  Uiso   1.00
C240   C     0.24227   0.49052   0.02299   0.00000  Uiso   1.00
H241   H     0.06137   0.51409   0.46045   0.00000  Uiso   1.00
H242   H     0.27196   0.48590   0.03955   0.00000  Uiso   1.00
H243   H     0.06144   0.51429   0.03967   0.00000  Uiso   1.00
H244   H     0.27190   0.48571   0.46033   0.00000  Uiso   1.00
H245   H     0.03773   0.43021   0.27249   0.00000  Uiso   1.00
H246   H     0.29561   0.56979   0.22751   0.00000  Uiso   1.00
H247   H     0.29568   0.43025   0.27269   0.00000  Uiso   1.00
H248   H     0.03765   0.56975   0.22731   0.00000  Uiso   1.00
H249   H     0.21559   0.37544   0.29734   0.00000  Uiso   1.00
H250   H     0.11774   0.62456   0.20266   0.00000  Uiso   1.00
H251   H     0.11775   0.37550   0.20266   0.00000  Uiso   1.00
H252   H     0.21559   0.62450   0.29734   0.00000  Uiso   1.00
N253   N     0.16667   0.61907   0.25000   0.00000  Uiso   1.00
N254   N     0.16667   0.38093   0.25000   0.00000  Uiso   1.00
O255   O     0.10559   0.53821   0.24999   0.00000  Uiso   1.00
O256   O     0.22774   0.46179   0.25000   0.00000  Uiso   1.00
O257   O     0.22774   0.53821   0.25000   0.00000  Uiso   1.00
O258   O     0.10559   0.46179   0.24999   0.00000  Uiso   1.00
O259   O     0.16666   0.53823   0.18392   0.00000  Uiso   1.00
O260   O     0.16667   0.46177   0.31607   0.00000  Uiso   1.00
O261   O     0.16667   0.53823   0.31607   0.00000  Uiso   1.00
O262   O     0.16666   0.46177   0.18392   0.00000  Uiso   1.00
Zn263  Zn    0.16667   0.55104   0.25000   0.00000  Uiso   1.00
Zn264  Zn    0.16667   0.44896   0.25000   0.00000  Uiso   1.00
C265   C     0.24447   0.49293   0.38057   0.00000  Uiso   1.00
O266   O     0.25056   0.46068   0.35585   0.00000  Uiso   1.00
O267   O     0.27455   0.52692   0.38469   0.00000  Uiso   1.00
H268   H     0.29999   0.52106   0.36542   0.00000  Uiso   1.00
C269   C     0.08886   0.50707   0.11943   0.00000  Uiso   1.00
O270   O     0.08277   0.53933   0.14415   0.00000  Uiso   1.00
O271   O     0.05878   0.47309   0.11531   0.00000  Uiso   1.00
H272   H     0.03334   0.47894   0.13458   0.00000  Uiso   1.00
C273   C     0.08879   0.50677   0.38066   0.00000  Uiso   1.00
O274   O     0.06303   0.47634   0.38308   0.00000  Uiso   1.00
O275   O     0.08120   0.54462   0.35386   0.00000  Uiso   1.00
H276   H     0.05296   0.54332   0.33870   0.00000  Uiso   1.00
C277   C     0.24454   0.49323   0.11934   0.00000  Uiso   1.00
O278   O     0.27030   0.52366   0.11692   0.00000  Uiso   1.00
O279   O     0.25213   0.45538   0.14614   0.00000  Uiso   1.00
H280   H     0.28037   0.45668   0.16130   0.00000  Uiso   1.00
C281   C     0.41998   0.49999   0.24988   0.00000  Uiso   1.00
C282   C     0.58002   0.50001   0.25012   0.00000  Uiso   1.00
C283   C     0.42442   0.50956   0.02309   0.00000  Uiso   1.00
C284   C     0.57558   0.49044   0.47691   0.00000  Uiso   1.00
C285   C     0.35470   0.46066   0.26242   0.00000  Uiso   1.00
C286   C     0.64530   0.53934   0.23758   0.00000  Uiso   1.00
C287   C     0.64534   0.46069   0.26259   0.00000  Uiso   1.00
C288   C     0.35466   0.53931   0.23741   0.00000  Uiso   1.00
C289   C     0.62416   0.50004   0.25019   0.00000  Uiso   1.00
C290   C     0.37584   0.49996   0.24981   0.00000  Uiso   1.00
C291   C     0.52719   0.35729   0.27630   0.00000  Uiso   1.00
C292   C     0.47281   0.64271   0.22370   0.00000  Uiso   1.00
C293   C     0.47281   0.35733   0.22370   0.00000  Uiso   1.00
C294   C     0.52719   0.64267   0.27630   0.00000  Uiso   1.00
C295   C     0.50013   0.50001   0.16370   0.00000  Uiso   1.00
C296   C     0.49987   0.49999   0.33630   0.00000  Uiso   1.00
C297   C     0.53818   0.49610   0.40635   0.00000  Uiso   1.00
C298   C     0.46182   0.50390   0.09365   0.00000  Uiso   1.00
C299   C     0.49992   0.49991   0.38393   0.00000  Uiso   1.00
C300   C     0.50008   0.50009   0.11607   0.00000  Uiso   1.00
C301   C     0.46172   0.50359   0.40642   0.00000  Uiso   1.00
C302   C     0.53828   0.49641   0.09358   0.00000  Uiso   1.00
C303   C     0.46172   0.50407   0.45314   0.00000  Uiso   1.00
C304   C     0.53828   0.49593   0.04686   0.00000  Uiso   1.00
C305   C     0.49999   0.49997   0.47651   0.00000  Uiso   1.00
C306   C     0.50001   0.50003   0.02349   0.00000  Uiso   1.00
C307   C     0.53824   0.49579   0.45308   0.00000  Uiso   1.00
C308   C     0.46176   0.50421   0.04692   0.00000  Uiso   1.00
C309   C     0.42439   0.50948   0.47701   0.00000  Uiso   1.00
C310   C     0.57561   0.49052   0.02299   0.00000  Uiso   1.00
H311   H     0.39471   0.51409   0.46045   0.00000  Uiso   1.00
H312   H     0.60529   0.48590   0.03955   0.00000  Uiso   1.00
H313   H     0.39477   0.51429   0.03967   0.00000  Uiso   1.00
H314   H     0.60523   0.48571   0.46033   0.00000  Uiso   1.00
H315   H     0.37106   0.43021   0.27249   0.00000  Uiso   1.00
H316   H     0.62894   0.56979   0.22751   0.00000  Uiso   1.00
H317   H     0.62901   0.43025   0.27269   0.00000  Uiso   1.00
H318   H     0.37099   0.56975   0.22731   0.00000  Uiso   1.00
H319   H     0.54893   0.37544   0.29734   0.00000  Uiso   1.00
H320   H     0.45107   0.62456   0.20266   0.00000  Uiso   1.00
H321   H     0.45108   0.37550   0.20266   0.00000  Uiso   1.00
H322   H     0.54892   0.62450   0.29734   0.00000  Uiso   1.00
N323   N     0.50000   0.61907   0.25000   0.00000  Uiso   1.00
N324   N     0.50000   0.38093   0.25000   0.00000  Uiso   1.00
O325   O     0.43892   0.53821   0.24999   0.00000  Uiso   1.00
O326   O     0.56108   0.46179   0.25000   0.00000  Uiso   1.00
O327   O     0.56108   0.53821   0.25000   0.00000  Uiso   1.00
O328   O     0.43892   0.46179   0.24999   0.00000  Uiso   1.00
O329   O     0.49999   0.53823   0.18392   0.00000  Uiso   1.00
O330   O     0.50001   0.46177   0.31607   0.00000  Uiso   1.00
O331   O     0.50001   0.53823   0.31607   0.00000  Uiso   1.00
O332   O     0.49999   0.46177   0.18392   0.00000  Uiso   1.00
Zn333  Zn    0.50000   0.55104   0.25000   0.00000  Uiso   1.00
Zn334  Zn    0.50000   0.44896   0.25000   0.00000  Uiso   1.00
C335   C     0.57780   0.49293   0.38057   0.00000  Uiso   1.00
O336   O     0.58389   0.46068   0.35585   0.00000  Uiso   1.00
O337   O     0.60788   0.52692   0.38469   0.00000  Uiso   1.00
H338   H     0.63332   0.52106   0.36542   0.00000  Uiso   1.00
C339   C     0.42220   0.50707   0.11943   0.00000  Uiso   1.00
O340   O     0.41611   0.53933   0.14415   0.00000  Uiso   1.00
O341   O     0.39212   0.47309   0.11531   0.00000  Uiso   1.00
H342   H     0.36668   0.47894   0.13458   0.00000  Uiso   1.00
C343   C     0.42212   0.50677   0.38066   0.00000  Uiso   1.00
O344   O     0.39637   0.47634   0.38308   0.00000  Uiso   1.00
O345   O     0.41454   0.54462   0.35386   0.00000  Uiso   1.00
H346   H     0.38630   0.54332   0.33870   0.00000  Uiso   1.00
C347   C     0.57788   0.49323   0.11934   0.00000  Uiso   1.00
O348   O     0.60363   0.52366   0.11692   0.00000  Uiso   1.00
O349   O     0.58546   0.45538   0.14614   0.00000  Uiso   1.00
H350   H     0.61370   0.45668   0.16130   0.00000  Uiso   1.00
C351   C     0.75331   0.49999   0.24988   0.00000  Uiso   1.00
C352   C     0.91335   0.50001   0.25012   0.00000  Uiso   1.00
C353   C     0.75775   0.50956   0.02309   0.00000  Uiso   1.00
C354   C     0.90891   0.49044   0.47691   0.00000  Uiso   1.00
C355   C     0.68804   0.46066   0.26242   0.00000  Uiso   1.00
C356   C     0.97863   0.53934   0.23758   0.00000  Uiso   1.00
C357   C     0.97867   0.46069   0.26259   0.00000  Uiso   1.00
C358   C     0.68799   0.53931   0.23741   0.00000  Uiso   1.00
C359   C     0.95750   0.50004   0.25019   0.00000  Uiso   1.00
C360   C     0.70917   0.49996   0.24981   0.00000  Uiso   1.00
C361   C     0.86052   0.35729   0.27630   0.00000  Uiso   1.00
C362   C     0.80615   0.64271   0.22370   0.00000  Uiso   1.00
C363   C     0.80615   0.35733   0.22370   0.00000  Uiso   1.00
C364   C     0.86052   0.64267   0.27630   0.00000  Uiso   1.00
C365   C     0.83346   0.50001   0.16370   0.00000  Uiso   1.00
C366   C     0.83320   0.49999   0.33630   0.00000  Uiso   1.00
C367   C     0.87151   0.49610   0.40635   0.00000  Uiso   1.00
C368   C     0.79516   0.50390   0.09365   0.00000  Uiso   1.00
C369   C     0.83325   0.49991   0.38393   0.00000  Uiso   1.00
C370   C     0.83341   0.50009   0.11607   0.00000  Uiso   1.00
C371   C     0.79505   0.50359   0.40642   0.00000  Uiso   1.00
C372   C     0.87161   0.49641   0.09358   0.00000  Uiso   1.00
C373   C     0.79505   0.50407   0.45314   0.00000  Uiso   1.00
C374   C     0.87162   0.49593   0.04686   0.00000  Uiso   1.00
C375   C     0.83332   0.49997   0.47651   0.00000  Uiso   1.00
C376   C     0.83334   0.50003   0.02349   0.00000  Uiso   1.00
C377   C     0.87157   0.49579   0.45308   0.00000  Uiso   1.00
C378   C     0.79510   0.50421   0.04692   0.00000  Uiso   1.00
C379   C     0.75773   0.50948   0.47701   0.00000  Uiso   1.00
C380   C     0.90894   0.49052   0.02299   0.00000  Uiso   1.00
H381   H     0.72804   0.51409   0.46045   0.00000  Uiso   1.00
H382   H     0.93862   0.48590   0.03955   0.00000  Uiso   1.00
H383   H     0.72810   0.51429   0.03967   0.00000  Uiso   1.00
H384   H     0.93856   0.48571   0.46033   0.00000  Uiso   1.00
H385   H     0.70439   0.43021   0.27249   0.00000  Uiso   1.00
H386   H     0.96227   0.56979   0.22751   0.00000  Uiso   1.00
H387   H     0.96234   0.43025   0.27269   0.00000  Uiso   1.00
H388   H     0.70432   0.56975   0.22731   0.00000  Uiso   1.00
H389   H     0.88226   0.37544   0.29734   0.00000  Uiso   1.00
H390   H     0.78441   0.62456   0.20266   0.00000  Uiso   1.00
H391   H     0.78441   0.37550   0.20266   0.00000  Uiso   1.00
H392   H     0.88225   0.62450   0.29734   0.00000  Uiso   1.00
N393   N     0.83333   0.61907   0.25000   0.00000  Uiso   1.00
N394   N     0.83333   0.38093   0.25000   0.00000  Uiso   1.00
O395   O     0.77226   0.53821   0.24999   0.00000  Uiso   1.00
O396   O     0.89441   0.46179   0.25000   0.00000  Uiso   1.00
O397   O     0.89441   0.53821   0.25000   0.00000  Uiso   1.00
O398   O     0.77226   0.46179   0.24999   0.00000  Uiso   1.00
O399   O     0.83333   0.53823   0.18392   0.00000  Uiso   1.00
O400   O     0.83334   0.46177   0.31607   0.00000  Uiso   1.00
O401   O     0.83334   0.53823   0.31607   0.00000  Uiso   1.00
O402   O     0.83333   0.46177   0.18392   0.00000  Uiso   1.00
Zn403  Zn    0.83333   0.55104   0.25000   0.00000  Uiso   1.00
Zn404  Zn    0.83333   0.44896   0.25000   0.00000  Uiso   1.00
C405   C     0.91114   0.49293   0.38057   0.00000  Uiso   1.00
O406   O     0.91723   0.46068   0.35585   0.00000  Uiso   1.00
O407   O     0.94122   0.52692   0.38469   0.00000  Uiso   1.00
H408   H     0.96666   0.52106   0.36542   0.00000  Uiso   1.00
C409   C     0.75553   0.50707   0.11943   0.00000  Uiso   1.00
O410   O     0.74944   0.53933   0.14415   0.00000  Uiso   1.00
O411   O     0.72545   0.47309   0.11531   0.00000  Uiso   1.00
H412   H     0.70001   0.47894   0.13458   0.00000  Uiso   1.00
C413   C     0.75546   0.50677   0.38066   0.00000  Uiso   1.00
O414   O     0.72970   0.47634   0.38308   0.00000  Uiso   1.00
O415   O     0.74787   0.54462   0.35386   0.00000  Uiso   1.00
H416   H     0.71963   0.54332   0.33870   0.00000  Uiso   1.00
C417   C     0.91121   0.49323   0.11934   0.00000  Uiso   1.00
O418   O     0.93697   0.52366   0.11692   0.00000  Uiso   1.00
O419   O     0.91880   0.45538   0.14614   0.00000  Uiso   1.00
H420   H     0.94704   0.45668   0.16130   0.00000  Uiso   1.00
C421   C     0.08665   0.83332   0.24988   0.00000  Uiso   1.00
C422   C     0.24669   0.83334   0.25012   0.00000  Uiso   1.00
C423   C     0.09109   0.84290   0.02309   0.00000  Uiso   1.00
C424   C     0.24225   0.82377   0.47691   0.00000  Uiso   1.00
C425   C     0.02137   0.79399   0.26242   0.00000  Uiso   1.00
C426   C     0.31196   0.87268   0.23758   0.00000  Uiso   1.00
C427   C     0.31201   0.79403   0.26259   0.00000  Uiso   1.00
C428   C     0.02133   0.87264   0.23741   0.00000  Uiso   1.00
C429   C     0.29083   0.83337   0.25019   0.00000  Uiso   1.00
C430   C     0.04250   0.83329   0.24981   0.00000  Uiso   1.00
C431   C     0.19385   0.69063   0.27630   0.00000  Uiso   1.00
C432   C     0.13948   0.97604   0.22370   0.00000  Uiso   1.00
C433   C     0.13948   0.69066   0.22370   0.00000  Uiso   1.00
C434   C     0.19385   0.97601   0.27630   0.00000  Uiso   1.00
C435   C     0.16680   0.83335   0.16370   0.00000  Uiso   1.00
C436   C     0.16654   0.83332   0.33630   0.00000  Uiso   1.00
C437   C     0.20484   0.82943   0.40635   0.00000  Uiso   1.00
C438   C     0.12849   0.83723   0.09365   0.00000  Uiso   1.00
C439   C     0.16659   0.83325   0.38393   0.00000  Uiso   1.00
C440   C     0.16675   0.83342   0.11607   0.00000  Uiso   1.00
C441   C     0.12839   0.83692   0.40642   0.00000  Uiso   1.00
C442   C     0.20495   0.82975   0.09358   0.00000  Uiso   1.00
C443   C     0.12838   0.83740   0.45314   0.00000  Uiso   1.00
C444   C     0.20495   0.82926   0.04686   0.00000  Uiso   1.00
C445   C     0.16666   0.83330   0.47651   0.00000  Uiso   1.00
C446   C     0.16668   0.83336   0.02349   0.00000  Uiso   1.00
C447   C     0.20490   0.82912   0.45308   0.00000  Uiso   1.00
C448   C     0.12843   0.83754   0.04692   0.00000  Uiso   1.00
C449   C     0.09106   0.84281   0.47701   0.00000  Uiso   1.00
C450   C     0.24227   0.82386   0.02299   0.00000  Uiso   1.00
H451   H     0.06137   0.84743   0.46045   0.00000  Uiso   1.00
H452   H     0.27196   0.81924   0.03955   0.00000  Uiso   1.00
H453   H     0.06144   0.84762   0.03967   0.00000  Uiso   1.00
H454   H     0.27190   0.81904   0.46033   0.00000  Uiso   1.00
H455   H     0.03773   0.76355   0.27249   0.00000  Uiso   1.00
H456   H     0.29561   0.90312   0.22751   0.00000  Uiso   1.00
H457   H     0.29568   0.76358   0.27269   0.00000  Uiso   1.00
H458   H     0.03765   0.90309   0.22731   0.00000  Uiso   1.00
H459   H     0.21559   0.70878   0.29734   0.00000  Uiso   1.00
H460   H     0.11774   0.95789   0.20266   0.00000  Uiso   1.00
H461   H     0.11775   0.70884   0.20266   0.00000  Uiso   1.00
H462   H     0.21559   0.95783   0.29734   0.00000  Uiso   1.00
N463   N     0.16667   0.95240   0.25000   0.00000  Uiso   1.00
N464   N     0.16667   0.71427   0.25000   0.00000  Uiso   1.00
O465   O     0.10559   0.87154   0.24999   0.00000  Uiso   1.00
O466   O     0.22774   0.79513   0.25000   0.00000  Uiso   1.00
O467   O     0.22774   0.87154   0.25000   0.00000  Uiso   1.00
O468   O     0.10559   0.79513   0.24999   0.00000  Uiso   1.00
O469   O     0.16666   0.87156   0.18392   0.00000  Uiso   1.00
O470   O     0.16667   0.79511   0.31607   0.00000  Uiso   1.00
O471   O     0.16667   0.87156   0.31607   0.00000  Uiso   1.00
O472   O     0.16666   0.79511   0.18392   0.00000  Uiso   1.00
Zn473  Zn    0.16667   0.88437   0.25000   0.00000  Uiso   1.00
Zn474  Zn    0.16667   0.78229   0.25000   0.00000  Uiso   1.00
C475   C     0.24447   0.82626   0.38057   0.00000  Uiso   1.00
O476   O     0.25056   0.79401   0.35585   0.00000  Uiso   1.00
O477   O     0.27455   0.86025   0.38469   0.00000  Uiso   1.00
H478   H     0.29999   0.85439   0.36542   0.00000  Uiso   1.00
C479   C     0.08886   0.84041   0.11943   0.00000  Uiso   1.00
O480   O     0.08277   0.87266   0.14415   0.00000  Uiso   1.00
O481   O     0.05878   0.80642   0.11531   0.00000  Uiso   1.00
H482   H     0.03334   0.81228   0.13458   0.00000  Uiso   1.00
C483   C     0.08879   0.84010   0.38066   0.00000  Uiso   1.00
O484   O     0.06303   0.80967   0.38308   0.00000  Uiso   1.00
O485   O     0.08120   0.87795   0.35386   0.00000  Uiso   1.00
H486   H     0.05296   0.87665   0.33870   0.00000  Uiso   1.00
C487   C     0.24454   0.82656   0.11934   0.00000  Uiso   1.00
O488   O     0.27030   0.85699   0.11692   0.00000  Uiso   1.00
O489   O     0.25213   0.78871   0.14614   0.00000  Uiso   1.00
H490   H     0.28037   0.79001   0.16130   0.00000  Uiso   1.00
C491   C     0.41998   0.83332   0.24988   0.00000  Uiso   1.00
C492   C     0.58002   0.83334   0.25012   0.00000  Uiso   1.00
C493   C     0.42442   0.84290   0.02309   0.00000  Uiso   1.00
C494   C     0.57558   0.82377   0.47691   0.00000  Uiso   1.00
C495   C     0.35470   0.79399   0.26242   0.00000  Uiso   1.00
C496   C     0.64530   0.87268   0.23758   0.00000  Uiso   1.00
C497   C     0.64534   0.79403   0.26259   0.00000  Uiso   1.00
C498   C     0.35466   0.87264   0.23741   0.00000  Uiso   1.00
C499   C     0.62416   0.83337   0.25019   0.00000  Uiso   1.00
C500   C     0.37584   0.83329   0.24981   0.00000  Uiso   1.00
C501   C     0.52719   0.69063   0.27630   0.00000  Uiso   1.00
C502   C     0.47281   0.97604   0.22370   0.00000  Uiso   1.00
C503   C     0.47281   0.69066   0.22370   0.00000  Uiso   1.00
C504   C     0.52719   0.97601   0.27630   0.00000  Uiso   1.00
C505   C     0.50013   0.83335   0.16370   0.00000  Uiso   1.00
C506   C     0.49987   0.83332   0.33630   0.00000  Uiso   1.00
C507   C     0.53818   0.82943   0.40635   0.00000  Uiso   1.00
C508   C     0.46182   0.83723   0.09365   0.00000  Uiso   1.00
C509   C     0.49992   0.83325   0.38393   0.00000  Uiso   1.00
C510   C     0.50008   0.83342   0.11607   0.00000  Uiso   1.00
C511   C     0.46172   0.83692   0.40642   0.00000  Uiso   1.00
C512   C     0.53828   0.82975   0.09358   0.00000  Uiso   1.00
C513   C     0.46172   0.83740   0.45314   0.00000  Uiso   1.00
C514   C     0.53828   0.82926   0.04686   0.00000  Uiso   1.00
C515   C     0.49999   0.83330   0.47651   0.00000  Uiso   1.00
C516   C     0.50001   0.83336   0.02349   0.00000  Uiso   1.00
C517   C     0.53824   0.82912   0.45308   0.00000  Uiso   1.00
C518   C     0.46176   0.83754   0.04692   0.00000  Uiso   1.00
C519   C     0.42439   0.84281   0.47701   0.00000  Uiso   1.00
C520   C     0.57561   0.82386   0.02299   0.00000  Uiso   1.00
H521   H     0.39471   0.84743   0.46045   0.00000  Uiso   1.00
H522   H     0.60529   0.81924   0.03955   0.00000  Uiso   1.00
H523   H     0.39477   0.84762   0.03967   0.00000  Uiso   1.00
H524   H     0.60523   0.81904   0.46033   0.00000  Uiso   1.00
H525   H     0.37106   0.76355   0.27249   0.00000  Uiso   1.00
H526   H     0.62894   0.90312   0.22751   0.00000  Uiso   1.00
H527   H     0.62901   0.76358   0.27269   0.00000  Uiso   1.00
H528   H     0.37099   0.90309   0.22731   0.00000  Uiso   1.00
H529   H     0.54893   0.70878   0.29734   0.00000  Uiso   1.00
H530   H     0.45107   0.95789   0.20266   0.00000  Uiso   1.00
H531   H     0.45108   0.70884   0.20266   0.00000  Uiso   1.00
H532   H     0.54892   0.95783   0.29734   0.00000  Uiso   1.00
N533   N     0.50000   0.95240   0.25000   0.00000  Uiso   1.00
N534   N     0.50000   0.71427   0.25000   0.00000  Uiso   1.00
O535   O     0.43892   0.87154   0.24999   0.00000  Uiso   1.00
O536   O     0.56108   0.79513   0.25000   0.00000  Uiso   1.00
O537   O     0.56108   0.87154   0.25000   0.00000  Uiso   1.00
O538   O     0.43892   0.79513   0.24999   0.00000  Uiso   1.00
O539   O     0.49999   0.87156   0.18392   0.00000  Uiso   1.00
O540   O     0.50001   0.79511   0.31607   0.00000  Uiso   1.00
O541   O     0.50001   0.87156   0.31607   0.00000  Uiso   1.00
O542   O     0.49999   0.79511   0.18392   0.00000  Uiso   1.00
Zn543  Zn    0.50000   0.88437   0.25000   0.00000  Uiso   1.00
Zn544  Zn    0.50000   0.78229   0.25000   0.00000  Uiso   1.00
C545   C     0.57780   0.82626   0.38057   0.00000  Uiso   1.00
O546   O     0.58389   0.79401   0.35585   0.00000  Uiso   1.00
O547   O     0.60788   0.86025   0.38469   0.00000  Uiso   1.00
H548   H     0.63332   0.85439   0.36542   0.00000  Uiso   1.00
C549   C     0.42220   0.84041   0.11943   0.00000  Uiso   1.00
O550   O     0.41611   0.87266   0.14415   0.00000  Uiso   1.00
O551   O     0.39212   0.80642   0.11531   0.00000  Uiso   1.00
H552   H     0.36668   0.81228   0.13458   0.00000  Uiso   1.00
C553   C     0.42212   0.84010   0.38066   0.00000  Uiso   1.00
O554   O     0.39637   0.80967   0.38308   0.00000  Uiso   1.00
O555   O     0.41454   0.87795   0.35386   0.00000  Uiso   1.00
H556   H     0.38630   0.87665   0.33870   0.00000  Uiso   1.00
C557   C     0.57788   0.82656   0.11934   0.00000  Uiso   1.00
O558   O     0.60363   0.85699   0.11692   0.00000  Uiso   1.00
O559   O     0.58546   0.78871   0.14614   0.00000  Uiso   1.00
H560   H     0.61370   0.79001   0.16130   0.00000  Uiso   1.00
C561   C     0.75331   0.83332   0.24988   0.00000  Uiso   1.00
C562   C     0.91335   0.83334   0.25012   0.00000  Uiso   1.00
C563   C     0.75775   0.84290   0.02309   0.00000  Uiso   1.00
C564   C     0.90891   0.82377   0.47691   0.00000  Uiso   1.00
C565   C     0.68804   0.79399   0.26242   0.00000  Uiso   1.00
C566   C     0.97863   0.87268   0.23758   0.00000  Uiso   1.00
C567   C     0.97867   0.79403   0.26259   0.00000  Uiso   1.00
C568   C     0.68799   0.87264   0.23741   0.00000  Uiso   1.00
C569   C     0.95750   0.83337   0.25019   0.00000  Uiso   1.00
C570   C     0.70917   0.83329   0.24981   0.00000  Uiso   1.00
C571   C     0.86052   0.69063   0.27630   0.00000  Uiso   1.00
C572   C     0.80615   0.97604   0.22370   0.00000  Uiso   1.00
C573   C     0.80615   0.69066   0.22370   0.00000  Uiso   1.00
C574   C     0.86052   0.97601   0.27630   0.00000  Uiso   1.00
C575   C     0.83346   0.83335   0.16370   0.00000  Uiso   1.00
C576   C     0.83320   0.83332   0.33630   0.00000  Uiso   1.00
C577   C     0.87151   0.82943   0.40635   0.00000  Uiso   1.00
C578   C     0.79516   0.83723   0.09365   0.00000  Uiso   1.00
C579   C     0.83325   0.83325   0.38393   0.00000  Uiso   1.00
C580   C     0.83341   0.83342   0.11607   0.00000  Uiso   1.00
C581   C     0.79505   0.83692   0.40642   0.00000  Uiso   1.00
C582   C     0.87161   0.82975   0.09358   0.00000  Uiso   1.00
C583   C     0.79505   0.83740   0.45314   0.00000  Uiso   1.00
C584   C     0.87162   0.82926   0.04686   0.00000  Uiso   1.00
C585   C     0.83332   0.83330   0.47651   0.00000  Uiso   1.00
C586   C     0.83334   0.83336   0.02349   0.00000  Uiso   1.00
C587   C     0.87157   0.82912   0.45308   0.00000  Uiso   1.00
C588   C     0.79510   0.83754   0.04692   0.00000  Uiso   1.00
C589   C     0.75773   0.84281   0.47701   0.00000  Uiso   1.00
C590   C     0.90894   0.82386   0.02299   0.00000  Uiso   1.00
H591   H     0.72804   0.84743   0.46045   0.00000  Uiso   1.00
H592   H     0.93862   0.81924   0.03955   0.00000  Uiso   1.00
H593   H     0.72810   0.84762   0.03967   0.00000  Uiso   1.00
H594   H     0.93856   0.81904   0.46033   0.00000  Uiso   1.00
H595   H     0.70439   0.76355   0.27249   0.00000  Uiso   1.00
H596   H     0.96227   0.90312   0.22751   0.00000  Uiso   1.00
H597   H     0.96234   0.76358   0.27269   0.00000  Uiso   1.00
H598   H     0.70432   0.90309   0.22731   0.00000  Uiso   1.00
H599   H     0.88226   0.70878   0.29734   0.00000  Uiso   1.00
H600   H     0.78441   0.95789   0.20266   0.00000  Uiso   1.00
H601   H     0.78441   0.70884   0.20266   0.00000  Uiso   1.00
H602   H     0.88225   0.95783   0.29734   0.00000  Uiso   1.00
N603   N     0.83333   0.95240   0.25000   0.00000  Uiso   1.00
N604   N     0.83333   0.71427   0.25000   0.00000  Uiso   1.00
O605   O     0.77226   0.87154   0.24999   0.00000  Uiso   1.00
O606   O     0.89441   0.79513   0.25000   0.00000  Uiso   1.00
O607   O     0.89441   0.87154   0.25000   0.00000  Uiso   1.00
O608   O     0.77226   0.79513   0.24999   0.00000  Uiso   1.00
O609   O     0.83333   0.87156   0.18392   0.00000  Uiso   1.00
O610   O     0.83334   0.79511   0.31607   0.00000  Uiso   1.00
O611   O     0.83334   0.87156   0.31607   0.00000  Uiso   1.00
O612   O     0.83333   0.79511   0.18392   0.00000  Uiso   1.00
Zn613  Zn    0.83333   0.88437   0.25000   0.00000  Uiso   1.00
Zn614  Zn    0.83333   0.78229   0.25000   0.00000  Uiso   1.00
C615   C     0.91114   0.82626   0.38057   0.00000  Uiso   1.00
O616   O     0.91723   0.79401   0.35585   0.00000  Uiso   1.00
O617   O     0.94122   0.86025   0.38469   0.00000  Uiso   1.00
H618   H     0.96666   0.85439   0.36542   0.00000  Uiso   1.00
C619   C     0.75553   0.84041   0.11943   0.00000  Uiso   1.00
O620   O     0.74944   0.87266   0.14415   0.00000  Uiso   1.00
O621   O     0.72545   0.80642   0.11531   0.00000  Uiso   1.00
H622   H     0.70001   0.81228   0.13458   0.00000  Uiso   1.00
C623   C     0.75546   0.84010   0.38066   0.00000  Uiso   1.00
O624   O     0.72970   0.80967   0.38308   0.00000  Uiso   1.00
O625   O     0.74787   0.87795   0.35386   0.00000  Uiso   1.00
H626   H     0.71963   0.87665   0.33870   0.00000  Uiso   1.00
C627   C     0.91121   0.82656   0.11934   0.00000  Uiso   1.00
O628   O     0.93697   0.85699   0.11692   0.00000  Uiso   1.00
O629   O     0.91880   0.78871   0.14614   0.00000  Uiso   1.00
H630   H     0.94704   0.79001   0.16130   0.00000  Uiso   1.00
C631   C     0.08665   0.16666   0.74988   0.00000  Uiso   1.00
C632   C     0.24669   0.16668   0.75012   0.00000  Uiso   1.00
C633   C     0.09109   0.17623   0.52309   0.00000  Uiso   1.00
C634   C     0.24225   0.15710   0.97691   0.00000  Uiso   1.00
C635   C     0.02137   0.12732   0.76242   0.00000  Uiso   1.00
C636   C     0.31196   0.20601   0.73758   0.00000  Uiso   1.00
C637   C     0.31201   0.12736   0.76259   0.00000  Uiso   1.00
C638   C     0.02133   0.20597   0.73741   0.00000  Uiso   1.00
C639   C     0.29083   0.16671   0.75019   0.00000  Uiso   1.00
C640   C     0.04250   0.16663   0.74981   0.00000  Uiso   1.00
C641   C     0.19385   0.02396   0.77630   0.00000  Uiso   1.00
C642   C     0.13948   0.30937   0.72370   0.00000  Uiso   1.00
C643   C     0.13948   0.02399   0.72370   0.00000  Uiso   1.00
C644   C     0.19385   0.30934   0.77630   0.00000  Uiso   1.00
C645   C     0.16680   0.16668   0.66370   0.00000  Uiso   1.00
C646   C     0.16654   0.16665   0.83630   0.00000  Uiso   1.00
C647   C     0.20484   0.16277   0.90635   0.00000  Uiso   1.00
C648   C     0.12849   0.17057   0.59365   0.00000  Uiso   1.00
C649   C     0.16659   0.16658   0.88393   0.00000  Uiso   1.00
C650   C     0.16675   0.16675   0.61607   0.00000  Uiso   1.00
C651   C     0.12839   0.17025   0.90642   0.00000  Uiso   1.00
C652   C     0.20495   0.16308   0.59358   0.00000  Uiso   1.00
C653   C     0.12838   0.17074   0.95314   0.00000  Uiso   1.00
C654   C     0.20495   0.16259   0.54686   0.00000  Uiso   1.00
C655   C     0.16666   0.16664   0.97651   0.00000  Uiso   1.00
C656   C     0.16668   0.16670   0.52349   0.00000  Uiso   1.00
C657   C     0.20490   0.16246   0.95308   0.00000  Uiso   1.00
C658   C     0.12843   0.17088   0.54692   0.00000  Uiso   1.00
C659   C     0.09106   0.17614   0.97701   0.00000  Uiso   1.00
C660   C     0.24227   0.15719   0.52299   0.00000  Uiso   1.00
H661   H     0.06137   0.18076   0.96045   0.00000  Uiso   1.00
H662   H     0.27196   0.15257   0.53955   0.00000  Uiso   1.00
H663   H     0.06144   0.18095   0.53967   0.00000  Uiso   1.00
H664   H     0.27190   0.15238   0.96033   0.00000  Uiso   1.00
H665   H     0.03773   0.09688   0.77249   0.00000  Uiso   1.00
H666   H     0.29561   0.23645   0.72751   0.00000  Uiso   1.00
H667   H     0.29568   0.09691   0.77269   0.00000  Uiso   1.00
H668   H     0.03765   0.23642   0.72731   0.00000  Uiso   1.00
H669   H     0.21559   0.04211   0.79734   0.00000  Uiso   1.00
H670   H     0.11774   0.29122   0.70266   0.00000  Uiso   1.00
H671   H     0.11775   0.04217   0.70266   0.00000  Uiso   1.00
H672   H     0.21559   0.29116   0.79734   0.00000  Uiso   1.00
N673   N     0.16667   0.28573   0.75000   0.00000  Uiso   1.00
N674   N     0.16667   0.04760   0.75000   0.00000  Uiso   1.00
O675   O     0.10559   0.20487   0.74999   0.00000  Uiso   1.00
O676   O     0.22774   0.12846   0.75000   0.00000  Uiso   1.00
O677   O     0.22774   0.20487   0.75000   0.00000  Uiso   1.00
O678   O     0.10559   0.12846   0.74999   0.00000  Uiso   1.00
O679   O     0.16666   0.20489   0.68392   0.00000  Uiso   1.00
O680   O     0.16667   0.12844   0.81607   0.00000  Uiso   1.00
O681   O     0.16667   0.20489   0.81607   0.00000  Uiso   1.00
O682   O     0.16666   0.12844   0.68392   0.00000  Uiso   1.00
Zn683  Zn    0.16667   0.21771   0.75000   0.00000  Uiso   1.00
Zn684  Zn    0.16667   0.11563   0.75000   0.00000  Uiso   1.00
C685   C     0.24447   0.15959   0.88057   0.00000  Uiso   1.00
O686   O     0.25056   0.12734   0.85585   0.00000  Uiso   1.00
O687   O     0.27455   0.19358   0.88469   0.00000  Uiso   1.00
H688   H     0.29999   0.18773   0.86542   0.00000  Uiso   1.00
C689   C     0.08886   0.17374   0.61943   0.00000  Uiso   1.00
O690   O     0.08277   0.20599   0.64415   0.00000  Uiso   1.00
O691   O     0.05878   0.13975   0.61531   0.00000  Uiso   1.00
H692   H     0.03334   0.14561   0.63458   0.00000  Uiso   1.00
C693   C     0.08879   0.17344   0.88066   0.00000  Uiso   1.00
O694   O     0.06303   0.14301   0.88308   0.00000  Uiso   1.00
O695   O     0.08120   0.21129   0.85386   0.00000  Uiso   1.00
H696   H     0.05296   0.20998   0.83870   0.00000  Uiso   1.00
C697   C     0.24454   0.15990   0.61934   0.00000  Uiso   1.00
O698   O     0.27030   0.19032   0.61692   0.00000  Uiso   1.00
O699   O     0.25213   0.12205   0.64614   0.00000  Uiso   1.00
H700   H     0.28037   0.12335   0.66130   0.00000  Uiso   1.00
C701   C     0.41998   0.16666   0.74988   0.00000  Uiso   1.00
C702   C     0.58002   0.16668   0.75012   0.00000  Uiso   1.00
C703   C     0.42442   0.17623   0.52309   0.00000  Uiso   1.00
C704   C     0.57558   0.15710   0.97691   0.00000  Uiso   1.00
C705   C     0.35470   0.12732   0.76242   0.00000  Uiso   1.00
C706   C     0.64530   0.20601   0.73758   0.00000  Uiso   1.00
C707   C     0.64534   0.12736   0.76259   0.00000  Uiso   1.00
C708   C     0.35466   0.20597   0.73741   0.00000  Uiso   1.00
C709   C     0.62416   0.16671   0.75019   0.00000  Uiso   1.00
C710   C     0.37584   0.16663   0.74981   0.00000  Uiso   1.00
C711   C     0.52719   0.02396   0.77630   0.00000  Uiso   1.00
C712   C     0.47281   0.30937   0.72370   0.00000  Uiso   1.00
C713   C     0.47281   0.02399   0.72370   0.00000  Uiso   1.00
C714   C     0.52719   0.30934   0.77630   0.00000  Uiso   1.00
C715   C     0.50013   0.16668   0.66370   0.00000  Uiso   1.00
C716   C     0.49987   0.16665   0.83630   0.00000  Uiso   1.00
C717   C     0.53818   0.16277   0.90635   0.00000  Uiso   1.00
C718   C     0.46182   0.17057   0.59365   0.00000  Uiso   1.00
C719   C     0.49992   0.16658   0.88393   0.00000  Uiso   1.00
C720   C     0.50008   0.16675   0.61607   0.00000  Uiso   1.00
C721   C     0.46172   0.17025   0.90642   0.00000  Uiso   1.00
C722   C     0.53828   0.16308   0.59358   0.00000  Uiso   1.00
C723   C     0.46172   0.17074   0.95314   0.00000  Uiso   1.00
C724   C     0.53828   0.16259   0.54686   0.00000  Uiso   1.00
C725   C     0.49999   0.16664   0.97651   0.00000  Uiso   1.00
C726   C     0.50001   0.16670   0.52349   0.00000  Uiso   1.00
C727   C     0.53824   0.16246   0.95308   0.00000  Uiso   1.00
C728   C     0.46176   0.17088   0.54692   0.00000  Uiso   1.00
C729   C     0.42439   0.17614   0.97701   0.00000  Uiso   1.00
C730   C     0.57561   0.15719   0.52299   0.00000  Uiso   1.00
H731   H     0.39471   0.18076   0.96045   0.00000  Uiso   1.00
H732   H     0.60529   0.15257   0.53955   0.00000  Uiso   1.00
H733   H     0.39477   0.18095   0.53967   0.00000  Uiso   1.00
H734   H     0.60523   0.15238   0.96033   0.00000  Uiso   1.00
H735   H     0.37106   0.09688   0.77249   0.00000  Uiso   1.00
H736   H     0.62894   0.23645   0.72751   0.00000  Uiso   1.00
H737   H     0.62901   0.09691   0.77269   0.00000  Uiso   1.00
H738   H     0.37099   0.23642   0.72731   0.00000  Uiso   1.00
H739   H     0.54893   0.04211   0.79734   0.00000  Uiso   1.00
H740   H     0.45107   0.29122   0.70266   0.00000  Uiso   1.00
H741   H     0.45108   0.04217   0.70266   0.00000  Uiso   1.00
H742   H     0.54892   0.29116   0.79734   0.00000  Uiso   1.00
N743   N     0.50000   0.28573   0.75000   0.00000  Uiso   1.00
N744   N     0.50000   0.04760   0.75000   0.00000  Uiso   1.00
O745   O     0.43892   0.20487   0.74999   0.00000  Uiso   1.00
O746   O     0.56108   0.12846   0.75000   0.00000  Uiso   1.00
O747   O     0.56108   0.20487   0.75000   0.00000  Uiso   1.00
O748   O     0.43892   0.12846   0.74999   0.00000  Uiso   1.00
O749   O     0.49999   0.20489   0.68392   0.00000  Uiso   1.00
O750   O     0.50001   0.12844   0.81607   0.00000  Uiso   1.00
O751   O     0.50001   0.20489   0.81607   0.00000  Uiso   1.00
O752   O     0.49999   0.12844   0.68392   0.00000  Uiso   1.00
Zn753  Zn    0.50000   0.21771   0.75000   0.00000  Uiso   1.00
Zn754  Zn    0.50000   0.11563   0.75000   0.00000  Uiso   1.00
C755   C     0.57780   0.15959   0.88057   0.00000  Uiso   1.00
O756   O     0.58389   0.12734   0.85585   0.00000  Uiso   1.00
O757   O     0.60788   0.19358   0.88469   0.00000  Uiso   1.00
H758   H     0.63332   0.18773   0.86542   0.00000  Uiso   1.00
C759   C     0.42220   0.17374   0.61943   0.00000  Uiso   1.00
O760   O     0.41611   0.20599   0.64415   0.00000  Uiso   1.00
O761   O     0.39212   0.13975   0.61531   0.00000  Uiso   1.00
H762   H     0.36668   0.14561   0.63458   0.00000  Uiso   1.00
C763   C     0.42212   0.17344   0.88066   0.00000  Uiso   1.00
O764   O     0.39637   0.14301   0.88308   0.00000  Uiso   1.00
O765   O     0.41454   0.21129   0.85386   0.00000  Uiso   1.00
H766   H     0.38630   0.20998   0.83870   0.00000  Uiso   1.00
C767   C     0.57788   0.15990   0.61934   0.00000  Uiso   1.00
O768   O     0.60363   0.19032   0.61692   0.00000  Uiso   1.00
O769   O     0.58546   0.12205   0.64614   0.00000  Uiso   1.00
H770   H     0.61370   0.12335   0.66130   0.00000  Uiso   1.00
C771   C     0.75331   0.16666   0.74988   0.00000  Uiso   1.00
C772   C     0.91335   0.16668   0.75012   0.00000  Uiso   1.00
C773   C     0.75775   0.17623   0.52309   0.00000  Uiso   1.00
C774   C     0.90891   0.15710   0.97691   0.00000  Uiso   1.00
C775   C     0.68804   0.12732   0.76242   0.00000  Uiso   1.00
C776   C     0.97863   0.20601   0.73758   0.00000  Uiso   1.00
C777   C     0.97867   0.12736   0.76259   0.00000  Uiso   1.00
C778   C     0.68799   0.20597   0.73741   0.00000  Uiso   1.00
C779   C     0.95750   0.16671   0.75019   0.00000  Uiso   1.00
C780   C     0.70917   0.16663   0.74981   0.00000  Uiso   1.00
C781   C     0.86052   0.02396   0.77630   0.00000  Uiso   1.00
C782   C     0.80615   0.30937   0.72370   0.00000  Uiso   1.00
C783   C     0.80615   0.02399   0.72370   0.00000  Uiso   1.00
C784   C     0.86052   0.30934   0.77630   0.00000  Uiso   1.00
C785   C     0.83346   0.16668   0.66370   0.00000  Uiso   1.00
C786   C     0.83320   0.16665   0.83630   0.00000  Uiso   1.00
C787   C     0.87151   0.16277   0.90635   0.00000  Uiso   1.00
C788   C     0.79516   0.17057   0.59365   0.00000  Uiso   1.00
C789   C     0.83325   0.16658   0.88393   0.00000  Uiso   1.00
C790   C     0.83341   0.16675   0.61607   0.00000  Uiso   1.00
C791   C     0.79505   0.17025   0.90642   0.00000  Uiso   1.00
C792   C     0.87161   0.16308   0.59358   0.00000  Uiso   1.00
C793   C     0.79505   0.17074   0.95314   0.00000  Uiso   1.00
C794   C     0.87162   0.16259   0.54686   0.00000  Uiso   1.00
C795   C     0.83332   0.16664   0.97651   0.00000  Uiso   1.00
C796   C     0.83334   0.16670   0.52349   0.00000  Uiso   1.00
C797   C     0.87157   0.16246   0.95308   0.00000  Uiso   1.00
C798   C     0.79510   0.17088   0.54692   0.00000  Uiso   1.00
C799   C     0.75773   0.17614   0.97701   0.00000  Uiso   1.00
C800   C     0.90894   0.15719   0.52299   0.00000  Uiso   1.00
H801   H     0.72804   0.18076   0.96045   0.00000  Uiso   1.00
H802   H     0.93862   0.15257   0.53955   0.00000  Uiso   1.00
H803   H     0.72810   0.18095   0.53967   0.00000  Uiso   1.00
H804   H     0.93856   0.15238   0.96033   0.00000  Uiso   1.00
H805   H     0.70439   0.09688   0.77249   0.00000  Uiso   1.00
H806   H     0.96227   0.23645   0.72751   0.00000  Uiso   1.00
H807   H     0.96234   0.09691   0.77269   0.00000  Uiso   1.00
H808   H     0.70432   0.23642   0.72731   0.00000  Uiso   1.00
H809   H     0.88226   0.04211   0.79734   0.00000  Uiso   1.00
H810   H     0.78441   0.29122   0.70266   0.00000  Uiso   1.00
H811   H     0.78441   0.04217   0.70266   0.00000  Uiso   1.00
H812   H     0.88225   0.29116   0.79734   0.00000  Uiso   1.00
N813   N     0.83333   0.28573   0.75000   0.00000  Uiso   1.00
N814   N     0.83333   0.04760   0.75000   0.00000  Uiso   1.00
O815   O     0.77226   0.20487   0.74999   0.00000  Uiso   1.00
O816   O     0.89441   0.12846   0.75000   0.00000  Uiso   1.00
O817   O     0.89441   0.20487   0.75000   0.00000  Uiso   1.00
O818   O     0.77226   0.12846   0.74999   0.00000  Uiso   1.00
O819   O     0.83333   0.20489   0.68392   0.00000  Uiso   1.00
O820   O     0.83334   0.12844   0.81607   0.00000  Uiso   1.00
O821   O     0.83334   0.20489   0.81607   0.00000  Uiso   1.00
O822   O     0.83333   0.12844   0.68392   0.00000  Uiso   1.00
Zn823  Zn    0.83333   0.21771   0.75000   0.00000  Uiso   1.00
Zn824  Zn    0.83333   0.11563   0.75000   0.00000  Uiso   1.00
C825   C     0.91114   0.15959   0.88057   0.00000  Uiso   1.00
O826   O     0.91723   0.12734   0.85585   0.00000  Uiso   1.00
O827   O     0.94122   0.19358   0.88469   0.00000  Uiso   1.00
H828   H     0.96666   0.18773   0.86542   0.00000  Uiso   1.00
C829   C     0.75553   0.17374   0.61943   0.00000  Uiso   1.00
O830   O     0.74944   0.20599   0.64415   0.00000  Uiso   1.00
O831   O     0.72545   0.13975   0.61531   0.00000  Uiso   1.00
H832   H     0.70001   0.14561   0.63458   0.00000  Uiso   1.00
C833   C     0.75546   0.17344   0.88066   0.00000  Uiso   1.00
O834   O     0.72970   0.14301   0.88308   0.00000  Uiso   1.00
O835   O     0.74787   0.21129   0.85386   0.00000  Uiso   1.00
H836   H     0.71963   0.20998   0.83870   0.00000  Uiso   1.00
C837   C     0.91121   0.15990   0.61934   0.00000  Uiso   1.00
O838   O     0.93697   0.19032   0.61692   0.00000  Uiso   1.00
O839   O     0.91880   0.12205   0.64614   0.00000  Uiso   1.00
H840   H     0.94704   0.12335   0.66130   0.00000  Uiso   1.00
C841   C     0.08665   0.49999   0.74988   0.00000  Uiso   1.00
C842   C     0.24669   0.50001   0.75012   0.00000  Uiso   1.00
C843   C     0.09109   0.50956   0.52309   0.00000  Uiso   1.00
C844   C     0.24225   0.49044   0.97691   0.00000  Uiso   1.00
C845   C     0.02137   0.46066   0.76242   0.00000  Uiso   1.00
C846   C     0.31196   0.53934   0.73758   0.00000  Uiso   1.00
C847   C     0.31201   0.46069   0.76259   0.00000  Uiso   1.00
C848   C     0.02133   0.53931   0.73741   0.00000  Uiso   1.00
C849   C     0.29083   0.50004   0.75019   0.00000  Uiso   1.00
C850   C     0.04250   0.49996   0.74981   0.00000  Uiso   1.00
C851   C     0.19385   0.35729   0.77630   0.00000  Uiso   1.00
C852   C     0.13948   0.64271   0.72370   0.00000  Uiso   1.00
C853   C     0.13948   0.35733   0.72370   0.00000  Uiso   1.00
C854   C     0.19385   0.64267   0.77630   0.00000  Uiso   1.00
C855   C     0.16680   0.50001   0.66370   0.00000  Uiso   1.00
C856   C     0.16654   0.49999   0.83630   0.00000  Uiso   1.00
C857   C     0.20484   0.49610   0.90635   0.00000  Uiso   1.00
C858   C     0.12849   0.50390   0.59365   0.00000  Uiso   1.00
C859   C     0.16659   0.49991   0.88393   0.00000  Uiso   1.00
C860   C     0.16675   0.50009   0.61607   0.00000  Uiso   1.00
C861   C     0.12839   0.50359   0.90642   0.00000  Uiso   1.00
C862   C     0.20495   0.49641   0.59358   0.00000  Uiso   1.00
C863   C     0.12838   0.50407   0.95314   0.00000  Uiso   1.00
C864   C     0.20495   0.49593   0.54686   0.00000  Uiso   1.00
C865   C     0.16666   0.49997   0.97651   0.00000  Uiso   1.00
C866   C     0.16668   0.50003   0.52349   0.00000  Uiso   1.00
C867   C     0.20490   0.49579   0.95308   0.00000  Uiso   1.00
C868   C     0.12843   0.50421   0.54692   0.00000  Uiso   1.00
C869   C     0.09106   0.50948   0.97701   0.00000  Uiso   1.00
C870   C     0.24227   0.49052   0.52299   0.00000  Uiso   1.00
H871   H     0.06137   0.51409   0.96045   0.00000  Uiso   1.00
H872   H     0.27196   0.48590   0.53955   0.00000  Uiso   1.00
H873   H     0.06144   0.51429   0.53967   0.00000  Uiso   1.00
H874   H     0.27190   0.48571   0.96033   0.00000  Uiso   1.00
H875   H     0.03773   0.43021   0.77249   0.00000  Uiso   1.00
H876   H     0.29561   0.56979   0.72751   0.00000  Uiso   1.00
H877   H     0.29568   0.43025   0.77269   0.00000  Uiso   1.00
H878   H     0.03765   0.56975   0.72731   0.00000  Uiso   1.00
H879   H     0.21559   0.37544   0.79734   0.00000  Uiso   1.00
H880   H     0.11774   0.62456   0.70266   0.00000  Uiso   1.00
H881   H     0.11775   0.37550   0.70266   0.00000  Uiso   1.00
H882   H     0.21559   0.62450   0.79734   0.00000  Uiso   1.00
N883   N     0.16667   0.61907   0.75000   0.00000  Uiso   1.00
N884   N     0.16667   0.38093   0.75000   0.00000  Uiso   1.00
O885   O     0.10559   0.53821   0.74999   0.00000  Uiso   1.00
O886   O     0.22774   0.46179   0.75000   0.00000  Uiso   1.00
O887   O     0.22774   0.53821   0.75000   0.00000  Uiso   1.00
O888   O     0.10559   0.46179   0.74999   0.00000  Uiso   1.00
O889   O     0.16666   0.53823   0.68392   0.00000  Uiso   1.00
O890   O     0.16667   0.46177   0.81607   0.00000  Uiso   1.00
O891   O     0.16667   0.53823   0.81607   0.00000  Uiso   1.00
O892   O     0.16666   0.46177   0.68392   0.00000  Uiso   1.00
Zn893  Zn    0.16667   0.55104   0.75000   0.00000  Uiso   1.00
Zn894  Zn    0.16667   0.44896   0.75000   0.00000  Uiso   1.00
C895   C     0.24447   0.49293   0.88057   0.00000  Uiso   1.00
O896   O     0.25056   0.46068   0.85585   0.00000  Uiso   1.00
O897   O     0.27455   0.52692   0.88469   0.00000  Uiso   1.00
H898   H     0.29999   0.52106   0.86542   0.00000  Uiso   1.00
C899   C     0.08886   0.50707   0.61943   0.00000  Uiso   1.00
O900   O     0.08277   0.53933   0.64415   0.00000  Uiso   1.00
O901   O     0.05878   0.47309   0.61531   0.00000  Uiso   1.00
H902   H     0.03334   0.47894   0.63458   0.00000  Uiso   1.00
C903   C     0.08879   0.50677   0.88066   0.00000  Uiso   1.00
O904   O     0.06303   0.47634   0.88308   0.00000  Uiso   1.00
O905   O     0.08120   0.54462   0.85386   0.00000  Uiso   1.00
H906   H     0.05296   0.54332   0.83870   0.00000  Uiso   1.00
C907   C     0.24454   0.49323   0.61934   0.00000  Uiso   1.00
O908   O     0.27030   0.52366   0.61692   0.00000  Uiso   1.00
O909   O     0.25213   0.45538   0.64614   0.00000  Uiso   1.00
H910   H     0.28037   0.45668   0.66130   0.00000  Uiso   1.00
C911   C     0.41998   0.49999   0.74988   0.00000  Uiso   1.00
C912   C     0.58002   0.50001   0.75012   0.00000  Uiso   1.00
C913   C     0.42442   0.50956   0.52309   0.00000  Uiso   1.00
C914   C     0.57558   0.49044   0.97691   0.00000  Uiso   1.00
C915   C     0.35470   0.46066   0.76242   0.00000  Uiso   1.00
C916   C     0.64530   0.53934   0.73758   0.00000  Uiso   1.00
C917   C     0.64534   0.46069   0.76259   0.00000  Uiso   1.00
C918   C     0.35466   0.53931   0.73741   0.00000  Uiso   1.00
C919   C     0.62416   0.50004   0.75019   0.00000  Uiso   1.00
C920   C     0.37584   0.49996   0.74981   0.00000  Uiso   1.00
C921   C     0.52719   0.35729   0.77630   0.00000  Uiso   1.00
C922   C     0.47281   0.64271   0.72370   0.00000  Uiso   1.00
C923   C     0.47281   0.35733   0.72370   0.00000  Uiso   1.00
C924   C     0.52719   0.64267   0.77630   0.00000  Uiso   1.00
C925   C     0.50013   0.50001   0.66370   0.00000  Uiso   1.00
C926   C     0.49987   0.49999   0.83630   0.00000  Uiso   1.00
C927   C     0.53818   0.49610   0.90635   0.00000  Uiso   1.00
C928   C     0.46182   0.50390   0.59365   0.00000  Uiso   1.00
C929   C     0.49992   0.49991   0.88393   0.00000  Uiso   1.00
C930   C     0.50008   0.50009   0.61607   0.00000  Uiso   1.00
C931   C     0.46172   0.50359   0.90642   0.00000  Uiso   1.00
C932   C     0.53828   0.49641   0.59358   0.00000  Uiso   1.00
C933   C     0.46172   0.50407   0.95314   0.00000  Uiso   1.00
C934   C     0.53828   0.49593   0.54686   0.00000  Uiso   1.00
C935   C     0.49999   0.49997   0.97651   0.00000  Uiso   1.00
C936   C     0.50001   0.50003   0.52349   0.00000  Uiso   1.00
C937   C     0.53824   0.49579   0.95308   0.00000  Uiso   1.00
C938   C     0.46176   0.50421   0.54692   0.00000  Uiso   1.00
C939   C     0.42439   0.50948   0.97701   0.00000  Uiso   1.00
C940   C     0.57561   0.49052   0.52299   0.00000  Uiso   1.00
H941   H     0.39471   0.51409   0.96045   0.00000  Uiso   1.00
H942   H     0.60529   0.48590   0.53955   0.00000  Uiso   1.00
H943   H     0.39477   0.51429   0.53967   0.00000  Uiso   1.00
H944   H     0.60523   0.48571   0.96033   0.00000  Uiso   1.00
H945   H     0.37106   0.43021   0.77249   0.00000  Uiso   1.00
H946   H     0.62894   0.56979   0.72751   0.00000  Uiso   1.00
H947   H     0.62901   0.43025   0.77269   0.00000  Uiso   1.00
H948   H     0.37099   0.56975   0.72731   0.00000  Uiso   1.00
H949   H     0.54893   0.37544   0.79734   0.00000  Uiso   1.00
H950   H     0.45107   0.62456   0.70266   0.00000  Uiso   1.00
H951   H     0.45108   0.37550   0.70266   0.00000  Uiso   1.00
H952   H     0.54892   0.62450   0.79734   0.00000  Uiso   1.00
N953   N     0.50000   0.61907   0.75000   0.00000  Uiso   1.00
N954   N     0.50000   0.38093   0.75000   0.00000  Uiso   1.00
O955   O     0.43892   0.53821   0.74999   0.00000  Uiso   1.00
O956   O     0.56108   0.46179   0.75000   0.00000  Uiso   1.00
O957   O     0.56108   0.53821   0.75000   0.00000  Uiso   1.00
O958   O     0.43892   0.46179   0.74999   0.00000  Uiso   1.00
O959   O     0.49999   0.53823   0.68392   0.00000  Uiso   1.00
O960   O     0.50001   0.46177   0.81607   0.00000  Uiso   1.00
O961   O     0.50001   0.53823   0.81607   0.00000  Uiso   1.00
O962   O     0.49999   0.46177   0.68392   0.00000  Uiso   1.00
Zn963  Zn    0.50000   0.55104   0.75000   0.00000  Uiso   1.00
Zn964  Zn    0.50000   0.44896   0.75000   0.00000  Uiso   1.00
C965   C     0.57780   0.49293   0.88057   0.00000  Uiso   1.00
O966   O     0.58389   0.46068   0.85585   0.00000  Uiso   1.00
O967   O     0.60788   0.52692   0.88469   0.00000  Uiso   1.00
H968   H     0.63332   0.52106   0.86542   0.00000  Uiso   1.00
C969   C     0.42220   0.50707   0.61943   0.00000  Uiso   1.00
O970   O     0.41611   0.53933   0.64415   0.00000  Uiso   1.00
O971   O     0.39212   0.47309   0.61531   0.00000  Uiso   1.00
H972   H     0.36668   0.47894   0.63458   0.00000  Uiso   1.00
C973   C     0.42212   0.50677   0.88066   0.00000  Uiso   1.00
O974   O     0.39637   0.47634   0.88308   0.00000  Uiso   1.00
O975   O     0.41454   0.54462   0.85386   0.00000  Uiso   1.00
H976   H     0.38630   0.54332   0.83870   0.00000  Uiso   1.00
C977   C     0.57788   0.49323   0.61934   0.00000  Uiso   1.00
O978   O     0.60363   0.52366   0.61692   0.00000  Uiso   1.00
O979   O     0.58546   0.45538   0.64614   0.00000  Uiso   1.00
H980   H     0.61370   0.45668   0.66130   0.00000  Uiso   1.00
C981   C     0.75331   0.49999   0.74988   0.00000  Uiso   1.00
C982   C     0.91335   0.50001   0.75012   0.00000  Uiso   1.00
C983   C     0.75775   0.50956   0.52309   0.00000  Uiso   1.00
C984   C     0.90891   0.49044   0.97691   0.00000  Uiso   1.00
C985   C     0.68804   0.46066   0.76242   0.00000  Uiso   1.00
C986   C     0.97863   0.53934   0.73758   0.00000  Uiso   1.00
C987   C     0.97867   0.46069   0.76259   0.00000  Uiso   1.00
C988   C     0.68799   0.53931   0.73741   0.00000  Uiso   1.00
C989   C     0.95750   0.50004   0.75019   0.00000  Uiso   1.00
C990   C     0.70917   0.49996   0.74981   0.00000  Uiso   1.00
C991   C     0.86052   0.35729   0.77630   0.00000  Uiso   1.00
C992   C     0.80615   0.64271   0.72370   0.00000  Uiso   1.00
C993   C     0.80615   0.35733   0.72370   0.00000  Uiso   1.00
C994   C     0.86052   0.64267   0.77630   0.00000  Uiso   1.00
C995   C     0.83346   0.50001   0.66370   0.00000  Uiso   1.00
C996   C     0.83320   0.49999   0.83630   0.00000  Uiso   1.00
C997   C     0.87151   0.49610   0.90635   0.00000  Uiso   1.00
C998   C     0.79516   0.50390   0.59365   0.00000  Uiso   1.00
C999   C     0.83325   0.49991   0.88393   0.00000  Uiso   1.00
C1000  C     0.83341   0.50009   0.61607   0.00000  Uiso   1.00
C1001  C     0.79505   0.50359   0.90642   0.00000  Uiso   1.00
C1002  C     0.87161   0.49641   0.59358   0.00000  Uiso   1.00
C1003  C     0.79505   0.50407   0.95314   0.00000  Uiso   1.00
C1004  C     0.87162   0.49593   0.54686   0.00000  Uiso   1.00
C1005  C     0.83332   0.49997   0.97651   0.00000  Uiso   1.00
C1006  C     0.83334   0.50003   0.52349   0.00000  Uiso   1.00
C1007  C     0.87157   0.49579   0.95308   0.00000  Uiso   1.00
C1008  C     0.79510   0.50421   0.54692   0.00000  Uiso   1.00
C1009  C     0.75773   0.50948   0.97701   0.00000  Uiso   1.00
C1010  C     0.90894   0.49052   0.52299   0.00000  Uiso   1.00
H1011  H     0.72804   0.51409   0.96045   0.00000  Uiso   1.00
H1012  H     0.93862   0.48590   0.53955   0.00000  Uiso   1.00
H1013  H     0.72810   0.51429   0.53967   0.00000  Uiso   1.00
H1014  H     0.93856   0.48571   0.96033   0.00000  Uiso   1.00
H1015  H     0.70439   0.43021   0.77249   0.00000  Uiso   1.00
H1016  H     0.96227   0.56979   0.72751   0.00000  Uiso   1.00
H1017  H     0.96234   0.43025   0.77269   0.00000  Uiso   1.00
H1018  H     0.70432   0.56975   0.72731   0.00000  Uiso   1.00
H1019  H     0.88226   0.37544   0.79734   0.00000  Uiso   1.00
H1020  H     0.78441   0.62456   0.70266   0.00000  Uiso   1.00
H1021  H     0.78441   0.37550   0.70266   0.00000  Uiso   1.00
H1022  H     0.88225   0.62450   0.79734   0.00000  Uiso   1.00
N1023  N     0.83333   0.61907   0.75000   0.00000  Uiso   1.00
N1024  N     0.83333   0.38093   0.75000   0.00000  Uiso   1.00
O1025  O     0.77226   0.53821   0.74999   0.00000  Uiso   1.00
O1026  O     0.89441   0.46179   0.75000   0.00000  Uiso   1.00
O1027  O     0.89441   0.53821   0.75000   0.00000  Uiso   1.00
O1028  O     0.77226   0.46179   0.74999   0.00000  Uiso   1.00
O1029  O     0.83333   0.53823   0.68392   0.00000  Uiso   1.00
O1030  O     0.83334   0.46177   0.81607   0.00000  Uiso   1.00
O1031  O     0.83334   0.53823   0.81607   0.00000  Uiso   1.00
O1032  O     0.83333   0.46177   0.68392   0.00000  Uiso   1.00
Zn1033 Zn    0.83333   0.55104   0.75000   0.00000  Uiso   1.00
Zn1034 Zn    0.83333   0.44896   0.75000   0.00000  Uiso   1.00
C1035  C     0.91114   0.49293   0.88057   0.00000  Uiso   1.00
O1036  O     0.91723   0.46068   0.85585   0.00000  Uiso   1.00
O1037  O     0.94122   0.52692   0.88469   0.00000  Uiso   1.00
H1038  H     0.96666   0.52106   0.86542   0.00000  Uiso   1.00
C1039  C     0.75553   0.50707   0.61943   0.00000  Uiso   1.00
O1040  O     0.74944   0.53933   0.64415   0.00000  Uiso   1.00
O1041  O     0.72545   0.47309   0.61531   0.00000  Uiso   1.00
H1042  H     0.70001   0.47894   0.63458   0.00000  Uiso   1.00
C1043  C     0.75546   0.50677   0.88066   0.00000  Uiso   1.00
O1044  O     0.72970   0.47634   0.88308   0.00000  Uiso   1.00
O1045  O     0.74787   0.54462   0.85386   0.00000  Uiso   1.00
H1046  H     0.71963   0.54332   0.83870   0.00000  Uiso   1.00
C1047  C     0.91121   0.49323   0.61934   0.00000  Uiso   1.00
O1048  O     0.93697   0.52366   0.61692   0.00000  Uiso   1.00
O1049  O     0.91880   0.45538   0.64614   0.00000  Uiso   1.00
H1050  H     0.94704   0.45668   0.66130   0.00000  Uiso   1.00
C1051  C     0.08665   0.83332   0.74988   0.00000  Uiso   1.00
C1052  C     0.24669   0.83334   0.75012   0.00000  Uiso   1.00
C1053  C     0.09109   0.84290   0.52309   0.00000  Uiso   1.00
C1054  C     0.24225   0.82377   0.97691   0.00000  Uiso   1.00
C1055  C     0.02137   0.79399   0.76242   0.00000  Uiso   1.00
C1056  C     0.31196   0.87268   0.73758   0.00000  Uiso   1.00
C1057  C     0.31201   0.79403   0.76259   0.00000  Uiso   1.00
C1058  C     0.02133   0.87264   0.73741   0.00000  Uiso   1.00
C1059  C     0.29083   0.83337   0.75019   0.00000  Uiso   1.00
C1060  C     0.04250   0.83329   0.74981   0.00000  Uiso   1.00
C1061  C     0.19385   0.69063   0.77630   0.00000  Uiso   1.00
C1062  C     0.13948   0.97604   0.72370   0.00000  Uiso   1.00
C1063  C     0.13948   0.69066   0.72370   0.00000  Uiso   1.00
C1064  C     0.19385   0.97601   0.77630   0.00000  Uiso   1.00
C1065  C     0.16680   0.83335   0.66370   0.00000  Uiso   1.00
C1066  C     0.16654   0.83332   0.83630   0.00000  Uiso   1.00
C1067  C     0.20484   0.82943   0.90635   0.00000  Uiso   1.00
C1068  C     0.12849   0.83723   0.59365   0.00000  Uiso   1.00
C1069  C     0.16659   0.83325   0.88393   0.00000  Uiso   1.00
C1070  C     0.16675   0.83342   0.61607   0.00000  Uiso   1.00
C1071  C     0.12839   0.83692   0.90642   0.00000  Uiso   1.00
C1072  C     0.20495   0.82975   0.59358   0.00000  Uiso   1.00
C1073  C     0.12838   0.83740   0.95314   0.00000  Uiso   1.00
C1074  C     0.20495   0.82926   0.54686   0.00000  Uiso   1.00
C1075  C     0.16666   0.83330   0.97651   0.00000  Uiso   1.00
C1076  C     0.16668   0.83336   0.52349   0.00000  Uiso   1.00
C1077  C     0.20490   0.82912   0.95308   0.00000  Uiso   1.00
C1078  C     0.12843   0.83754   0.54692   0.00000  Uiso   1.00
C1079  C     0.09106   0.84281   0.97701   0.00000  Uiso   1.00
C1080  C     0.24227   0.82386   0.52299   0.00000  Uiso   1.00
H1081  H     0.06137   0.84743   0.96045   0.00000  Uiso   1.00
H1082  H     0.27196   0.81924   0.53955   0.00000  Uiso   1.00
H1083  H     0.06144   0.84762   0.53967   0.00000  Uiso   1.00
H1084  H     0.27190   0.81904   0.96033   0.00000  Uiso   1.00
H1085  H     0.03773   0.76355   0.77249   0.00000  Uiso   1.00
H1086  H     0.29561   0.90312   0.72751   0.00000  Uiso   1.00
H1087  H     0.29568   0.76358   0.77269   0.00000  Uiso   1.00
H1088  H     0.03765   0.90309   0.72731   0.00000  Uiso   1.00
H1089  H     0.21559   0.70878   0.79734   0.00000  Uiso   1.00
H1090  H     0.11774   0.95789   0.70266   0.00000  Uiso   1.00
H1091  H     0.11775   0.70884   0.70266   0.00000  Uiso   1.00
H1092  H     0.21559   0.95783   0.79734   0.00000  Uiso   1.00
N1093  N     0.16667   0.95240   0.75000   0.00000  Uiso   1.00
N1094  N     0.16667   0.71427   0.75000   0.00000  Uiso   1.00
O1095  O     0.10559   0.87154   0.74999   0.00000  Uiso   1.00
O1096  O     0.22774   0.79513   0.75000   0.00000  Uiso   1.00
O1097  O     0.22774   0.87154   0.75000   0.00000  Uiso   1.00
O1098  O     0.10559   0.79513   0.74999   0.00000  Uiso   1.00
O1099  O     0.16666   0.87156   0.68392   0.00000  Uiso   1.00
O1100  O     0.16667   0.79511   0.81607   0.00000  Uiso   1.00
O1101  O     0.16667   0.87156   0.81607   0.00000  Uiso   1.00
O1102  O     0.16666   0.79511   0.68392   0.00000  Uiso   1.00
Zn1103 Zn    0.16667   0.88437   0.75000   0.00000  Uiso   1.00
Zn1104 Zn    0.16667   0.78229   0.75000   0.00000  Uiso   1.00
C1105  C     0.24447   0.82626   0.88057   0.00000  Uiso   1.00
O1106  O     0.25056   0.79401   0.85585   0.00000  Uiso   1.00
O1107  O     0.27455   0.86025   0.88469   0.00000  Uiso   1.00
H1108  H     0.29999   0.85439   0.86542   0.00000  Uiso   1.00
C1109  C     0.08886   0.84041   0.61943   0.00000  Uiso   1.00
O1110  O     0.08277   0.87266   0.64415   0.00000  Uiso   1.00
O1111  O     0.05878   0.80642   0.61531   0.00000  Uiso   1.00
H1112  H     0.03334   0.81228   0.63458   0.00000  Uiso   1.00
C1113  C     0.08879   0.84010   0.88066   0.00000  Uiso   1.00
O1114  O     0.06303   0.80967   0.88308   0.00000  Uiso   1.00
O1115  O     0.08120   0.87795   0.85386   0.00000  Uiso   1.00
H1116  H     0.05296   0.87665   0.83870   0.00000  Uiso   1.00
C1117  C     0.24454   0.82656   0.61934   0.00000  Uiso   1.00
O1118  O     0.27030   0.85699   0.61692   0.00000  Uiso   1.00
O1119  O     0.25213   0.78871   0.64614   0.00000  Uiso   1.00
H1120  H     0.28037   0.79001   0.66130   0.00000  Uiso   1.00
C1121  C     0.41998   0.83332   0.74988   0.00000  Uiso   1.00
C1122  C     0.58002   0.83334   0.75012   0.00000  Uiso   1.00
C1123  C     0.42442   0.84290   0.52309   0.00000  Uiso   1.00
C1124  C     0.57558   0.82377   0.97691   0.00000  Uiso   1.00
C1125  C     0.35470   0.79399   0.76242   0.00000  Uiso   1.00
C1126  C     0.64530   0.87268   0.73758   0.00000  Uiso   1.00
C1127  C     0.64534   0.79403   0.76259   0.00000  Uiso   1.00
C1128  C     0.35466   0.87264   0.73741   0.00000  Uiso   1.00
C1129  C     0.62416   0.83337   0.75019   0.00000  Uiso   1.00
C1130  C     0.37584   0.83329   0.74981   0.00000  Uiso   1.00
C1131  C     0.52719   0.69063   0.77630   0.00000  Uiso   1.00
C1132  C     0.47281   0.97604   0.72370   0.00000  Uiso   1.00
C1133  C     0.47281   0.69066   0.72370   0.00000  Uiso   1.00
C1134  C     0.52719   0.97601   0.77630   0.00000  Uiso   1.00
C1135  C     0.50013   0.83335   0.66370   0.00000  Uiso   1.00
C1136  C     0.49987   0.83332   0.83630   0.00000  Uiso   1.00
C1137  C     0.53818   0.82943   0.90635   0.00000  Uiso   1.00
C1138  C     0.46182   0.83723   0.59365   0.00000  Uiso   1.00
C1139  C     0.49992   0.83325   0.88393   0.00000  Uiso   1.00
C1140  C     0.50008   0.83342   0.61607   0.00000  Uiso   1.00
C1141  C     0.46172   0.83692   0.90642   0.00000  Uiso   1.00
C1142  C     0.53828   0.82975   0.59358   0.00000  Uiso   1.00
C1143  C     0.46172   0.83740   0.95314   0.00000  Uiso   1.00
C1144  C     0.53828   0.82926   0.54686   0.00000  Uiso   1.00
C1145  C     0.49999   0.83330   0.97651   0.00000  Uiso   1.00
C1146  C     0.50001   0.83336   0.52349   0.00000  Uiso   1.00
C1147  C     0.53824   0.82912   0.95308   0.00000  Uiso   1.00
C1148  C     0.46176   0.83754   0.54692   0.00000  Uiso   1.00
C1149  C     0.42439   0.84281   0.97701   0.00000  Uiso   1.00
C1150  C     0.57561   0.82386   0.52299   0.00000  Uiso   1.00
H1151  H     0.39471   0.84743   0.96045   0.00000  Uiso   1.00
H1152  H     0.60529   0.81924   0.53955   0.00000  Uiso   1.00
H1153  H     0.39477   0.84762   0.53967   0.00000  Uiso   1.00
H1154  H     0.60523   0.81904   0.96033   0.00000  Uiso   1.00
H1155  H     0.37106   0.76355   0.77249   0.00000  Uiso   1.00
H1156  H     0.62894   0.90312   0.72751   0.00000  Uiso   1.00
H1157  H     0.62901   0.76358   0.77269   0.00000  Uiso   1.00
H1158  H     0.37099   0.90309   0.72731   0.00000  Uiso   1.00
H1159  H     0.54893   0.70878   0.79734   0.00000  Uiso   1.00
H1160  H     0.45107   0.95789   0.70266   0.00000  Uiso   1.00
H1161  H     0.45108   0.70884   0.70266   0.00000  Uiso   1.00
H1162  H     0.54892   0.95783   0.79734   0.00000  Uiso   1.00
N1163  N     0.50000   0.95240   0.75000   0.00000  Uiso   1.00
N1164  N     0.50000   0.71427   0.75000   0.00000  Uiso   1.00
O1165  O     0.43892   0.87154   0.74999   0.00000  Uiso   1.00
O1166  O     0.56108   0.79513   0.75000   0.00000  Uiso   1.00
O1167  O     0.56108   0.87154   0.75000   0.00000  Uiso   1.00
O1168  O     0.43892   0.79513   0.74999   0.00000  Uiso   1.00
O1169  O     0.49999   0.87156   0.68392   0.00000  Uiso   1.00
O1170  O     0.50001   0.79511   0.81607   0.00000  Uiso   1.00
O1171  O     0.50001   0.87156   0.81607   0.00000  Uiso   1.00
O1172  O     0.49999   0.79511   0.68392   0.00000  Uiso   1.00
Zn1173 Zn    0.50000   0.88437   0.75000   0.00000  Uiso   1.00
Zn1174 Zn    0.50000   0.78229   0.75000   0.00000  Uiso   1.00
C1175  C     0.57780   0.82626   0.88057   0.00000  Uiso   1.00
O1176  O     0.58389   0.79401   0.85585   0.00000  Uiso   1.00
O1177  O     0.60788   0.86025   0.88469   0.00000  Uiso   1.00
H1178  H     0.63332   0.85439   0.86542   0.00000  Uiso   1.00
C1179  C     0.42220   0.84041   0.61943   0.00000  Uiso   1.00
O1180  O     0.41611   0.87266   0.64415   0.00000  Uiso   1.00
O1181  O     0.39212   0.80642   0.61531   0.00000  Uiso   1.00
H1182  H     0.36668   0.81228   0.63458   0.00000  Uiso   1.00
C1183  C     0.42212   0.84010   0.88066   0.00000  Uiso   1.00
O1184  O     0.39637   0.80967   0.88308   0.00000  Uiso   1.00
O1185  O     0.41454   0.87795   0.85386   0.00000  Uiso   1.00
H1186  H     0.38630   0.87665   0.83870   0.00000  Uiso   1.00
C1187  C     0.57788   0.82656   0.61934   0.00000  Uiso   1.00
O1188  O     0.60363   0.85699   0.61692   0.00000  Uiso   1.00
O1189  O     0.58546   0.78871   0.64614   0.00000  Uiso   1.00
H1190  H     0.61370   0.79001   0.66130   0.00000  Uiso   1.00
C1191  C     0.75331   0.83332   0.74988   0.00000  Uiso   1.00
C1192  C     0.91335   0.83334   0.75012   0.00000  Uiso   1.00
C1193  C     0.75775   0.84290   0.52309   0.00000  Uiso   1.00
C1194  C     0.90891   0.82377   0.97691   0.00000  Uiso   1.00
C1195  C     0.68804   0.79399   0.76242   0.00000  Uiso   1.00
C1196  C     0.97863   0.87268   0.73758   0.00000  Uiso   1.00
C1197  C     0.97867   0.79403   0.76259   0.00000  Uiso   1.00
C1198  C     0.68799   0.87264   0.73741   0.00000  Uiso   1.00
C1199  C     0.95750   0.83337   0.75019   0.00000  Uiso   1.00
C1200  C     0.70917   0.83329   0.74981   0.00000  Uiso   1.00
C1201  C     0.86052   0.69063   0.77630   0.00000  Uiso   1.00
C1202  C     0.80615   0.97604   0.72370   0.00000  Uiso   1.00
C1203  C     0.80615   0.69066   0.72370   0.00000  Uiso   1.00
C1204  C     0.86052   0.97601   0.77630   0.00000  Uiso   1.00
C1205  C     0.83346   0.83335   0.66370   0.00000  Uiso   1.00
C1206  C     0.83320   0.83332   0.83630   0.00000  Uiso   1.00
C1207  C     0.87151   0.82943   0.90635   0.00000  Uiso   1.00
C1208  C     0.79516   0.83723   0.59365   0.00000  Uiso   1.00
C1209  C     0.83325   0.83325   0.88393   0.00000  Uiso   1.00
C1210  C     0.83341   0.83342   0.61607   0.00000  Uiso   1.00
C1211  C     0.79505   0.83692   0.90642   0.00000  Uiso   1.00
C1212  C     0.87161   0.82975   0.59358   0.00000  Uiso   1.00
C1213  C     0.79505   0.83740   0.95314   0.00000  Uiso   1.00
C1214  C     0.87162   0.82926   0.54686   0.00000  Uiso   1.00
C1215  C     0.83332   0.83330   0.97651   0.00000  Uiso   1.00
C1216  C     0.83334   0.83336   0.52349   0.00000  Uiso   1.00
C1217  C     0.87157   0.82912   0.95308   0.00000  Uiso   1.00
C1218  C     0.79510   0.83754   0.54692   0.00000  Uiso   1.00
C1219  C     0.75773   0.84281   0.97701   0.00000  Uiso   1.00
C1220  C     0.90894   0.82386   0.52299   0.00000  Uiso   1.00
H1221  H     0.72804   0.84743   0.96045   0.00000  Uiso   1.00
H1222  H     0.93862   0.81924   0.53955   0.00000  Uiso   1.00
H1223  H     0.72810   0.84762   0.53967   0.00000  Uiso   1.00
H1224  H     0.93856   0.81904   0.96033   0.00000  Uiso   1.00
H1225  H     0.70439   0.76355   0.77249   0.00000  Uiso   1.00
H1226  H     0.96227   0.90312   0.72751   0.00000  Uiso   1.00
H1227  H     0.96234   0.76358   0.77269   0.00000  Uiso   1.00
H1228  H     0.70432   0.90309   0.72731   0.00000  Uiso   1.00
H1229  H     0.88226   0.70878   0.79734   0.00000  Uiso   1.00
H1230  H     0.78441   0.95789   0.70266   0.00000  Uiso   1.00
H1231  H     0.78441   0.70884   0.70266   0.00000  Uiso   1.00
H1232  H     0.88225   0.95783   0.79734   0.00000  Uiso   1.00
N1233  N     0.83333   0.95240   0.75000   0.00000  Uiso   1.00
N1234  N     0.83333   0.71427   0.75000   0.00000  Uiso   1.00
O1235  O     0.77226   0.87154   0.74999   0.00000  Uiso   1.00
O1236  O     0.89441   0.79513   0.75000   0.00000  Uiso   1.00
O1237  O     0.89441   0.87154   0.75000   0.00000  Uiso   1.00
O1238  O     0.77226   0.79513   0.74999   0.00000  Uiso   1.00
O1239  O     0.83333   0.87156   0.68392   0.00000  Uiso   1.00
O1240  O     0.83334   0.79511   0.81607   0.00000  Uiso   1.00
O1241  O     0.83334   0.87156   0.81607   0.00000  Uiso   1.00
O1242  O     0.83333   0.79511   0.68392   0.00000  Uiso   1.00
Zn1243 Zn    0.83333   0.88437   0.75000   0.00000  Uiso   1.00
Zn1244 Zn    0.83333   0.78229   0.75000   0.00000  Uiso   1.00
C1245  C     0.91114   0.82626   0.88057   0.00000  Uiso   1.00
O1246  O     0.91723   0.79401   0.85585   0.00000  Uiso   1.00
O1247  O     0.94122   0.86025   0.88469   0.00000  Uiso   1.00
H1248  H     0.96666   0.85439   0.86542   0.00000  Uiso   1.00
C1249  C     0.75553   0.84041   0.61943   0.00000  Uiso   1.00
O1250  O     0.74944   0.87266   0.64415   0.00000  Uiso   1.00
O1251  O     0.72545   0.80642   0.61531   0.00000  Uiso   1.00
H1252  H     0.70001   0.81228   0.63458   0.00000  Uiso   1.00
C1253  C     0.75546   0.84010   0.88066   0.00000  Uiso   1.00
O1254  O     0.72970   0.80967   0.88308   0.00000  Uiso   1.00
O1255  O     0.74787   0.87795   0.85386   0.00000  Uiso   1.00
H1256  H     0.71963   0.87665   0.83870   0.00000  Uiso   1.00
C1257  C     0.91121   0.82656   0.61934   0.00000  Uiso   1.00
O1258  O     0.93697   0.85699   0.61692   0.00000  Uiso   1.00
O1259  O     0.91880   0.78871   0.64614   0.00000  Uiso   1.00
H1260  H     0.94704   0.79001   0.66130   0.00000  Uiso   1.00
loop_
_geom_bond_atom_site_label_1
_geom_bond_atom_site_label_2
_geom_bond_distance
_geom_bond_site_symmetry_2
_ccdc_geom_bond_type
C1     O48     1.281   .     A
C1     O45     1.282   .     A
C1     C10     1.415   .     S
C2     O47     1.281   .     A
C2     O46     1.282   .     A
C2     C9      1.415   .     S
C3     C28     1.403   .     A
C3     H33     1.082   .     S
C3     C659    1.380   1_554 S
C4     H34     1.082   .     S
C4     C27     1.403   .     A
C4     C660    1.380   .     S
C5     C10     1.396   .     A
C5     H35     1.084   .     S
C5     C147    1.369   1_455 S
C6     C9      1.396   .     A
C6     H36     1.084   .     S
C6     C78     1.369   .     S
C7     C9      1.396   .     A
C7     H37     1.084   .     S
C7     C75     1.369   .     S
C8     H38     1.084   .     S
C8     C10     1.396   .     A
C8     C146    1.369   1_455 S
C11    N44     1.366   .     A
C11    H39     1.082   .     S
C11    C434    1.417   1_545 S
C12    H40     1.082   .     S
C12    N43     1.366   .     A
C12    C223    1.417   .     S
C13    H41     1.082   .     S
C13    N44     1.366   .     A
C13    C432    1.417   1_545 S
C14    H42     1.082   .     S
C14    N43     1.366   .     A
C14    C221    1.417   .     S
C15    O52     1.282   .     A
C15    O49     1.281   .     A
C15    C20     1.426   .     S
C16    O51     1.282   .     A
C16    C19     1.426   .     S
C16    O50     1.281   .     A
C17    C55     1.490   .     S
C17    C19     1.403   .     A
C17    C27     1.399   .     A
C18    C59     1.490   .     S
C18    C28     1.399   .     A
C18    C20     1.403   .     A
C19    C21     1.402   .     A
C20    C22     1.402   .     A
C21    C23     1.399   .     A
C21    C63     1.489   .     S
C22    C24     1.399   .     A
C22    C67     1.489   .     S
C23    C29     1.403   .     A
C23    C25     1.418   .     A
C24    C26     1.418   .     A
C24    C30     1.403   .     A
C25    C27     1.418   .     A
C25    C656    1.407   .     S
C26    C28     1.418   .     A
C26    C655    1.407   1_554 S
C29    H31     1.082   .     S
C29    C633    1.380   .     S
C30    H32     1.082   .     S
C30    C634    1.380   1_554 S
N43    Zn53    2.010   .     S
N44    Zn54    2.010   .     S
O45    Zn53    1.995   .     S
O46    Zn54    1.995   .     S
O47    Zn53    1.995   .     S
O48    Zn54    1.995   .     S
O49    Zn53    2.015   .     S
O50    Zn54    2.015   .     S
O51    Zn53    2.014   .     S
O52    Zn54    2.014   .     S
C55    O56     1.223   .     D
C55    O57     1.398   .     S
O57    H58     1.014   .     S
C59    O60     1.223   .     D
C59    O61     1.398   .     S
O61    H62     1.014   .     S
C63    O65     1.397   .     S
C63    O64     1.223   .     D
O65    H66     1.014   .     S
C67    O68     1.223   .     D
C67    O69     1.397   .     S
O69    H70     1.014   .     S
C71    O118    1.281   .     A
C71    O115    1.282   .     A
C71    C80     1.415   .     S
C72    O117    1.281   .     A
C72    O116    1.282   .     A
C72    C79     1.415   .     S
C73    C98     1.403   .     A
C73    H103    1.082   .     S
C73    C729    1.380   1_554 S
C74    H104    1.082   .     S
C74    C97     1.403   .     A
C74    C730    1.380   .     S
C75    C80     1.396   .     A
C75    H105    1.084   .     S
C76    C79     1.396   .     A
C76    H106    1.084   .     S
C76    C148    1.369   .     S
C77    C79     1.396   .     A
C77    H107    1.084   .     S
C77    C145    1.369   .     S
C78    H108    1.084   .     S
C78    C80     1.396   .     A
C81    N114    1.366   .     A
C81    H109    1.082   .     S
C81    C504    1.417   1_545 S
C82    H110    1.082   .     S
C82    N113    1.366   .     A
C82    C293    1.417   .     S
C83    H111    1.082   .     S
C83    N114    1.366   .     A
C83    C502    1.417   1_545 S
C84    H112    1.082   .     S
C84    N113    1.366   .     A
C84    C291    1.417   .     S
C85    O122    1.282   .     A
C85    O119    1.281   .     A
C85    C90     1.426   .     S
C86    O121    1.282   .     A
C86    C89     1.426   .     S
C86    O120    1.281   .     A
C87    C125    1.490   .     S
C87    C89     1.403   .     A
C87    C97     1.399   .     A
C88    C129    1.490   .     S
C88    C98     1.399   .     A
C88    C90     1.403   .     A
C89    C91     1.402   .     A
C90    C92     1.402   .     A
C91    C93     1.399   .     A
C91    C133    1.489   .     S
C92    C94     1.399   .     A
C92    C137    1.489   .     S
C93    C99     1.403   .     A
C93    C95     1.418   .     A
C94    C96     1.418   .     A
C94    C100    1.403   .     A
C95    C97     1.418   .     A
C95    C726    1.407   .     S
C96    C98     1.418   .     A
C96    C725    1.407   1_554 S
C99    H101    1.082   .     S
C99    C703    1.380   .     S
C100   H102    1.082   .     S
C100   C704    1.380   1_554 S
N113   Zn123   2.010   .     S
N114   Zn124   2.010   .     S
O115   Zn123   1.995   .     S
O116   Zn124   1.995   .     S
O117   Zn123   1.995   .     S
O118   Zn124   1.995   .     S
O119   Zn123   2.015   .     S
O120   Zn124   2.015   .     S
O121   Zn123   2.014   .     S
O122   Zn124   2.014   .     S
C125   O126    1.223   .     D
C125   O127    1.398   .     S
O127   H128    1.014   .     S
C129   O130    1.223   .     D
C129   O131    1.398   .     S
O131   H132    1.014   .     S
C133   O135    1.397   .     S
C133   O134    1.223   .     D
O135   H136    1.014   .     S
C137   O138    1.223   .     D
C137   O139    1.397   .     S
O139   H140    1.014   .     S
C141   O188    1.281   .     A
C141   O185    1.282   .     A
C141   C150    1.415   .     S
C142   O187    1.281   .     A
C142   O186    1.282   .     A
C142   C149    1.415   .     S
C143   C168    1.403   .     A
C143   H173    1.082   .     S
C143   C799    1.380   1_554 S
C144   H174    1.082   .     S
C144   C167    1.403   .     A
C144   C800    1.380   .     S
C145   C150    1.396   .     A
C145   H175    1.084   .     S
C146   C149    1.396   .     A
C146   H176    1.084   .     S
C146   C8      1.369   1_655 S
C147   C149    1.396   .     A
C147   H177    1.084   .     S
C147   C5      1.369   1_655 S
C148   H178    1.084   .     S
C148   C150    1.396   .     A
C151   N184    1.366   .     A
C151   H179    1.082   .     S
C151   C574    1.417   1_545 S
C152   H180    1.082   .     S
C152   N183    1.366   .     A
C152   C363    1.417   .     S
C153   H181    1.082   .     S
C153   N184    1.366   .     A
C153   C572    1.417   1_545 S
C154   H182    1.082   .     S
C154   N183    1.366   .     A
C154   C361    1.417   .     S
C155   O192    1.282   .     A
C155   O189    1.281   .     A
C155   C160    1.426   .     S
C156   O191    1.282   .     A
C156   C159    1.426   .     S
C156   O190    1.281   .     A
C157   C195    1.490   .     S
C157   C159    1.403   .     A
C157   C167    1.399   .     A
C158   C199    1.490   .     S
C158   C168    1.399   .     A
C158   C160    1.403   .     A
C159   C161    1.402   .     A
C160   C162    1.402   .     A
C161   C163    1.399   .     A
C161   C203    1.489   .     S
C162   C164    1.399   .     A
C162   C207    1.489   .     S
C163   C169    1.403   .     A
C163   C165    1.418   .     A
C164   C166    1.418   .     A
C164   C170    1.403   .     A
C165   C167    1.418   .     A
C165   C796    1.407   .     S
C166   C168    1.418   .     A
C166   C795    1.407   1_554 S
C169   H171    1.082   .     S
C169   C773    1.380   .     S
C170   H172    1.082   .     S
C170   C774    1.380   1_554 S
N183   Zn193   2.010   .     S
N184   Zn194   2.010   .     S
O185   Zn193   1.995   .     S
O186   Zn194   1.995   .     S
O187   Zn193   1.995   .     S
O188   Zn194   1.995   .     S
O189   Zn193   2.015   .     S
O190   Zn194   2.015   .     S
O191   Zn193   2.014   .     S
O192   Zn194   2.014   .     S
C195   O196    1.223   .     D
C195   O197    1.398   .     S
O197   H198    1.014   .     S
C199   O200    1.223   .     D
C199   O201    1.398   .     S
O201   H202    1.014   .     S
C203   O205    1.397   .     S
C203   O204    1.223   .     D
O205   H206    1.014   .     S
C207   O208    1.223   .     D
C207   O209    1.397   .     S
O209   H210    1.014   .     S
C211   O258    1.281   .     A
C211   O255    1.282   .     A
C211   C220    1.415   .     S
C212   O257    1.281   .     A
C212   O256    1.282   .     A
C212   C219    1.415   .     S
C213   C238    1.403   .     A
C213   H243    1.082   .     S
C213   C869    1.380   1_554 S
C214   H244    1.082   .     S
C214   C237    1.403   .     A
C214   C870    1.380   .     S
C215   C220    1.396   .     A
C215   H245    1.084   .     S
C215   C357    1.369   1_455 S
C216   C219    1.396   .     A
C216   H246    1.084   .     S
C216   C288    1.369   .     S
C217   C219    1.396   .     A
C217   H247    1.084   .     S
C217   C285    1.369   .     S
C218   H248    1.084   .     S
C218   C220    1.396   .     A
C218   C356    1.369   1_455 S
C221   N254    1.366   .     A
C221   H249    1.082   .     S
C222   H250    1.082   .     S
C222   N253    1.366   .     A
C222   C433    1.417   .     S
C223   H251    1.082   .     S
C223   N254    1.366   .     A
C224   H252    1.082   .     S
C224   N253    1.366   .     A
C224   C431    1.417   .     S
C225   O262    1.282   .     A
C225   O259    1.281   .     A
C225   C230    1.426   .     S
C226   O261    1.282   .     A
C226   C229    1.426   .     S
C226   O260    1.281   .     A
C227   C265    1.490   .     S
C227   C229    1.403   .     A
C227   C237    1.399   .     A
C228   C269    1.490   .     S
C228   C238    1.399   .     A
C228   C230    1.403   .     A
C229   C231    1.402   .     A
C230   C232    1.402   .     A
C231   C233    1.399   .     A
C231   C273    1.489   .     S
C232   C234    1.399   .     A
C232   C277    1.489   .     S
C233   C239    1.403   .     A
C233   C235    1.418   .     A
C234   C236    1.418   .     A
C234   C240    1.403   .     A
C235   C237    1.418   .     A
C235   C866    1.407   .     S
C236   C238    1.418   .     A
C236   C865    1.407   1_554 S
C239   H241    1.082   .     S
C239   C843    1.380   .     S
C240   H242    1.082   .     S
C240   C844    1.380   1_554 S
N253   Zn263   2.010   .     S
N254   Zn264   2.010   .     S
O255   Zn263   1.995   .     S
O256   Zn264   1.995   .     S
O257   Zn263   1.995   .     S
O258   Zn264   1.995   .     S
O259   Zn263   2.015   .     S
O260   Zn264   2.015   .     S
O261   Zn263   2.014   .     S
O262   Zn264   2.014   .     S
C265   O266    1.223   .     D
C265   O267    1.398   .     S
O267   H268    1.014   .     S
C269   O270    1.223   .     D
C269   O271    1.398   .     S
O271   H272    1.014   .     S
C273   O275    1.397   .     S
C273   O274    1.223   .     D
O275   H276    1.014   .     S
C277   O278    1.223   .     D
C277   O279    1.397   .     S
O279   H280    1.014   .     S
C281   O328    1.281   .     A
C281   O325    1.282   .     A
C281   C290    1.415   .     S
C282   O327    1.281   .     A
C282   O326    1.282   .     A
C282   C289    1.415   .     S
C283   C308    1.403   .     A
C283   H313    1.082   .     S
C283   C939    1.380   1_554 S
C284   H314    1.082   .     S
C284   C307    1.403   .     A
C284   C940    1.380   .     S
C285   C290    1.396   .     A
C285   H315    1.084   .     S
C286   C289    1.396   .     A
C286   H316    1.084   .     S
C286   C358    1.369   .     S
C287   C289    1.396   .     A
C287   H317    1.084   .     S
C287   C355    1.369   .     S
C288   H318    1.084   .     S
C288   C290    1.396   .     A
C291   N324    1.366   .     A
C291   H319    1.082   .     S
C292   H320    1.082   .     S
C292   N323    1.366   .     A
C292   C503    1.417   .     S
C293   H321    1.082   .     S
C293   N324    1.366   .     A
C294   H322    1.082   .     S
C294   N323    1.366   .     A
C294   C501    1.417   .     S
C295   O332    1.282   .     A
C295   O329    1.281   .     A
C295   C300    1.426   .     S
C296   O331    1.282   .     A
C296   C299    1.426   .     S
C296   O330    1.281   .     A
C297   C335    1.490   .     S
C297   C299    1.403   .     A
C297   C307    1.399   .     A
C298   C339    1.490   .     S
C298   C308    1.399   .     A
C298   C300    1.403   .     A
C299   C301    1.402   .     A
C300   C302    1.402   .     A
C301   C303    1.399   .     A
C301   C343    1.489   .     S
C302   C304    1.399   .     A
C302   C347    1.489   .     S
C303   C309    1.403   .     A
C303   C305    1.418   .     A
C304   C306    1.418   .     A
C304   C310    1.403   .     A
C305   C307    1.418   .     A
C305   C936    1.407   .     S
C306   C308    1.418   .     A
C306   C935    1.407   1_554 S
C309   H311    1.082   .     S
C309   C913    1.380   .     S
C310   H312    1.082   .     S
C310   C914    1.380   1_554 S
N323   Zn333   2.010   .     S
N324   Zn334   2.010   .     S
O325   Zn333   1.995   .     S
O326   Zn334   1.995   .     S
O327   Zn333   1.995   .     S
O328   Zn334   1.995   .     S
O329   Zn333   2.015   .     S
O330   Zn334   2.015   .     S
O331   Zn333   2.014   .     S
O332   Zn334   2.014   .     S
C335   O336    1.223   .     D
C335   O337    1.398   .     S
O337   H338    1.014   .     S
C339   O340    1.223   .     D
C339   O341    1.398   .     S
O341   H342    1.014   .     S
C343   O345    1.397   .     S
C343   O344    1.223   .     D
O345   H346    1.014   .     S
C347   O348    1.223   .     D
C347   O349    1.397   .     S
O349   H350    1.014   .     S
C351   O398    1.281   .     A
C351   O395    1.282   .     A
C351   C360    1.415   .     S
C352   O397    1.281   .     A
C352   O396    1.282   .     A
C352   C359    1.415   .     S
C353   C378    1.403   .     A
C353   H383    1.082   .     S
C353   C1009   1.380   1_554 S
C354   H384    1.082   .     S
C354   C377    1.403   .     A
C354   C1010   1.380   .     S
C355   C360    1.396   .     A
C355   H385    1.084   .     S
C356   C359    1.396   .     A
C356   H386    1.084   .     S
C356   C218    1.369   1_655 S
C357   C359    1.396   .     A
C357   H387    1.084   .     S
C357   C215    1.369   1_655 S
C358   H388    1.084   .     S
C358   C360    1.396   .     A
C361   N394    1.366   .     A
C361   H389    1.082   .     S
C362   H390    1.082   .     S
C362   N393    1.366   .     A
C362   C573    1.417   .     S
C363   H391    1.082   .     S
C363   N394    1.366   .     A
C364   H392    1.082   .     S
C364   N393    1.366   .     A
C364   C571    1.417   .     S
C365   O402    1.282   .     A
C365   O399    1.281   .     A
C365   C370    1.426   .     S
C366   O401    1.282   .     A
C366   C369    1.426   .     S
C366   O400    1.281   .     A
C367   C405    1.490   .     S
C367   C369    1.403   .     A
C367   C377    1.399   .     A
C368   C409    1.490   .     S
C368   C378    1.399   .     A
C368   C370    1.403   .     A
C369   C371    1.402   .     A
C370   C372    1.402   .     A
C371   C373    1.399   .     A
C371   C413    1.489   .     S
C372   C374    1.399   .     A
C372   C417    1.489   .     S
C373   C379    1.403   .     A
C373   C375    1.418   .     A
C374   C376    1.418   .     A
C374   C380    1.403   .     A
C375   C377    1.418   .     A
C375   C1006   1.407   .     S
C376   C378    1.418   .     A
C376   C1005   1.407   1_554 S
C379   H381    1.082   .     S
C379   C983    1.380   .     S
C380   H382    1.082   .     S
C380   C984    1.380   1_554 S
N393   Zn403   2.010   .     S
N394   Zn404   2.010   .     S
O395   Zn403   1.995   .     S
O396   Zn404   1.995   .     S
O397   Zn403   1.995   .     S
O398   Zn404   1.995   .     S
O399   Zn403   2.015   .     S
O400   Zn404   2.015   .     S
O401   Zn403   2.014   .     S
O402   Zn404   2.014   .     S
C405   O406    1.223   .     D
C405   O407    1.398   .     S
O407   H408    1.014   .     S
C409   O410    1.223   .     D
C409   O411    1.398   .     S
O411   H412    1.014   .     S
C413   O415    1.397   .     S
C413   O414    1.223   .     D
O415   H416    1.014   .     S
C417   O418    1.223   .     D
C417   O419    1.397   .     S
O419   H420    1.014   .     S
C421   O468    1.281   .     A
C421   O465    1.282   .     A
C421   C430    1.415   .     S
C422   O467    1.281   .     A
C422   O466    1.282   .     A
C422   C429    1.415   .     S
C423   C448    1.403   .     A
C423   H453    1.082   .     S
C423   C1079   1.380   1_554 S
C424   H454    1.082   .     S
C424   C447    1.403   .     A
C424   C1080   1.380   .     S
C425   C430    1.396   .     A
C425   H455    1.084   .     S
C425   C567    1.369   1_455 S
C426   C429    1.396   .     A
C426   H456    1.084   .     S
C426   C498    1.369   .     S
C427   C429    1.396   .     A
C427   H457    1.084   .     S
C427   C495    1.369   .     S
C428   H458    1.084   .     S
C428   C430    1.396   .     A
C428   C566    1.369   1_455 S
C431   N464    1.366   .     A
C431   H459    1.082   .     S
C432   H460    1.082   .     S
C432   N463    1.366   .     A
C432   C13     1.417   1_565 S
C433   H461    1.082   .     S
C433   N464    1.366   .     A
C434   H462    1.082   .     S
C434   N463    1.366   .     A
C434   C11     1.417   1_565 S
C435   O472    1.282   .     A
C435   O469    1.281   .     A
C435   C440    1.426   .     S
C436   O471    1.282   .     A
C436   C439    1.426   .     S
C436   O470    1.281   .     A
C437   C475    1.490   .     S
C437   C439    1.403   .     A
C437   C447    1.399   .     A
C438   C479    1.490   .     S
C438   C448    1.399   .     A
C438   C440    1.403   .     A
C439   C441    1.402   .     A
C440   C442    1.402   .     A
C441   C443    1.399   .     A
C441   C483    1.489   .     S
C442   C444    1.399   .     A
C442   C487    1.489   .     S
C443   C449    1.403   .     A
C443   C445    1.418   .     A
C444   C446    1.418   .     A
C444   C450    1.403   .     A
C445   C447    1.418   .     A
C445   C1076   1.407   .     S
C446   C448    1.418   .     A
C446   C1075   1.407   1_554 S
C449   H451    1.082   .     S
C449   C1053   1.380   .     S
C450   H452    1.082   .     S
C450   C1054   1.380   1_554 S
N463   Zn473   2.010   .     S
N464   Zn474   2.010   .     S
O465   Zn473   1.995   .     S
O466   Zn474   1.995   .     S
O467   Zn473   1.995   .     S
O468   Zn474   1.995   .     S
O469   Zn473   2.015   .     S
O470   Zn474   2.015   .     S
O471   Zn473   2.014   .     S
O472   Zn474   2.014   .     S
C475   O476    1.223   .     D
C475   O477    1.398   .     S
O477   H478    1.014   .     S
C479   O480    1.223   .     D
C479   O481    1.398   .     S
O481   H482    1.014   .     S
C483   O485    1.397   .     S
C483   O484    1.223   .     D
O485   H486    1.014   .     S
C487   O488    1.223   .     D
C487   O489    1.397   .     S
O489   H490    1.014   .     S
C491   O538    1.281   .     A
C491   O535    1.282   .     A
C491   C500    1.415   .     S
C492   O537    1.281   .     A
C492   O536    1.282   .     A
C492   C499    1.415   .     S
C493   C518    1.403   .     A
C493   H523    1.082   .     S
C493   C1149   1.380   1_554 S
C494   H524    1.082   .     S
C494   C517    1.403   .     A
C494   C1150   1.380   .     S
C495   C500    1.396   .     A
C495   H525    1.084   .     S
C496   C499    1.396   .     A
C496   H526    1.084   .     S
C496   C568    1.369   .     S
C497   C499    1.396   .     A
C497   H527    1.084   .     S
C497   C565    1.369   .     S
C498   H528    1.084   .     S
C498   C500    1.396   .     A
C501   N534    1.366   .     A
C501   H529    1.082   .     S
C502   H530    1.082   .     S
C502   N533    1.366   .     A
C502   C83     1.417   1_565 S
C503   H531    1.082   .     S
C503   N534    1.366   .     A
C504   H532    1.082   .     S
C504   N533    1.366   .     A
C504   C81     1.417   1_565 S
C505   O542    1.282   .     A
C505   O539    1.281   .     A
C505   C510    1.426   .     S
C506   O541    1.282   .     A
C506   C509    1.426   .     S
C506   O540    1.281   .     A
C507   C545    1.490   .     S
C507   C509    1.403   .     A
C507   C517    1.399   .     A
C508   C549    1.490   .     S
C508   C518    1.399   .     A
C508   C510    1.403   .     A
C509   C511    1.402   .     A
C510   C512    1.402   .     A
C511   C513    1.399   .     A
C511   C553    1.489   .     S
C512   C514    1.399   .     A
C512   C557    1.489   .     S
C513   C519    1.403   .     A
C513   C515    1.418   .     A
C514   C516    1.418   .     A
C514   C520    1.403   .     A
C515   C517    1.418   .     A
C515   C1146   1.407   .     S
C516   C518    1.418   .     A
C516   C1145   1.407   1_554 S
C519   H521    1.082   .     S
C519   C1123   1.380   .     S
C520   H522    1.082   .     S
C520   C1124   1.380   1_554 S
N533   Zn543   2.010   .     S
N534   Zn544   2.010   .     S
O535   Zn543   1.995   .     S
O536   Zn544   1.995   .     S
O537   Zn543   1.995   .     S
O538   Zn544   1.995   .     S
O539   Zn543   2.015   .     S
O540   Zn544   2.015   .     S
O541   Zn543   2.014   .     S
O542   Zn544   2.014   .     S
C545   O546    1.223   .     D
C545   O547    1.398   .     S
O547   H548    1.014   .     S
C549   O550    1.223   .     D
C549   O551    1.398   .     S
O551   H552    1.014   .     S
C553   O555    1.397   .     S
C553   O554    1.223   .     D
O555   H556    1.014   .     S
C557   O558    1.223   .     D
C557   O559    1.397   .     S
O559   H560    1.014   .     S
C561   O608    1.281   .     A
C561   O605    1.282   .     A
C561   C570    1.415   .     S
C562   O607    1.281   .     A
C562   O606    1.282   .     A
C562   C569    1.415   .     S
C563   C588    1.403   .     A
C563   H593    1.082   .     S
C563   C1219   1.380   1_554 S
C564   H594    1.082   .     S
C564   C587    1.403   .     A
C564   C1220   1.380   .     S
C565   C570    1.396   .     A
C565   H595    1.084   .     S
C566   C569    1.396   .     A
C566   H596    1.084   .     S
C566   C428    1.369   1_655 S
C567   C569    1.396   .     A
C567   H597    1.084   .     S
C567   C425    1.369   1_655 S
C568   H598    1.084   .     S
C568   C570    1.396   .     A
C571   N604    1.366   .     A
C571   H599    1.082   .     S
C572   H600    1.082   .     S
C572   N603    1.366   .     A
C572   C153    1.417   1_565 S
C573   H601    1.082   .     S
C573   N604    1.366   .     A
C574   H602    1.082   .     S
C574   N603    1.366   .     A
C574   C151    1.417   1_565 S
C575   O612    1.282   .     A
C575   O609    1.281   .     A
C575   C580    1.426   .     S
C576   O611    1.282   .     A
C576   C579    1.426   .     S
C576   O610    1.281   .     A
C577   C615    1.490   .     S
C577   C579    1.403   .     A
C577   C587    1.399   .     A
C578   C619    1.490   .     S
C578   C588    1.399   .     A
C578   C580    1.403   .     A
C579   C581    1.402   .     A
C580   C582    1.402   .     A
C581   C583    1.399   .     A
C581   C623    1.489   .     S
C582   C584    1.399   .     A
C582   C627    1.489   .     S
C583   C589    1.403   .     A
C583   C585    1.418   .     A
C584   C586    1.418   .     A
C584   C590    1.403   .     A
C585   C587    1.418   .     A
C585   C1216   1.407   .     S
C586   C588    1.418   .     A
C586   C1215   1.407   1_554 S
C589   H591    1.082   .     S
C589   C1193   1.380   .     S
C590   H592    1.082   .     S
C590   C1194   1.380   1_554 S
N603   Zn613   2.010   .     S
N604   Zn614   2.010   .     S
O605   Zn613   1.995   .     S
O606   Zn614   1.995   .     S
O607   Zn613   1.995   .     S
O608   Zn614   1.995   .     S
O609   Zn613   2.015   .     S
O610   Zn614   2.015   .     S
O611   Zn613   2.014   .     S
O612   Zn614   2.014   .     S
C615   O616    1.223   .     D
C615   O617    1.398   .     S
O617   H618    1.014   .     S
C619   O620    1.223   .     D
C619   O621    1.398   .     S
O621   H622    1.014   .     S
C623   O625    1.397   .     S
C623   O624    1.223   .     D
O625   H626    1.014   .     S
C627   O628    1.223   .     D
C627   O629    1.397   .     S
O629   H630    1.014   .     S
C631   O678    1.281   .     A
C631   O675    1.282   .     A
C631   C640    1.415   .     S
C632   O677    1.281   .     A
C632   O676    1.282   .     A
C632   C639    1.415   .     S
C633   C658    1.403   .     A
C633   H663    1.082   .     S
C634   H664    1.082   .     S
C634   C657    1.403   .     A
C634   C30     1.380   1_556 S
C635   C640    1.396   .     A
C635   H665    1.084   .     S
C635   C777    1.369   1_455 S
C636   C639    1.396   .     A
C636   H666    1.084   .     S
C636   C708    1.369   .     S
C637   C639    1.396   .     A
C637   H667    1.084   .     S
C637   C705    1.369   .     S
C638   H668    1.084   .     S
C638   C640    1.396   .     A
C638   C776    1.369   1_455 S
C641   N674    1.366   .     A
C641   H669    1.082   .     S
C641   C1064   1.417   1_545 S
C642   H670    1.082   .     S
C642   N673    1.366   .     A
C642   C853    1.417   .     S
C643   H671    1.082   .     S
C643   N674    1.366   .     A
C643   C1062   1.417   1_545 S
C644   H672    1.082   .     S
C644   N673    1.366   .     A
C644   C851    1.417   .     S
C645   O682    1.282   .     A
C645   O679    1.281   .     A
C645   C650    1.426   .     S
C646   O681    1.282   .     A
C646   C649    1.426   .     S
C646   O680    1.281   .     A
C647   C685    1.490   .     S
C647   C649    1.403   .     A
C647   C657    1.399   .     A
C648   C689    1.490   .     S
C648   C658    1.399   .     A
C648   C650    1.403   .     A
C649   C651    1.402   .     A
C650   C652    1.402   .     A
C651   C653    1.399   .     A
C651   C693    1.489   .     S
C652   C654    1.399   .     A
C652   C697    1.489   .     S
C653   C659    1.403   .     A
C653   C655    1.418   .     A
C654   C656    1.418   .     A
C654   C660    1.403   .     A
C655   C657    1.418   .     A
C655   C26     1.407   1_556 S
C656   C658    1.418   .     A
C659   H661    1.082   .     S
C659   C3      1.380   1_556 S
C660   H662    1.082   .     S
N673   Zn683   2.010   .     S
N674   Zn684   2.010   .     S
O675   Zn683   1.995   .     S
O676   Zn684   1.995   .     S
O677   Zn683   1.995   .     S
O678   Zn684   1.995   .     S
O679   Zn683   2.015   .     S
O680   Zn684   2.015   .     S
O681   Zn683   2.014   .     S
O682   Zn684   2.014   .     S
C685   O686    1.223   .     D
C685   O687    1.398   .     S
O687   H688    1.014   .     S
C689   O690    1.223   .     D
C689   O691    1.398   .     S
O691   H692    1.014   .     S
C693   O695    1.397   .     S
C693   O694    1.223   .     D
O695   H696    1.014   .     S
C697   O698    1.223   .     D
C697   O699    1.397   .     S
O699   H700    1.014   .     S
C701   O748    1.281   .     A
C701   O745    1.282   .     A
C701   C710    1.415   .     S
C702   O747    1.281   .     A
C702   O746    1.282   .     A
C702   C709    1.415   .     S
C703   C728    1.403   .     A
C703   H733    1.082   .     S
C704   H734    1.082   .     S
C704   C727    1.403   .     A
C704   C100    1.380   1_556 S
C705   C710    1.396   .     A
C705   H735    1.084   .     S
C706   C709    1.396   .     A
C706   H736    1.084   .     S
C706   C778    1.369   .     S
C707   C709    1.396   .     A
C707   H737    1.084   .     S
C707   C775    1.369   .     S
C708   H738    1.084   .     S
C708   C710    1.396   .     A
C711   N744    1.366   .     A
C711   H739    1.082   .     S
C711   C1134   1.417   1_545 S
C712   H740    1.082   .     S
C712   N743    1.366   .     A
C712   C923    1.417   .     S
C713   H741    1.082   .     S
C713   N744    1.366   .     A
C713   C1132   1.417   1_545 S
C714   H742    1.082   .     S
C714   N743    1.366   .     A
C714   C921    1.417   .     S
C715   O752    1.282   .     A
C715   O749    1.281   .     A
C715   C720    1.426   .     S
C716   O751    1.282   .     A
C716   C719    1.426   .     S
C716   O750    1.281   .     A
C717   C755    1.490   .     S
C717   C719    1.403   .     A
C717   C727    1.399   .     A
C718   C759    1.490   .     S
C718   C728    1.399   .     A
C718   C720    1.403   .     A
C719   C721    1.402   .     A
C720   C722    1.402   .     A
C721   C723    1.399   .     A
C721   C763    1.489   .     S
C722   C724    1.399   .     A
C722   C767    1.489   .     S
C723   C729    1.403   .     A
C723   C725    1.418   .     A
C724   C726    1.418   .     A
C724   C730    1.403   .     A
C725   C727    1.418   .     A
C725   C96     1.407   1_556 S
C726   C728    1.418   .     A
C729   H731    1.082   .     S
C729   C73     1.380   1_556 S
C730   H732    1.082   .     S
N743   Zn753   2.010   .     S
N744   Zn754   2.010   .     S
O745   Zn753   1.995   .     S
O746   Zn754   1.995   .     S
O747   Zn753   1.995   .     S
O748   Zn754   1.995   .     S
O749   Zn753   2.015   .     S
O750   Zn754   2.015   .     S
O751   Zn753   2.014   .     S
O752   Zn754   2.014   .     S
C755   O756    1.223   .     D
C755   O757    1.398   .     S
O757   H758    1.014   .     S
C759   O760    1.223   .     D
C759   O761    1.398   .     S
O761   H762    1.014   .     S
C763   O765    1.397   .     S
C763   O764    1.223   .     D
O765   H766    1.014   .     S
C767   O768    1.223   .     D
C767   O769    1.397   .     S
O769   H770    1.014   .     S
C771   O818    1.281   .     A
C771   O815    1.282   .     A
C771   C780    1.415   .     S
C772   O817    1.281   .     A
C772   O816    1.282   .     A
C772   C779    1.415   .     S
C773   C798    1.403   .     A
C773   H803    1.082   .     S
C774   H804    1.082   .     S
C774   C797    1.403   .     A
C774   C170    1.380   1_556 S
C775   C780    1.396   .     A
C775   H805    1.084   .     S
C776   C779    1.396   .     A
C776   H806    1.084   .     S
C776   C638    1.369   1_655 S
C777   C779    1.396   .     A
C777   H807    1.084   .     S
C777   C635    1.369   1_655 S
C778   H808    1.084   .     S
C778   C780    1.396   .     A
C781   N814    1.366   .     A
C781   H809    1.082   .     S
C781   C1204   1.417   1_545 S
C782   H810    1.082   .     S
C782   N813    1.366   .     A
C782   C993    1.417   .     S
C783   H811    1.082   .     S
C783   N814    1.366   .     A
C783   C1202   1.417   1_545 S
C784   H812    1.082   .     S
C784   N813    1.366   .     A
C784   C991    1.417   .     S
C785   O822    1.282   .     A
C785   O819    1.281   .     A
C785   C790    1.426   .     S
C786   O821    1.282   .     A
C786   C789    1.426   .     S
C786   O820    1.281   .     A
C787   C825    1.490   .     S
C787   C789    1.403   .     A
C787   C797    1.399   .     A
C788   C829    1.490   .     S
C788   C798    1.399   .     A
C788   C790    1.403   .     A
C789   C791    1.402   .     A
C790   C792    1.402   .     A
C791   C793    1.399   .     A
C791   C833    1.489   .     S
C792   C794    1.399   .     A
C792   C837    1.489   .     S
C793   C799    1.403   .     A
C793   C795    1.418   .     A
C794   C796    1.418   .     A
C794   C800    1.403   .     A
C795   C797    1.418   .     A
C795   C166    1.407   1_556 S
C796   C798    1.418   .     A
C799   H801    1.082   .     S
C799   C143    1.380   1_556 S
C800   H802    1.082   .     S
N813   Zn823   2.010   .     S
N814   Zn824   2.010   .     S
O815   Zn823   1.995   .     S
O816   Zn824   1.995   .     S
O817   Zn823   1.995   .     S
O818   Zn824   1.995   .     S
O819   Zn823   2.015   .     S
O820   Zn824   2.015   .     S
O821   Zn823   2.014   .     S
O822   Zn824   2.014   .     S
C825   O826    1.223   .     D
C825   O827    1.398   .     S
O827   H828    1.014   .     S
C829   O830    1.223   .     D
C829   O831    1.398   .     S
O831   H832    1.014   .     S
C833   O835    1.397   .     S
C833   O834    1.223   .     D
O835   H836    1.014   .     S
C837   O838    1.223   .     D
C837   O839    1.397   .     S
O839   H840    1.014   .     S
C841   O888    1.281   .     A
C841   O885    1.282   .     A
C841   C850    1.415   .     S
C842   O887    1.281   .     A
C842   O886    1.282   .     A
C842   C849    1.415   .     S
C843   C868    1.403   .     A
C843   H873    1.082   .     S
C844   H874    1.082   .     S
C844   C867    1.403   .     A
C844   C240    1.380   1_556 S
C845   C850    1.396   .     A
C845   H875    1.084   .     S
C845   C987    1.369   1_455 S
C846   C849    1.396   .     A
C846   H876    1.084   .     S
C846   C918    1.369   .     S
C847   C849    1.396   .     A
C847   H877    1.084   .     S
C847   C915    1.369   .     S
C848   H878    1.084   .     S
C848   C850    1.396   .     A
C848   C986    1.369   1_455 S
C851   N884    1.366   .     A
C851   H879    1.082   .     S
C852   H880    1.082   .     S
C852   N883    1.366   .     A
C852   C1063   1.417   .     S
C853   H881    1.082   .     S
C853   N884    1.366   .     A
C854   H882    1.082   .     S
C854   N883    1.366   .     A
C854   C1061   1.417   .     S
C855   O892    1.282   .     A
C855   O889    1.281   .     A
C855   C860    1.426   .     S
C856   O891    1.282   .     A
C856   C859    1.426   .     S
C856   O890    1.281   .     A
C857   C895    1.490   .     S
C857   C859    1.403   .     A
C857   C867    1.399   .     A
C858   C899    1.490   .     S
C858   C868    1.399   .     A
C858   C860    1.403   .     A
C859   C861    1.402   .     A
C860   C862    1.402   .     A
C861   C863    1.399   .     A
C861   C903    1.489   .     S
C862   C864    1.399   .     A
C862   C907    1.489   .     S
C863   C869    1.403   .     A
C863   C865    1.418   .     A
C864   C866    1.418   .     A
C864   C870    1.403   .     A
C865   C867    1.418   .     A
C865   C236    1.407   1_556 S
C866   C868    1.418   .     A
C869   H871    1.082   .     S
C869   C213    1.380   1_556 S
C870   H872    1.082   .     S
N883   Zn893   2.010   .     S
N884   Zn894   2.010   .     S
O885   Zn893   1.995   .     S
O886   Zn894   1.995   .     S
O887   Zn893   1.995   .     S
O888   Zn894   1.995   .     S
O889   Zn893   2.015   .     S
O890   Zn894   2.015   .     S
O891   Zn893   2.014   .     S
O892   Zn894   2.014   .     S
C895   O896    1.223   .     D
C895   O897    1.398   .     S
O897   H898    1.014   .     S
C899   O900    1.223   .     D
C899   O901    1.398   .     S
O901   H902    1.014   .     S
C903   O905    1.397   .     S
C903   O904    1.223   .     D
O905   H906    1.014   .     S
C907   O908    1.223   .     D
C907   O909    1.397   .     S
O909   H910    1.014   .     S
C911   O958    1.281   .     A
C911   O955    1.282   .     A
C911   C920    1.415   .     S
C912   O957    1.281   .     A
C912   O956    1.282   .     A
C912   C919    1.415   .     S
C913   C938    1.403   .     A
C913   H943    1.082   .     S
C914   H944    1.082   .     S
C914   C937    1.403   .     A
C914   C310    1.380   1_556 S
C915   C920    1.396   .     A
C915   H945    1.084   .     S
C916   C919    1.396   .     A
C916   H946    1.084   .     S
C916   C988    1.369   .     S
C917   C919    1.396   .     A
C917   H947    1.084   .     S
C917   C985    1.369   .     S
C918   H948    1.084   .     S
C918   C920    1.396   .     A
C921   N954    1.366   .     A
C921   H949    1.082   .     S
C922   H950    1.082   .     S
C922   N953    1.366   .     A
C922   C1133   1.417   .     S
C923   H951    1.082   .     S
C923   N954    1.366   .     A
C924   H952    1.082   .     S
C924   N953    1.366   .     A
C924   C1131   1.417   .     S
C925   O962    1.282   .     A
C925   O959    1.281   .     A
C925   C930    1.426   .     S
C926   O961    1.282   .     A
C926   C929    1.426   .     S
C926   O960    1.281   .     A
C927   C965    1.490   .     S
C927   C929    1.403   .     A
C927   C937    1.399   .     A
C928   C969    1.490   .     S
C928   C938    1.399   .     A
C928   C930    1.403   .     A
C929   C931    1.402   .     A
C930   C932    1.402   .     A
C931   C933    1.399   .     A
C931   C973    1.489   .     S
C932   C934    1.399   .     A
C932   C977    1.489   .     S
C933   C939    1.403   .     A
C933   C935    1.418   .     A
C934   C936    1.418   .     A
C934   C940    1.403   .     A
C935   C937    1.418   .     A
C935   C306    1.407   1_556 S
C936   C938    1.418   .     A
C939   H941    1.082   .     S
C939   C283    1.380   1_556 S
C940   H942    1.082   .     S
N953   Zn963   2.010   .     S
N954   Zn964   2.010   .     S
O955   Zn963   1.995   .     S
O956   Zn964   1.995   .     S
O957   Zn963   1.995   .     S
O958   Zn964   1.995   .     S
O959   Zn963   2.015   .     S
O960   Zn964   2.015   .     S
O961   Zn963   2.014   .     S
O962   Zn964   2.014   .     S
C965   O966    1.223   .     D
C965   O967    1.398   .     S
O967   H968    1.014   .     S
C969   O970    1.223   .     D
C969   O971    1.398   .     S
O971   H972    1.014   .     S
C973   O975    1.397   .     S
C973   O974    1.223   .     D
O975   H976    1.014   .     S
C977   O978    1.223   .     D
C977   O979    1.397   .     S
O979   H980    1.014   .     S
C981   O1028   1.281   .     A
C981   O1025   1.282   .     A
C981   C990    1.415   .     S
C982   O1027   1.281   .     A
C982   O1026   1.282   .     A
C982   C989    1.415   .     S
C983   C1008   1.403   .     A
C983   H1013   1.082   .     S
C984   H1014   1.082   .     S
C984   C1007   1.403   .     A
C984   C380    1.380   1_556 S
C985   C990    1.396   .     A
C985   H1015   1.084   .     S
C986   C989    1.396   .     A
C986   H1016   1.084   .     S
C986   C848    1.369   1_655 S
C987   C989    1.396   .     A
C987   H1017   1.084   .     S
C987   C845    1.369   1_655 S
C988   H1018   1.084   .     S
C988   C990    1.396   .     A
C991   N1024   1.366   .     A
C991   H1019   1.082   .     S
C992   H1020   1.082   .     S
C992   N1023   1.366   .     A
C992   C1203   1.417   .     S
C993   H1021   1.082   .     S
C993   N1024   1.366   .     A
C994   H1022   1.082   .     S
C994   N1023   1.366   .     A
C994   C1201   1.417   .     S
C995   O1032   1.282   .     A
C995   O1029   1.281   .     A
C995   C1000   1.426   .     S
C996   O1031   1.282   .     A
C996   C999    1.426   .     S
C996   O1030   1.281   .     A
C997   C1035   1.490   .     S
C997   C999    1.403   .     A
C997   C1007   1.399   .     A
C998   C1039   1.490   .     S
C998   C1008   1.399   .     A
C998   C1000   1.403   .     A
C999   C1001   1.402   .     A
C1000  C1002   1.402   .     A
C1001  C1003   1.399   .     A
C1001  C1043   1.489   .     S
C1002  C1004   1.399   .     A
C1002  C1047   1.489   .     S
C1003  C1009   1.403   .     A
C1003  C1005   1.418   .     A
C1004  C1006   1.418   .     A
C1004  C1010   1.403   .     A
C1005  C1007   1.418   .     A
C1005  C376    1.407   1_556 S
C1006  C1008   1.418   .     A
C1009  H1011   1.082   .     S
C1009  C353    1.380   1_556 S
C1010  H1012   1.082   .     S
N1023  Zn1033  2.010   .     S
N1024  Zn1034  2.010   .     S
O1025  Zn1033  1.995   .     S
O1026  Zn1034  1.995   .     S
O1027  Zn1033  1.995   .     S
O1028  Zn1034  1.995   .     S
O1029  Zn1033  2.015   .     S
O1030  Zn1034  2.015   .     S
O1031  Zn1033  2.014   .     S
O1032  Zn1034  2.014   .     S
C1035  O1036   1.223   .     D
C1035  O1037   1.398   .     S
O1037  H1038   1.014   .     S
C1039  O1040   1.223   .     D
C1039  O1041   1.398   .     S
O1041  H1042   1.014   .     S
C1043  O1045   1.397   .     S
C1043  O1044   1.223   .     D
O1045  H1046   1.014   .     S
C1047  O1048   1.223   .     D
C1047  O1049   1.397   .     S
O1049  H1050   1.014   .     S
C1051  O1098   1.281   .     A
C1051  O1095   1.282   .     A
C1051  C1060   1.415   .     S
C1052  O1097   1.281   .     A
C1052  O1096   1.282   .     A
C1052  C1059   1.415   .     S
C1053  C1078   1.403   .     A
C1053  H1083   1.082   .     S
C1054  H1084   1.082   .     S
C1054  C1077   1.403   .     A
C1054  C450    1.380   1_556 S
C1055  C1060   1.396   .     A
C1055  H1085   1.084   .     S
C1055  C1197   1.369   1_455 S
C1056  C1059   1.396   .     A
C1056  H1086   1.084   .     S
C1056  C1128   1.369   .     S
C1057  C1059   1.396   .     A
C1057  H1087   1.084   .     S
C1057  C1125   1.369   .     S
C1058  H1088   1.084   .     S
C1058  C1060   1.396   .     A
C1058  C1196   1.369   1_455 S
C1061  N1094   1.366   .     A
C1061  H1089   1.082   .     S
C1062  H1090   1.082   .     S
C1062  N1093   1.366   .     A
C1062  C643    1.417   1_565 S
C1063  H1091   1.082   .     S
C1063  N1094   1.366   .     A
C1064  H1092   1.082   .     S
C1064  N1093   1.366   .     A
C1064  C641    1.417   1_565 S
C1065  O1102   1.282   .     A
C1065  O1099   1.281   .     A
C1065  C1070   1.426   .     S
C1066  O1101   1.282   .     A
C1066  C1069   1.426   .     S
C1066  O1100   1.281   .     A
C1067  C1105   1.490   .     S
C1067  C1069   1.403   .     A
C1067  C1077   1.399   .     A
C1068  C1109   1.490   .     S
C1068  C1078   1.399   .     A
C1068  C1070   1.403   .     A
C1069  C1071   1.402   .     A
C1070  C1072   1.402   .     A
C1071  C1073   1.399   .     A
C1071  C1113   1.489   .     S
C1072  C1074   1.399   .     A
C1072  C1117   1.489   .     S
C1073  C1079   1.403   .     A
C1073  C1075   1.418   .     A
C1074  C1076   1.418   .     A
C1074  C1080   1.403   .     A
C1075  C1077   1.418   .     A
C1075  C446    1.407   1_556 S
C1076  C1078   1.418   .     A
C1079  H1081   1.082   .     S
C1079  C423    1.380   1_556 S
C1080  H1082   1.082   .     S
N1093  Zn1103  2.010   .     S
N1094  Zn1104  2.010   .     S
O1095  Zn1103  1.995   .     S
O1096  Zn1104  1.995   .     S
O1097  Zn1103  1.995   .     S
O1098  Zn1104  1.995   .     S
O1099  Zn1103  2.015   .     S
O1100  Zn1104  2.015   .     S
O1101  Zn1103  2.014   .     S
O1102  Zn1104  2.014   .     S
C1105  O1106   1.223   .     D
C1105  O1107   1.398   .     S
O1107  H1108   1.014   .     S
C1109  O1110   1.223   .     D
C1109  O1111   1.398   .     S
O1111  H1112   1.014   .     S
C1113  O1115   1.397   .     S
C1113  O1114   1.223   .     D
O1115  H1116   1.014   .     S
C1117  O1118   1.223   .     D
C1117  O1119   1.397   .     S
O1119  H1120   1.014   .     S
C1121  O1168   1.281   .     A
C1121  O1165   1.282   .     A
C1121  C1130   1.415   .     S
C1122  O1167   1.281   .     A
C1122  O1166   1.282   .     A
C1122  C1129   1.415   .     S
C1123  C1148   1.403   .     A
C1123  H1153   1.082   .     S
C1124  H1154   1.082   .     S
C1124  C1147   1.403   .     A
C1124  C520    1.380   1_556 S
C1125  C1130   1.396   .     A
C1125  H1155   1.084   .     S
C1126  C1129   1.396   .     A
C1126  H1156   1.084   .     S
C1126  C1198   1.369   .     S
C1127  C1129   1.396   .     A
C1127  H1157   1.084   .     S
C1127  C1195   1.369   .     S
C1128  H1158   1.084   .     S
C1128  C1130   1.396   .     A
C1131  N1164   1.366   .     A
C1131  H1159   1.082   .     S
C1132  H1160   1.082   .     S
C1132  N1163   1.366   .     A
C1132  C713    1.417   1_565 S
C1133  H1161   1.082   .     S
C1133  N1164   1.366   .     A
C1134  H1162   1.082   .     S
C1134  N1163   1.366   .     A
C1134  C711    1.417   1_565 S
C1135  O1172   1.282   .     A
C1135  O1169   1.281   .     A
C1135  C1140   1.426   .     S
C1136  O1171   1.282   .     A
C1136  C1139   1.426   .     S
C1136  O1170   1.281   .     A
C1137  C1175   1.490   .     S
C1137  C1139   1.403   .     A
C1137  C1147   1.399   .     A
C1138  C1179   1.490   .     S
C1138  C1148   1.399   .     A
C1138  C1140   1.403   .     A
C1139  C1141   1.402   .     A
C1140  C1142   1.402   .     A
C1141  C1143   1.399   .     A
C1141  C1183   1.489   .     S
C1142  C1144   1.399   .     A
C1142  C1187   1.489   .     S
C1143  C1149   1.403   .     A
C1143  C1145   1.418   .     A
C1144  C1146   1.418   .     A
C1144  C1150   1.403   .     A
C1145  C1147   1.418   .     A
C1145  C516    1.407   1_556 S
C1146  C1148   1.418   .     A
C1149  H1151   1.082   .     S
C1149  C493    1.380   1_556 S
C1150  H1152   1.082   .     S
N1163  Zn1173  2.010   .     S
N1164  Zn1174  2.010   .     S
O1165  Zn1173  1.995   .     S
O1166  Zn1174  1.995   .     S
O1167  Zn1173  1.995   .     S
O1168  Zn1174  1.995   .     S
O1169  Zn1173  2.015   .     S
O1170  Zn1174  2.015   .     S
O1171  Zn1173  2.014   .     S
O1172  Zn1174  2.014   .     S
C1175  O1176   1.223   .     D
C1175  O1177   1.398   .     S
O1177  H1178   1.014   .     S
C1179  O1180   1.223   .     D
C1179  O1181   1.398   .     S
O1181  H1182   1.014   .     S
C1183  O1185   1.397   .     S
C1183  O1184   1.223   .     D
O1185  H1186   1.014   .     S
C1187  O1188   1.223   .     D
C1187  O1189   1.397   .     S
O1189  H1190   1.014   .     S
C1191  O1238   1.281   .     A
C1191  O1235   1.282   .     A
C1191  C1200   1.415   .     S
C1192  O1237   1.281   .     A
C1192  O1236   1.282   .     A
C1192  C1199   1.415   .     S
C1193  C1218   1.403   .     A
C1193  H1223   1.082   .     S
C1194  H1224   1.082   .     S
C1194  C1217   1.403   .     A
C1194  C590    1.380   1_556 S
C1195  C1200   1.396   .     A
C1195  H1225   1.084   .     S
C1196  C1199   1.396   .     A
C1196  H1226   1.084   .     S
C1196  C1058   1.369   1_655 S
C1197  C1199   1.396   .     A
C1197  H1227   1.084   .     S
C1197  C1055   1.369   1_655 S
C1198  H1228   1.084   .     S
C1198  C1200   1.396   .     A
C1201  N1234   1.366   .     A
C1201  H1229   1.082   .     S
C1202  H1230   1.082   .     S
C1202  N1233   1.366   .     A
C1202  C783    1.417   1_565 S
C1203  H1231   1.082   .     S
C1203  N1234   1.366   .     A
C1204  H1232   1.082   .     S
C1204  N1233   1.366   .     A
C1204  C781    1.417   1_565 S
C1205  O1242   1.282   .     A
C1205  O1239   1.281   .     A
C1205  C1210   1.426   .     S
C1206  O1241   1.282   .     A
C1206  C1209   1.426   .     S
C1206  O1240   1.281   .     A
C1207  C1245   1.490   .     S
C1207  C1209   1.403   .     A
C1207  C1217   1.399   .     A
C1208  C1249   1.490   .     S
C1208  C1218   1.399   .     A
C1208  C1210   1.403   .     A
C1209  C1211   1.402   .     A
C1210  C1212   1.402   .     A
C1211  C1213   1.399   .     A
C1211  C1253   1.489   .     S
C1212  C1214   1.399   .     A
C1212  C1257   1.489   .     S
C1213  C1219   1.403   .     A
C1213  C1215   1.418   .     A
C1214  C1216   1.418   .     A
C1214  C1220   1.403   .     A
C1215  C1217   1.418   .     A
C1215  C586    1.407   1_556 S
C1216  C1218   1.418   .     A
C1219  H1221   1.082   .     S
C1219  C563    1.380   1_556 S
C1220  H1222   1.082   .     S
N1233  Zn1243  2.010   .     S
N1234  Zn1244  2.010   .     S
O1235  Zn1243  1.995   .     S
O1236  Zn1244  1.995   .     S
O1237  Zn1243  1.995   .     S
O1238  Zn1244  1.995   .     S
O1239  Zn1243  2.015   .     S
O1240  Zn1244  2.015   .     S
O1241  Zn1243  2.014   .     S
O1242  Zn1244  2.014   .     S
C1245  O1246   1.223   .     D
C1245  O1247   1.398   .     S
O1247  H1248   1.014   .     S
C1249  O1250   1.223   .     D
C1249  O1251   1.398   .     S
O1251  H1252   1.014   .     S
C1253  O1255   1.397   .     S
C1253  O1254   1.223   .     D
O1255  H1256   1.014   .     S
C1257  O1258   1.223   .     D
C1257  O1259   1.397   .     S
O1259  H1260   1.014   .     S
