data_str_m3_o2_o10_pcu_sym.159
_audit_creation_date              2020-01-03
_audit_creation_method            'Materials Studio'
_symmetry_space_group_name_H-M    'P1'
_symmetry_Int_Tables_number       1
_symmetry_cell_setting            triclinic
loop_
_symmetry_equiv_pos_as_xyz
  x,y,z
_cell_length_a                    25.7030
_cell_length_b                    29.6946
_cell_length_c                    28.3472
_cell_angle_alpha                 89.9075
_cell_angle_beta                  98.6315
_cell_angle_gamma                 90.1067
loop_
_atom_site_label
_atom_site_type_symbol
_atom_site_fract_x
_atom_site_fract_y
_atom_site_fract_z
_atom_site_U_iso_or_equiv
_atom_site_adp_type
_atom_site_occupancy
C1     C     0.16520   0.16361   0.24986   0.00000  Uiso   1.00
C2     C     0.16552   0.33636   0.24981   0.00000  Uiso   1.00
C3     C     0.12513   0.23038   0.04702   0.00000  Uiso   1.00
C4     C     0.19018   0.28520   0.45053   0.00000  Uiso   1.00
C5     C     0.12603   0.23061   0.09676   0.00000  Uiso   1.00
C6     C     0.18992   0.28447   0.40088   0.00000  Uiso   1.00
C7     C     0.20725   0.26941   0.10770   0.00000  Uiso   1.00
C8     C     0.14331   0.21558   0.39462   0.00000  Uiso   1.00
C9     C     0.20809   0.26964   0.05820   0.00000  Uiso   1.00
C10    C     0.14297   0.21485   0.44420   0.00000  Uiso   1.00
C11    C     0.16660   0.25001   0.02667   0.00000  Uiso   1.00
C12    C     0.16658   0.25002   0.47330   0.00000  Uiso   1.00
C13    C     0.06700   0.24998   0.23753   0.00000  Uiso   1.00
C14    C     0.26633   0.24998   0.26246   0.00000  Uiso   1.00
C15    C     0.01197   0.24998   0.23078   0.00000  Uiso   1.00
C16    C     0.32136   0.24991   0.26920   0.00000  Uiso   1.00
C17    C     0.11958   0.05025   0.28310   0.00000  Uiso   1.00
C18    C     0.11568   0.44917   0.20704   0.00000  Uiso   1.00
C19    C     0.13211   0.09571   0.28503   0.00000  Uiso   1.00
C20    C     0.12858   0.40382   0.20757   0.00000  Uiso   1.00
C21    C     0.15559   0.11571   0.24870   0.00000  Uiso   1.00
C22    C     0.15645   0.38422   0.24865   0.00000  Uiso   1.00
C23    C     0.16664   0.09034   0.21002   0.00000  Uiso   1.00
C24    C     0.17203   0.40983   0.28953   0.00000  Uiso   1.00
C25    C     0.15633   0.04469   0.20864   0.00000  Uiso   1.00
C26    C     0.16162   0.45541   0.28878   0.00000  Uiso   1.00
C27    C     0.13376   0.02427   0.24534   0.00000  Uiso   1.00
C28    C     0.13414   0.47547   0.24764   0.00000  Uiso   1.00
H29    H     0.32466   0.25007   0.19434   0.00000  Uiso   1.00
H30    H     0.00868   0.24980   0.30564   0.00000  Uiso   1.00
H31    H     0.12290   0.11537   0.31486   0.00000  Uiso   1.00
H32    H     0.11574   0.38377   0.17604   0.00000  Uiso   1.00
H33    H     0.18470   0.10551   0.18168   0.00000  Uiso   1.00
H34    H     0.19354   0.39484   0.32151   0.00000  Uiso   1.00
H35    H     0.16862   0.02493   0.18017   0.00000  Uiso   1.00
H36    H     0.17736   0.47537   0.31962   0.00000  Uiso   1.00
H37    H     0.09168   0.21545   0.02476   0.00000  Uiso   1.00
H38    H     0.20815   0.31358   0.47068   0.00000  Uiso   1.00
H39    H     0.23932   0.28474   0.13135   0.00000  Uiso   1.00
H40    H     0.12492   0.18840   0.37280   0.00000  Uiso   1.00
H41    H     0.24151   0.28459   0.04497   0.00000  Uiso   1.00
H42    H     0.12495   0.18649   0.45953   0.00000  Uiso   1.00
N43    N     0.16667   0.24999   0.12623   0.00000  Uiso   1.00
N44    N     0.16667   0.25001   0.37376   0.00000  Uiso   1.00
O45    O     0.16667   0.18454   0.28974   0.00000  Uiso   1.00
O46    O     0.16666   0.31547   0.21026   0.00000  Uiso   1.00
O47    O     0.16667   0.18453   0.21026   0.00000  Uiso   1.00
O48    O     0.16666   0.31547   0.28974   0.00000  Uiso   1.00
O49    O     0.09058   0.25000   0.28044   0.00000  Uiso   1.00
O50    O     0.24275   0.25000   0.21955   0.00000  Uiso   1.00
O51    O     0.09058   0.25000   0.20096   0.00000  Uiso   1.00
O52    O     0.24275   0.25001   0.29903   0.00000  Uiso   1.00
Zn53   Zn    0.16667   0.25001   0.30307   0.00000  Uiso   1.00
Zn54   Zn    0.16667   0.25000   0.19693   0.00000  Uiso   1.00
O55    O     0.10049   0.03113   0.32176   0.00000  Uiso   1.00
C56    C     0.04655   0.02007   0.30968   0.00000  Uiso   1.00
H57    H     0.03618   0.49764   0.33826   0.00000  Uiso   1.00
H58    H     0.03842   0.00031   0.27623   0.00000  Uiso   1.00
C59    C     0.01145   0.06211   0.30739   0.00000  Uiso   1.00
H60    H     0.02128   0.08161   0.34099   0.00000  Uiso   1.00
H61    H     0.01864   0.08389   0.27711   0.00000  Uiso   1.00
C62    C     0.28650   0.04954   0.30065   0.00000  Uiso   1.00
H63    H     0.27540   0.03114   0.26657   0.00000  Uiso   1.00
H64    H     0.26239   0.08061   0.29961   0.00000  Uiso   1.00
H65    H     0.27774   0.02813   0.33065   0.00000  Uiso   1.00
O66    O     0.09065   0.46752   0.16461   0.00000  Uiso   1.00
C67    C     0.03849   0.48041   0.16870   0.00000  Uiso   1.00
H68    H     0.02265   0.49866   0.13540   0.00000  Uiso   1.00
H69    H     0.03723   0.00484   0.19799   0.00000  Uiso   1.00
C70    C     0.00263   0.43961   0.17356   0.00000  Uiso   1.00
H71    H     0.00527   0.41560   0.14398   0.00000  Uiso   1.00
H72    H     0.01559   0.42206   0.20796   0.00000  Uiso   1.00
C73    C     0.27873   0.45392   0.17216   0.00000  Uiso   1.00
H74    H     0.27510   0.47744   0.20187   0.00000  Uiso   1.00
H75    H     0.25399   0.42382   0.17602   0.00000  Uiso   1.00
H76    H     0.26394   0.47063   0.13768   0.00000  Uiso   1.00
H77    H     0.09396   0.21536   0.11181   0.00000  Uiso   1.00
H78    H     0.20826   0.31169   0.38398   0.00000  Uiso   1.00
C79    C     0.49853   0.16361   0.24986   0.00000  Uiso   1.00
C80    C     0.49886   0.33636   0.24981   0.00000  Uiso   1.00
C81    C     0.45846   0.23038   0.04702   0.00000  Uiso   1.00
C82    C     0.52352   0.28520   0.45053   0.00000  Uiso   1.00
C83    C     0.45937   0.23061   0.09676   0.00000  Uiso   1.00
C84    C     0.52326   0.28447   0.40088   0.00000  Uiso   1.00
C85    C     0.54058   0.26941   0.10770   0.00000  Uiso   1.00
C86    C     0.47664   0.21558   0.39462   0.00000  Uiso   1.00
C87    C     0.54143   0.26964   0.05820   0.00000  Uiso   1.00
C88    C     0.47631   0.21485   0.44420   0.00000  Uiso   1.00
C89    C     0.49993   0.25001   0.02667   0.00000  Uiso   1.00
C90    C     0.49991   0.25002   0.47330   0.00000  Uiso   1.00
C91    C     0.40034   0.24998   0.23753   0.00000  Uiso   1.00
C92    C     0.59966   0.24998   0.26246   0.00000  Uiso   1.00
C93    C     0.34530   0.24998   0.23078   0.00000  Uiso   1.00
C94    C     0.65470   0.24991   0.26920   0.00000  Uiso   1.00
C95    C     0.45291   0.05025   0.28310   0.00000  Uiso   1.00
C96    C     0.44902   0.44917   0.20704   0.00000  Uiso   1.00
C97    C     0.46545   0.09571   0.28503   0.00000  Uiso   1.00
C98    C     0.46191   0.40382   0.20757   0.00000  Uiso   1.00
C99    C     0.48892   0.11571   0.24870   0.00000  Uiso   1.00
C100   C     0.48979   0.38422   0.24865   0.00000  Uiso   1.00
C101   C     0.49997   0.09034   0.21002   0.00000  Uiso   1.00
C102   C     0.50537   0.40983   0.28953   0.00000  Uiso   1.00
C103   C     0.48966   0.04469   0.20864   0.00000  Uiso   1.00
C104   C     0.49496   0.45541   0.28878   0.00000  Uiso   1.00
C105   C     0.46709   0.02427   0.24534   0.00000  Uiso   1.00
C106   C     0.46747   0.47547   0.24764   0.00000  Uiso   1.00
H107   H     0.65799   0.25007   0.19434   0.00000  Uiso   1.00
H108   H     0.34202   0.24980   0.30564   0.00000  Uiso   1.00
H109   H     0.45623   0.11537   0.31486   0.00000  Uiso   1.00
H110   H     0.44907   0.38377   0.17604   0.00000  Uiso   1.00
H111   H     0.51803   0.10551   0.18168   0.00000  Uiso   1.00
H112   H     0.52688   0.39484   0.32151   0.00000  Uiso   1.00
H113   H     0.50195   0.02493   0.18017   0.00000  Uiso   1.00
H114   H     0.51069   0.47537   0.31962   0.00000  Uiso   1.00
H115   H     0.42502   0.21545   0.02476   0.00000  Uiso   1.00
H116   H     0.54149   0.31358   0.47068   0.00000  Uiso   1.00
H117   H     0.57265   0.28474   0.13135   0.00000  Uiso   1.00
H118   H     0.45826   0.18840   0.37280   0.00000  Uiso   1.00
H119   H     0.57485   0.28459   0.04497   0.00000  Uiso   1.00
H120   H     0.45828   0.18649   0.45953   0.00000  Uiso   1.00
N121   N     0.50000   0.24999   0.12623   0.00000  Uiso   1.00
N122   N     0.50000   0.25001   0.37376   0.00000  Uiso   1.00
O123   O     0.50000   0.18454   0.28974   0.00000  Uiso   1.00
O124   O     0.50000   0.31547   0.21026   0.00000  Uiso   1.00
O125   O     0.50000   0.18453   0.21026   0.00000  Uiso   1.00
O126   O     0.50000   0.31547   0.28974   0.00000  Uiso   1.00
O127   O     0.42392   0.25000   0.28044   0.00000  Uiso   1.00
O128   O     0.57608   0.25000   0.21955   0.00000  Uiso   1.00
O129   O     0.42392   0.25000   0.20096   0.00000  Uiso   1.00
O130   O     0.57608   0.25001   0.29903   0.00000  Uiso   1.00
Zn131  Zn    0.50000   0.25001   0.30307   0.00000  Uiso   1.00
Zn132  Zn    0.50000   0.25000   0.19693   0.00000  Uiso   1.00
O133   O     0.43382   0.03113   0.32176   0.00000  Uiso   1.00
C134   C     0.37989   0.02007   0.30968   0.00000  Uiso   1.00
H135   H     0.36951   0.49764   0.33826   0.00000  Uiso   1.00
H136   H     0.37176   0.00031   0.27623   0.00000  Uiso   1.00
C137   C     0.34478   0.06211   0.30739   0.00000  Uiso   1.00
H138   H     0.35461   0.08161   0.34099   0.00000  Uiso   1.00
H139   H     0.35198   0.08389   0.27711   0.00000  Uiso   1.00
C140   C     0.61984   0.04954   0.30065   0.00000  Uiso   1.00
H141   H     0.60873   0.03114   0.26657   0.00000  Uiso   1.00
H142   H     0.59572   0.08061   0.29961   0.00000  Uiso   1.00
H143   H     0.61107   0.02813   0.33065   0.00000  Uiso   1.00
O144   O     0.42398   0.46752   0.16461   0.00000  Uiso   1.00
C145   C     0.37182   0.48041   0.16870   0.00000  Uiso   1.00
H146   H     0.35598   0.49866   0.13540   0.00000  Uiso   1.00
H147   H     0.37057   0.00484   0.19799   0.00000  Uiso   1.00
C148   C     0.33597   0.43961   0.17356   0.00000  Uiso   1.00
H149   H     0.33860   0.41560   0.14398   0.00000  Uiso   1.00
H150   H     0.34893   0.42206   0.20796   0.00000  Uiso   1.00
C151   C     0.61206   0.45392   0.17216   0.00000  Uiso   1.00
H152   H     0.60844   0.47744   0.20187   0.00000  Uiso   1.00
H153   H     0.58732   0.42382   0.17602   0.00000  Uiso   1.00
H154   H     0.59728   0.47063   0.13768   0.00000  Uiso   1.00
H155   H     0.42730   0.21536   0.11181   0.00000  Uiso   1.00
H156   H     0.54159   0.31169   0.38398   0.00000  Uiso   1.00
C157   C     0.83186   0.16361   0.24986   0.00000  Uiso   1.00
C158   C     0.83219   0.33636   0.24981   0.00000  Uiso   1.00
C159   C     0.79180   0.23038   0.04702   0.00000  Uiso   1.00
C160   C     0.85685   0.28520   0.45053   0.00000  Uiso   1.00
C161   C     0.79270   0.23061   0.09676   0.00000  Uiso   1.00
C162   C     0.85659   0.28447   0.40088   0.00000  Uiso   1.00
C163   C     0.87392   0.26941   0.10770   0.00000  Uiso   1.00
C164   C     0.80997   0.21558   0.39462   0.00000  Uiso   1.00
C165   C     0.87476   0.26964   0.05820   0.00000  Uiso   1.00
C166   C     0.80964   0.21485   0.44420   0.00000  Uiso   1.00
C167   C     0.83327   0.25001   0.02667   0.00000  Uiso   1.00
C168   C     0.83325   0.25002   0.47330   0.00000  Uiso   1.00
C169   C     0.73367   0.24998   0.23753   0.00000  Uiso   1.00
C170   C     0.93299   0.24998   0.26246   0.00000  Uiso   1.00
C171   C     0.67864   0.24998   0.23078   0.00000  Uiso   1.00
C172   C     0.98803   0.24991   0.26920   0.00000  Uiso   1.00
C173   C     0.78625   0.05025   0.28310   0.00000  Uiso   1.00
C174   C     0.78235   0.44917   0.20704   0.00000  Uiso   1.00
C175   C     0.79878   0.09571   0.28503   0.00000  Uiso   1.00
C176   C     0.79525   0.40382   0.20757   0.00000  Uiso   1.00
C177   C     0.82226   0.11571   0.24870   0.00000  Uiso   1.00
C178   C     0.82312   0.38422   0.24865   0.00000  Uiso   1.00
C179   C     0.83330   0.09034   0.21002   0.00000  Uiso   1.00
C180   C     0.83870   0.40983   0.28953   0.00000  Uiso   1.00
C181   C     0.82299   0.04469   0.20864   0.00000  Uiso   1.00
C182   C     0.82829   0.45541   0.28878   0.00000  Uiso   1.00
C183   C     0.80042   0.02427   0.24534   0.00000  Uiso   1.00
C184   C     0.80081   0.47547   0.24764   0.00000  Uiso   1.00
H185   H     0.99132   0.25007   0.19434   0.00000  Uiso   1.00
H186   H     0.67535   0.24980   0.30564   0.00000  Uiso   1.00
H187   H     0.78956   0.11537   0.31486   0.00000  Uiso   1.00
H188   H     0.78241   0.38377   0.17604   0.00000  Uiso   1.00
H189   H     0.85137   0.10551   0.18168   0.00000  Uiso   1.00
H190   H     0.86021   0.39484   0.32151   0.00000  Uiso   1.00
H191   H     0.83528   0.02493   0.18017   0.00000  Uiso   1.00
H192   H     0.84402   0.47537   0.31962   0.00000  Uiso   1.00
H193   H     0.75835   0.21545   0.02476   0.00000  Uiso   1.00
H194   H     0.87482   0.31358   0.47068   0.00000  Uiso   1.00
H195   H     0.90598   0.28474   0.13135   0.00000  Uiso   1.00
H196   H     0.79159   0.18840   0.37280   0.00000  Uiso   1.00
H197   H     0.90818   0.28459   0.04497   0.00000  Uiso   1.00
H198   H     0.79161   0.18649   0.45953   0.00000  Uiso   1.00
N199   N     0.83333   0.24999   0.12623   0.00000  Uiso   1.00
N200   N     0.83333   0.25001   0.37376   0.00000  Uiso   1.00
O201   O     0.83334   0.18454   0.28974   0.00000  Uiso   1.00
O202   O     0.83333   0.31547   0.21026   0.00000  Uiso   1.00
O203   O     0.83334   0.18453   0.21026   0.00000  Uiso   1.00
O204   O     0.83333   0.31547   0.28974   0.00000  Uiso   1.00
O205   O     0.75725   0.25000   0.28044   0.00000  Uiso   1.00
O206   O     0.90942   0.25000   0.21955   0.00000  Uiso   1.00
O207   O     0.75725   0.25000   0.20096   0.00000  Uiso   1.00
O208   O     0.90942   0.25001   0.29903   0.00000  Uiso   1.00
Zn209  Zn    0.83333   0.25001   0.30307   0.00000  Uiso   1.00
Zn210  Zn    0.83333   0.25000   0.19693   0.00000  Uiso   1.00
O211   O     0.76715   0.03113   0.32176   0.00000  Uiso   1.00
C212   C     0.71322   0.02007   0.30968   0.00000  Uiso   1.00
H213   H     0.70284   0.49764   0.33826   0.00000  Uiso   1.00
H214   H     0.70509   0.00031   0.27623   0.00000  Uiso   1.00
C215   C     0.67812   0.06211   0.30739   0.00000  Uiso   1.00
H216   H     0.68795   0.08161   0.34099   0.00000  Uiso   1.00
H217   H     0.68531   0.08389   0.27711   0.00000  Uiso   1.00
C218   C     0.95317   0.04954   0.30065   0.00000  Uiso   1.00
H219   H     0.94206   0.03114   0.26657   0.00000  Uiso   1.00
H220   H     0.92905   0.08061   0.29961   0.00000  Uiso   1.00
H221   H     0.94440   0.02813   0.33065   0.00000  Uiso   1.00
O222   O     0.75731   0.46752   0.16461   0.00000  Uiso   1.00
C223   C     0.70516   0.48041   0.16870   0.00000  Uiso   1.00
H224   H     0.68931   0.49866   0.13540   0.00000  Uiso   1.00
H225   H     0.70390   0.00484   0.19799   0.00000  Uiso   1.00
C226   C     0.66930   0.43961   0.17356   0.00000  Uiso   1.00
H227   H     0.67193   0.41560   0.14398   0.00000  Uiso   1.00
H228   H     0.68226   0.42206   0.20796   0.00000  Uiso   1.00
C229   C     0.94540   0.45392   0.17216   0.00000  Uiso   1.00
H230   H     0.94177   0.47744   0.20187   0.00000  Uiso   1.00
H231   H     0.92066   0.42382   0.17602   0.00000  Uiso   1.00
H232   H     0.93061   0.47063   0.13768   0.00000  Uiso   1.00
H233   H     0.76063   0.21536   0.11181   0.00000  Uiso   1.00
H234   H     0.87493   0.31169   0.38398   0.00000  Uiso   1.00
C235   C     0.16520   0.66361   0.24986   0.00000  Uiso   1.00
C236   C     0.16552   0.83636   0.24981   0.00000  Uiso   1.00
C237   C     0.12513   0.73038   0.04702   0.00000  Uiso   1.00
C238   C     0.19018   0.78520   0.45053   0.00000  Uiso   1.00
C239   C     0.12603   0.73061   0.09676   0.00000  Uiso   1.00
C240   C     0.18992   0.78447   0.40088   0.00000  Uiso   1.00
C241   C     0.20725   0.76941   0.10770   0.00000  Uiso   1.00
C242   C     0.14331   0.71558   0.39462   0.00000  Uiso   1.00
C243   C     0.20809   0.76964   0.05820   0.00000  Uiso   1.00
C244   C     0.14297   0.71485   0.44420   0.00000  Uiso   1.00
C245   C     0.16660   0.75001   0.02667   0.00000  Uiso   1.00
C246   C     0.16658   0.75002   0.47330   0.00000  Uiso   1.00
C247   C     0.06700   0.74998   0.23753   0.00000  Uiso   1.00
C248   C     0.26633   0.74998   0.26246   0.00000  Uiso   1.00
C249   C     0.01197   0.74998   0.23078   0.00000  Uiso   1.00
C250   C     0.32136   0.74991   0.26920   0.00000  Uiso   1.00
C251   C     0.11958   0.55025   0.28310   0.00000  Uiso   1.00
C252   C     0.11568   0.94917   0.20704   0.00000  Uiso   1.00
C253   C     0.13211   0.59571   0.28503   0.00000  Uiso   1.00
C254   C     0.12858   0.90382   0.20757   0.00000  Uiso   1.00
C255   C     0.15559   0.61571   0.24870   0.00000  Uiso   1.00
C256   C     0.15645   0.88422   0.24865   0.00000  Uiso   1.00
C257   C     0.16664   0.59034   0.21002   0.00000  Uiso   1.00
C258   C     0.17203   0.90983   0.28953   0.00000  Uiso   1.00
C259   C     0.15633   0.54469   0.20864   0.00000  Uiso   1.00
C260   C     0.16162   0.95541   0.28878   0.00000  Uiso   1.00
C261   C     0.13376   0.52427   0.24534   0.00000  Uiso   1.00
C262   C     0.13414   0.97547   0.24764   0.00000  Uiso   1.00
H263   H     0.32466   0.75007   0.19434   0.00000  Uiso   1.00
H264   H     0.00868   0.74980   0.30564   0.00000  Uiso   1.00
H265   H     0.12290   0.61537   0.31486   0.00000  Uiso   1.00
H266   H     0.11574   0.88377   0.17604   0.00000  Uiso   1.00
H267   H     0.18470   0.60551   0.18168   0.00000  Uiso   1.00
H268   H     0.19354   0.89484   0.32151   0.00000  Uiso   1.00
H269   H     0.16862   0.52493   0.18017   0.00000  Uiso   1.00
H270   H     0.17736   0.97537   0.31962   0.00000  Uiso   1.00
H271   H     0.09168   0.71545   0.02476   0.00000  Uiso   1.00
H272   H     0.20815   0.81358   0.47068   0.00000  Uiso   1.00
H273   H     0.23932   0.78474   0.13135   0.00000  Uiso   1.00
H274   H     0.12492   0.68840   0.37280   0.00000  Uiso   1.00
H275   H     0.24151   0.78459   0.04497   0.00000  Uiso   1.00
H276   H     0.12495   0.68649   0.45953   0.00000  Uiso   1.00
N277   N     0.16667   0.74999   0.12623   0.00000  Uiso   1.00
N278   N     0.16667   0.75001   0.37376   0.00000  Uiso   1.00
O279   O     0.16667   0.68454   0.28974   0.00000  Uiso   1.00
O280   O     0.16666   0.81547   0.21026   0.00000  Uiso   1.00
O281   O     0.16667   0.68453   0.21026   0.00000  Uiso   1.00
O282   O     0.16666   0.81547   0.28974   0.00000  Uiso   1.00
O283   O     0.09058   0.75000   0.28044   0.00000  Uiso   1.00
O284   O     0.24275   0.75000   0.21955   0.00000  Uiso   1.00
O285   O     0.09058   0.75000   0.20096   0.00000  Uiso   1.00
O286   O     0.24275   0.75001   0.29903   0.00000  Uiso   1.00
Zn287  Zn    0.16667   0.75001   0.30307   0.00000  Uiso   1.00
Zn288  Zn    0.16667   0.75000   0.19693   0.00000  Uiso   1.00
O289   O     0.10049   0.53113   0.32176   0.00000  Uiso   1.00
C290   C     0.04655   0.52007   0.30968   0.00000  Uiso   1.00
H291   H     0.03618   0.99764   0.33826   0.00000  Uiso   1.00
H292   H     0.03842   0.50031   0.27623   0.00000  Uiso   1.00
C293   C     0.01145   0.56211   0.30739   0.00000  Uiso   1.00
H294   H     0.02128   0.58161   0.34099   0.00000  Uiso   1.00
H295   H     0.01864   0.58389   0.27711   0.00000  Uiso   1.00
C296   C     0.28650   0.54954   0.30065   0.00000  Uiso   1.00
H297   H     0.27540   0.53114   0.26657   0.00000  Uiso   1.00
H298   H     0.26239   0.58061   0.29961   0.00000  Uiso   1.00
H299   H     0.27774   0.52813   0.33065   0.00000  Uiso   1.00
O300   O     0.09065   0.96752   0.16461   0.00000  Uiso   1.00
C301   C     0.03849   0.98041   0.16870   0.00000  Uiso   1.00
H302   H     0.02265   0.99866   0.13540   0.00000  Uiso   1.00
H303   H     0.03723   0.50484   0.19799   0.00000  Uiso   1.00
C304   C     0.00263   0.93961   0.17356   0.00000  Uiso   1.00
H305   H     0.00527   0.91560   0.14398   0.00000  Uiso   1.00
H306   H     0.01559   0.92206   0.20796   0.00000  Uiso   1.00
C307   C     0.27873   0.95392   0.17216   0.00000  Uiso   1.00
H308   H     0.27510   0.97744   0.20187   0.00000  Uiso   1.00
H309   H     0.25399   0.92382   0.17602   0.00000  Uiso   1.00
H310   H     0.26394   0.97063   0.13768   0.00000  Uiso   1.00
H311   H     0.09396   0.71536   0.11181   0.00000  Uiso   1.00
H312   H     0.20826   0.81169   0.38398   0.00000  Uiso   1.00
C313   C     0.49853   0.66361   0.24986   0.00000  Uiso   1.00
C314   C     0.49886   0.83636   0.24981   0.00000  Uiso   1.00
C315   C     0.45846   0.73038   0.04702   0.00000  Uiso   1.00
C316   C     0.52352   0.78520   0.45053   0.00000  Uiso   1.00
C317   C     0.45937   0.73061   0.09676   0.00000  Uiso   1.00
C318   C     0.52326   0.78447   0.40088   0.00000  Uiso   1.00
C319   C     0.54058   0.76941   0.10770   0.00000  Uiso   1.00
C320   C     0.47664   0.71558   0.39462   0.00000  Uiso   1.00
C321   C     0.54143   0.76964   0.05820   0.00000  Uiso   1.00
C322   C     0.47631   0.71485   0.44420   0.00000  Uiso   1.00
C323   C     0.49993   0.75001   0.02667   0.00000  Uiso   1.00
C324   C     0.49991   0.75002   0.47330   0.00000  Uiso   1.00
C325   C     0.40034   0.74998   0.23753   0.00000  Uiso   1.00
C326   C     0.59966   0.74998   0.26246   0.00000  Uiso   1.00
C327   C     0.34530   0.74998   0.23078   0.00000  Uiso   1.00
C328   C     0.65470   0.74991   0.26920   0.00000  Uiso   1.00
C329   C     0.45291   0.55025   0.28310   0.00000  Uiso   1.00
C330   C     0.44902   0.94917   0.20704   0.00000  Uiso   1.00
C331   C     0.46545   0.59571   0.28503   0.00000  Uiso   1.00
C332   C     0.46191   0.90382   0.20757   0.00000  Uiso   1.00
C333   C     0.48892   0.61571   0.24870   0.00000  Uiso   1.00
C334   C     0.48979   0.88422   0.24865   0.00000  Uiso   1.00
C335   C     0.49997   0.59034   0.21002   0.00000  Uiso   1.00
C336   C     0.50537   0.90983   0.28953   0.00000  Uiso   1.00
C337   C     0.48966   0.54469   0.20864   0.00000  Uiso   1.00
C338   C     0.49496   0.95541   0.28878   0.00000  Uiso   1.00
C339   C     0.46709   0.52427   0.24534   0.00000  Uiso   1.00
C340   C     0.46747   0.97547   0.24764   0.00000  Uiso   1.00
H341   H     0.65799   0.75007   0.19434   0.00000  Uiso   1.00
H342   H     0.34202   0.74980   0.30564   0.00000  Uiso   1.00
H343   H     0.45623   0.61537   0.31486   0.00000  Uiso   1.00
H344   H     0.44907   0.88377   0.17604   0.00000  Uiso   1.00
H345   H     0.51803   0.60551   0.18168   0.00000  Uiso   1.00
H346   H     0.52688   0.89484   0.32151   0.00000  Uiso   1.00
H347   H     0.50195   0.52493   0.18017   0.00000  Uiso   1.00
H348   H     0.51069   0.97537   0.31962   0.00000  Uiso   1.00
H349   H     0.42502   0.71545   0.02476   0.00000  Uiso   1.00
H350   H     0.54149   0.81358   0.47068   0.00000  Uiso   1.00
H351   H     0.57265   0.78474   0.13135   0.00000  Uiso   1.00
H352   H     0.45826   0.68840   0.37280   0.00000  Uiso   1.00
H353   H     0.57485   0.78459   0.04497   0.00000  Uiso   1.00
H354   H     0.45828   0.68649   0.45953   0.00000  Uiso   1.00
N355   N     0.50000   0.74999   0.12623   0.00000  Uiso   1.00
N356   N     0.50000   0.75001   0.37376   0.00000  Uiso   1.00
O357   O     0.50000   0.68454   0.28974   0.00000  Uiso   1.00
O358   O     0.50000   0.81547   0.21026   0.00000  Uiso   1.00
O359   O     0.50000   0.68453   0.21026   0.00000  Uiso   1.00
O360   O     0.50000   0.81547   0.28974   0.00000  Uiso   1.00
O361   O     0.42392   0.75000   0.28044   0.00000  Uiso   1.00
O362   O     0.57608   0.75000   0.21955   0.00000  Uiso   1.00
O363   O     0.42392   0.75000   0.20096   0.00000  Uiso   1.00
O364   O     0.57608   0.75001   0.29903   0.00000  Uiso   1.00
Zn365  Zn    0.50000   0.75001   0.30307   0.00000  Uiso   1.00
Zn366  Zn    0.50000   0.75000   0.19693   0.00000  Uiso   1.00
O367   O     0.43382   0.53113   0.32176   0.00000  Uiso   1.00
C368   C     0.37989   0.52007   0.30968   0.00000  Uiso   1.00
H369   H     0.36951   0.99764   0.33826   0.00000  Uiso   1.00
H370   H     0.37176   0.50031   0.27623   0.00000  Uiso   1.00
C371   C     0.34478   0.56211   0.30739   0.00000  Uiso   1.00
H372   H     0.35461   0.58161   0.34099   0.00000  Uiso   1.00
H373   H     0.35198   0.58389   0.27711   0.00000  Uiso   1.00
C374   C     0.61984   0.54954   0.30065   0.00000  Uiso   1.00
H375   H     0.60873   0.53114   0.26657   0.00000  Uiso   1.00
H376   H     0.59572   0.58061   0.29961   0.00000  Uiso   1.00
H377   H     0.61107   0.52813   0.33065   0.00000  Uiso   1.00
O378   O     0.42398   0.96752   0.16461   0.00000  Uiso   1.00
C379   C     0.37182   0.98041   0.16870   0.00000  Uiso   1.00
H380   H     0.35598   0.99866   0.13540   0.00000  Uiso   1.00
H381   H     0.37057   0.50484   0.19799   0.00000  Uiso   1.00
C382   C     0.33597   0.93961   0.17356   0.00000  Uiso   1.00
H383   H     0.33860   0.91560   0.14398   0.00000  Uiso   1.00
H384   H     0.34893   0.92206   0.20796   0.00000  Uiso   1.00
C385   C     0.61206   0.95392   0.17216   0.00000  Uiso   1.00
H386   H     0.60844   0.97744   0.20187   0.00000  Uiso   1.00
H387   H     0.58732   0.92382   0.17602   0.00000  Uiso   1.00
H388   H     0.59728   0.97063   0.13768   0.00000  Uiso   1.00
H389   H     0.42730   0.71536   0.11181   0.00000  Uiso   1.00
H390   H     0.54159   0.81169   0.38398   0.00000  Uiso   1.00
C391   C     0.83186   0.66361   0.24986   0.00000  Uiso   1.00
C392   C     0.83219   0.83636   0.24981   0.00000  Uiso   1.00
C393   C     0.79180   0.73038   0.04702   0.00000  Uiso   1.00
C394   C     0.85685   0.78520   0.45053   0.00000  Uiso   1.00
C395   C     0.79270   0.73061   0.09676   0.00000  Uiso   1.00
C396   C     0.85659   0.78447   0.40088   0.00000  Uiso   1.00
C397   C     0.87392   0.76941   0.10770   0.00000  Uiso   1.00
C398   C     0.80997   0.71558   0.39462   0.00000  Uiso   1.00
C399   C     0.87476   0.76964   0.05820   0.00000  Uiso   1.00
C400   C     0.80964   0.71485   0.44420   0.00000  Uiso   1.00
C401   C     0.83327   0.75001   0.02667   0.00000  Uiso   1.00
C402   C     0.83325   0.75002   0.47330   0.00000  Uiso   1.00
C403   C     0.73367   0.74998   0.23753   0.00000  Uiso   1.00
C404   C     0.93299   0.74998   0.26246   0.00000  Uiso   1.00
C405   C     0.67864   0.74998   0.23078   0.00000  Uiso   1.00
C406   C     0.98803   0.74991   0.26920   0.00000  Uiso   1.00
C407   C     0.78625   0.55025   0.28310   0.00000  Uiso   1.00
C408   C     0.78235   0.94917   0.20704   0.00000  Uiso   1.00
C409   C     0.79878   0.59571   0.28503   0.00000  Uiso   1.00
C410   C     0.79525   0.90382   0.20757   0.00000  Uiso   1.00
C411   C     0.82226   0.61571   0.24870   0.00000  Uiso   1.00
C412   C     0.82312   0.88422   0.24865   0.00000  Uiso   1.00
C413   C     0.83330   0.59034   0.21002   0.00000  Uiso   1.00
C414   C     0.83870   0.90983   0.28953   0.00000  Uiso   1.00
C415   C     0.82299   0.54469   0.20864   0.00000  Uiso   1.00
C416   C     0.82829   0.95541   0.28878   0.00000  Uiso   1.00
C417   C     0.80042   0.52427   0.24534   0.00000  Uiso   1.00
C418   C     0.80081   0.97547   0.24764   0.00000  Uiso   1.00
H419   H     0.99132   0.75007   0.19434   0.00000  Uiso   1.00
H420   H     0.67535   0.74980   0.30564   0.00000  Uiso   1.00
H421   H     0.78956   0.61537   0.31486   0.00000  Uiso   1.00
H422   H     0.78241   0.88377   0.17604   0.00000  Uiso   1.00
H423   H     0.85137   0.60551   0.18168   0.00000  Uiso   1.00
H424   H     0.86021   0.89484   0.32151   0.00000  Uiso   1.00
H425   H     0.83528   0.52493   0.18017   0.00000  Uiso   1.00
H426   H     0.84402   0.97537   0.31962   0.00000  Uiso   1.00
H427   H     0.75835   0.71545   0.02476   0.00000  Uiso   1.00
H428   H     0.87482   0.81358   0.47068   0.00000  Uiso   1.00
H429   H     0.90598   0.78474   0.13135   0.00000  Uiso   1.00
H430   H     0.79159   0.68840   0.37280   0.00000  Uiso   1.00
H431   H     0.90818   0.78459   0.04497   0.00000  Uiso   1.00
H432   H     0.79161   0.68649   0.45953   0.00000  Uiso   1.00
N433   N     0.83333   0.74999   0.12623   0.00000  Uiso   1.00
N434   N     0.83333   0.75001   0.37376   0.00000  Uiso   1.00
O435   O     0.83334   0.68454   0.28974   0.00000  Uiso   1.00
O436   O     0.83333   0.81547   0.21026   0.00000  Uiso   1.00
O437   O     0.83334   0.68453   0.21026   0.00000  Uiso   1.00
O438   O     0.83333   0.81547   0.28974   0.00000  Uiso   1.00
O439   O     0.75725   0.75000   0.28044   0.00000  Uiso   1.00
O440   O     0.90942   0.75000   0.21955   0.00000  Uiso   1.00
O441   O     0.75725   0.75000   0.20096   0.00000  Uiso   1.00
O442   O     0.90942   0.75001   0.29903   0.00000  Uiso   1.00
Zn443  Zn    0.83333   0.75001   0.30307   0.00000  Uiso   1.00
Zn444  Zn    0.83333   0.75000   0.19693   0.00000  Uiso   1.00
O445   O     0.76715   0.53113   0.32176   0.00000  Uiso   1.00
C446   C     0.71322   0.52007   0.30968   0.00000  Uiso   1.00
H447   H     0.70284   0.99764   0.33826   0.00000  Uiso   1.00
H448   H     0.70509   0.50031   0.27623   0.00000  Uiso   1.00
C449   C     0.67812   0.56211   0.30739   0.00000  Uiso   1.00
H450   H     0.68795   0.58161   0.34099   0.00000  Uiso   1.00
H451   H     0.68531   0.58389   0.27711   0.00000  Uiso   1.00
C452   C     0.95317   0.54954   0.30065   0.00000  Uiso   1.00
H453   H     0.94206   0.53114   0.26657   0.00000  Uiso   1.00
H454   H     0.92905   0.58061   0.29961   0.00000  Uiso   1.00
H455   H     0.94440   0.52813   0.33065   0.00000  Uiso   1.00
O456   O     0.75731   0.96752   0.16461   0.00000  Uiso   1.00
C457   C     0.70516   0.98041   0.16870   0.00000  Uiso   1.00
H458   H     0.68931   0.99866   0.13540   0.00000  Uiso   1.00
H459   H     0.70390   0.50484   0.19799   0.00000  Uiso   1.00
C460   C     0.66930   0.93961   0.17356   0.00000  Uiso   1.00
H461   H     0.67193   0.91560   0.14398   0.00000  Uiso   1.00
H462   H     0.68226   0.92206   0.20796   0.00000  Uiso   1.00
C463   C     0.94540   0.95392   0.17216   0.00000  Uiso   1.00
H464   H     0.94177   0.97744   0.20187   0.00000  Uiso   1.00
H465   H     0.92066   0.92382   0.17602   0.00000  Uiso   1.00
H466   H     0.93061   0.97063   0.13768   0.00000  Uiso   1.00
H467   H     0.76063   0.71536   0.11181   0.00000  Uiso   1.00
H468   H     0.87493   0.81169   0.38398   0.00000  Uiso   1.00
C469   C     0.16520   0.16361   0.74986   0.00000  Uiso   1.00
C470   C     0.16552   0.33636   0.74981   0.00000  Uiso   1.00
C471   C     0.12513   0.23038   0.54702   0.00000  Uiso   1.00
C472   C     0.19018   0.28520   0.95053   0.00000  Uiso   1.00
C473   C     0.12603   0.23061   0.59676   0.00000  Uiso   1.00
C474   C     0.18992   0.28447   0.90088   0.00000  Uiso   1.00
C475   C     0.20725   0.26941   0.60770   0.00000  Uiso   1.00
C476   C     0.14331   0.21558   0.89462   0.00000  Uiso   1.00
C477   C     0.20809   0.26964   0.55820   0.00000  Uiso   1.00
C478   C     0.14297   0.21485   0.94420   0.00000  Uiso   1.00
C479   C     0.16660   0.25001   0.52667   0.00000  Uiso   1.00
C480   C     0.16658   0.25002   0.97330   0.00000  Uiso   1.00
C481   C     0.06700   0.24998   0.73753   0.00000  Uiso   1.00
C482   C     0.26633   0.24998   0.76246   0.00000  Uiso   1.00
C483   C     0.01197   0.24998   0.73078   0.00000  Uiso   1.00
C484   C     0.32136   0.24991   0.76920   0.00000  Uiso   1.00
C485   C     0.11958   0.05025   0.78310   0.00000  Uiso   1.00
C486   C     0.11568   0.44917   0.70704   0.00000  Uiso   1.00
C487   C     0.13211   0.09571   0.78503   0.00000  Uiso   1.00
C488   C     0.12858   0.40382   0.70757   0.00000  Uiso   1.00
C489   C     0.15559   0.11571   0.74870   0.00000  Uiso   1.00
C490   C     0.15645   0.38422   0.74865   0.00000  Uiso   1.00
C491   C     0.16664   0.09034   0.71002   0.00000  Uiso   1.00
C492   C     0.17203   0.40983   0.78953   0.00000  Uiso   1.00
C493   C     0.15633   0.04469   0.70864   0.00000  Uiso   1.00
C494   C     0.16162   0.45541   0.78878   0.00000  Uiso   1.00
C495   C     0.13376   0.02427   0.74534   0.00000  Uiso   1.00
C496   C     0.13414   0.47547   0.74764   0.00000  Uiso   1.00
H497   H     0.32466   0.25007   0.69434   0.00000  Uiso   1.00
H498   H     0.00868   0.24980   0.80564   0.00000  Uiso   1.00
H499   H     0.12290   0.11537   0.81486   0.00000  Uiso   1.00
H500   H     0.11574   0.38377   0.67604   0.00000  Uiso   1.00
H501   H     0.18470   0.10551   0.68168   0.00000  Uiso   1.00
H502   H     0.19354   0.39484   0.82151   0.00000  Uiso   1.00
H503   H     0.16862   0.02493   0.68017   0.00000  Uiso   1.00
H504   H     0.17736   0.47537   0.81962   0.00000  Uiso   1.00
H505   H     0.09168   0.21545   0.52476   0.00000  Uiso   1.00
H506   H     0.20815   0.31358   0.97068   0.00000  Uiso   1.00
H507   H     0.23932   0.28474   0.63135   0.00000  Uiso   1.00
H508   H     0.12492   0.18840   0.87280   0.00000  Uiso   1.00
H509   H     0.24151   0.28459   0.54497   0.00000  Uiso   1.00
H510   H     0.12495   0.18649   0.95953   0.00000  Uiso   1.00
N511   N     0.16667   0.24999   0.62623   0.00000  Uiso   1.00
N512   N     0.16667   0.25001   0.87376   0.00000  Uiso   1.00
O513   O     0.16667   0.18454   0.78974   0.00000  Uiso   1.00
O514   O     0.16666   0.31547   0.71026   0.00000  Uiso   1.00
O515   O     0.16667   0.18453   0.71026   0.00000  Uiso   1.00
O516   O     0.16666   0.31547   0.78974   0.00000  Uiso   1.00
O517   O     0.09058   0.25000   0.78044   0.00000  Uiso   1.00
O518   O     0.24275   0.25000   0.71955   0.00000  Uiso   1.00
O519   O     0.09058   0.25000   0.70096   0.00000  Uiso   1.00
O520   O     0.24275   0.25001   0.79903   0.00000  Uiso   1.00
Zn521  Zn    0.16667   0.25001   0.80307   0.00000  Uiso   1.00
Zn522  Zn    0.16667   0.25000   0.69693   0.00000  Uiso   1.00
O523   O     0.10049   0.03113   0.82176   0.00000  Uiso   1.00
C524   C     0.04655   0.02007   0.80968   0.00000  Uiso   1.00
H525   H     0.03618   0.49764   0.83826   0.00000  Uiso   1.00
H526   H     0.03842   0.00031   0.77623   0.00000  Uiso   1.00
C527   C     0.01145   0.06211   0.80739   0.00000  Uiso   1.00
H528   H     0.02128   0.08161   0.84099   0.00000  Uiso   1.00
H529   H     0.01864   0.08389   0.77711   0.00000  Uiso   1.00
C530   C     0.28650   0.04954   0.80065   0.00000  Uiso   1.00
H531   H     0.27540   0.03114   0.76657   0.00000  Uiso   1.00
H532   H     0.26239   0.08061   0.79961   0.00000  Uiso   1.00
H533   H     0.27774   0.02813   0.83065   0.00000  Uiso   1.00
O534   O     0.09065   0.46752   0.66461   0.00000  Uiso   1.00
C535   C     0.03849   0.48041   0.66870   0.00000  Uiso   1.00
H536   H     0.02265   0.49866   0.63540   0.00000  Uiso   1.00
H537   H     0.03723   0.00484   0.69799   0.00000  Uiso   1.00
C538   C     0.00263   0.43961   0.67356   0.00000  Uiso   1.00
H539   H     0.00527   0.41560   0.64398   0.00000  Uiso   1.00
H540   H     0.01559   0.42206   0.70796   0.00000  Uiso   1.00
C541   C     0.27873   0.45392   0.67216   0.00000  Uiso   1.00
H542   H     0.27510   0.47744   0.70187   0.00000  Uiso   1.00
H543   H     0.25399   0.42382   0.67602   0.00000  Uiso   1.00
H544   H     0.26394   0.47063   0.63768   0.00000  Uiso   1.00
H545   H     0.09396   0.21536   0.61181   0.00000  Uiso   1.00
H546   H     0.20826   0.31169   0.88398   0.00000  Uiso   1.00
C547   C     0.49853   0.16361   0.74986   0.00000  Uiso   1.00
C548   C     0.49886   0.33636   0.74981   0.00000  Uiso   1.00
C549   C     0.45846   0.23038   0.54702   0.00000  Uiso   1.00
C550   C     0.52352   0.28520   0.95053   0.00000  Uiso   1.00
C551   C     0.45937   0.23061   0.59676   0.00000  Uiso   1.00
C552   C     0.52326   0.28447   0.90088   0.00000  Uiso   1.00
C553   C     0.54058   0.26941   0.60770   0.00000  Uiso   1.00
C554   C     0.47664   0.21558   0.89462   0.00000  Uiso   1.00
C555   C     0.54143   0.26964   0.55820   0.00000  Uiso   1.00
C556   C     0.47631   0.21485   0.94420   0.00000  Uiso   1.00
C557   C     0.49993   0.25001   0.52667   0.00000  Uiso   1.00
C558   C     0.49991   0.25002   0.97330   0.00000  Uiso   1.00
C559   C     0.40034   0.24998   0.73753   0.00000  Uiso   1.00
C560   C     0.59966   0.24998   0.76246   0.00000  Uiso   1.00
C561   C     0.34530   0.24998   0.73078   0.00000  Uiso   1.00
C562   C     0.65470   0.24991   0.76920   0.00000  Uiso   1.00
C563   C     0.45291   0.05025   0.78310   0.00000  Uiso   1.00
C564   C     0.44902   0.44917   0.70704   0.00000  Uiso   1.00
C565   C     0.46545   0.09571   0.78503   0.00000  Uiso   1.00
C566   C     0.46191   0.40382   0.70757   0.00000  Uiso   1.00
C567   C     0.48892   0.11571   0.74870   0.00000  Uiso   1.00
C568   C     0.48979   0.38422   0.74865   0.00000  Uiso   1.00
C569   C     0.49997   0.09034   0.71002   0.00000  Uiso   1.00
C570   C     0.50537   0.40983   0.78953   0.00000  Uiso   1.00
C571   C     0.48966   0.04469   0.70864   0.00000  Uiso   1.00
C572   C     0.49496   0.45541   0.78878   0.00000  Uiso   1.00
C573   C     0.46709   0.02427   0.74534   0.00000  Uiso   1.00
C574   C     0.46747   0.47547   0.74764   0.00000  Uiso   1.00
H575   H     0.65799   0.25007   0.69434   0.00000  Uiso   1.00
H576   H     0.34202   0.24980   0.80564   0.00000  Uiso   1.00
H577   H     0.45623   0.11537   0.81486   0.00000  Uiso   1.00
H578   H     0.44907   0.38377   0.67604   0.00000  Uiso   1.00
H579   H     0.51803   0.10551   0.68168   0.00000  Uiso   1.00
H580   H     0.52688   0.39484   0.82151   0.00000  Uiso   1.00
H581   H     0.50195   0.02493   0.68017   0.00000  Uiso   1.00
H582   H     0.51069   0.47537   0.81962   0.00000  Uiso   1.00
H583   H     0.42502   0.21545   0.52476   0.00000  Uiso   1.00
H584   H     0.54149   0.31358   0.97068   0.00000  Uiso   1.00
H585   H     0.57265   0.28474   0.63135   0.00000  Uiso   1.00
H586   H     0.45826   0.18840   0.87280   0.00000  Uiso   1.00
H587   H     0.57485   0.28459   0.54497   0.00000  Uiso   1.00
H588   H     0.45828   0.18649   0.95953   0.00000  Uiso   1.00
N589   N     0.50000   0.24999   0.62623   0.00000  Uiso   1.00
N590   N     0.50000   0.25001   0.87376   0.00000  Uiso   1.00
O591   O     0.50000   0.18454   0.78974   0.00000  Uiso   1.00
O592   O     0.50000   0.31547   0.71026   0.00000  Uiso   1.00
O593   O     0.50000   0.18453   0.71026   0.00000  Uiso   1.00
O594   O     0.50000   0.31547   0.78974   0.00000  Uiso   1.00
O595   O     0.42392   0.25000   0.78044   0.00000  Uiso   1.00
O596   O     0.57608   0.25000   0.71955   0.00000  Uiso   1.00
O597   O     0.42392   0.25000   0.70096   0.00000  Uiso   1.00
O598   O     0.57608   0.25001   0.79903   0.00000  Uiso   1.00
Zn599  Zn    0.50000   0.25001   0.80307   0.00000  Uiso   1.00
Zn600  Zn    0.50000   0.25000   0.69693   0.00000  Uiso   1.00
O601   O     0.43382   0.03113   0.82176   0.00000  Uiso   1.00
C602   C     0.37989   0.02007   0.80968   0.00000  Uiso   1.00
H603   H     0.36951   0.49764   0.83826   0.00000  Uiso   1.00
H604   H     0.37176   0.00031   0.77623   0.00000  Uiso   1.00
C605   C     0.34478   0.06211   0.80739   0.00000  Uiso   1.00
H606   H     0.35461   0.08161   0.84099   0.00000  Uiso   1.00
H607   H     0.35198   0.08389   0.77711   0.00000  Uiso   1.00
C608   C     0.61984   0.04954   0.80065   0.00000  Uiso   1.00
H609   H     0.60873   0.03114   0.76657   0.00000  Uiso   1.00
H610   H     0.59572   0.08061   0.79961   0.00000  Uiso   1.00
H611   H     0.61107   0.02813   0.83065   0.00000  Uiso   1.00
O612   O     0.42398   0.46752   0.66461   0.00000  Uiso   1.00
C613   C     0.37182   0.48041   0.66870   0.00000  Uiso   1.00
H614   H     0.35598   0.49866   0.63540   0.00000  Uiso   1.00
H615   H     0.37057   0.00484   0.69799   0.00000  Uiso   1.00
C616   C     0.33597   0.43961   0.67356   0.00000  Uiso   1.00
H617   H     0.33860   0.41560   0.64398   0.00000  Uiso   1.00
H618   H     0.34893   0.42206   0.70796   0.00000  Uiso   1.00
C619   C     0.61206   0.45392   0.67216   0.00000  Uiso   1.00
H620   H     0.60844   0.47744   0.70187   0.00000  Uiso   1.00
H621   H     0.58732   0.42382   0.67602   0.00000  Uiso   1.00
H622   H     0.59728   0.47063   0.63768   0.00000  Uiso   1.00
H623   H     0.42730   0.21536   0.61181   0.00000  Uiso   1.00
H624   H     0.54159   0.31169   0.88398   0.00000  Uiso   1.00
C625   C     0.83186   0.16361   0.74986   0.00000  Uiso   1.00
C626   C     0.83219   0.33636   0.74981   0.00000  Uiso   1.00
C627   C     0.79180   0.23038   0.54702   0.00000  Uiso   1.00
C628   C     0.85685   0.28520   0.95053   0.00000  Uiso   1.00
C629   C     0.79270   0.23061   0.59676   0.00000  Uiso   1.00
C630   C     0.85659   0.28447   0.90088   0.00000  Uiso   1.00
C631   C     0.87392   0.26941   0.60770   0.00000  Uiso   1.00
C632   C     0.80997   0.21558   0.89462   0.00000  Uiso   1.00
C633   C     0.87476   0.26964   0.55820   0.00000  Uiso   1.00
C634   C     0.80964   0.21485   0.94420   0.00000  Uiso   1.00
C635   C     0.83327   0.25001   0.52667   0.00000  Uiso   1.00
C636   C     0.83325   0.25002   0.97330   0.00000  Uiso   1.00
C637   C     0.73367   0.24998   0.73753   0.00000  Uiso   1.00
C638   C     0.93299   0.24998   0.76246   0.00000  Uiso   1.00
C639   C     0.67864   0.24998   0.73078   0.00000  Uiso   1.00
C640   C     0.98803   0.24991   0.76920   0.00000  Uiso   1.00
C641   C     0.78625   0.05025   0.78310   0.00000  Uiso   1.00
C642   C     0.78235   0.44917   0.70704   0.00000  Uiso   1.00
C643   C     0.79878   0.09571   0.78503   0.00000  Uiso   1.00
C644   C     0.79525   0.40382   0.70757   0.00000  Uiso   1.00
C645   C     0.82226   0.11571   0.74870   0.00000  Uiso   1.00
C646   C     0.82312   0.38422   0.74865   0.00000  Uiso   1.00
C647   C     0.83330   0.09034   0.71002   0.00000  Uiso   1.00
C648   C     0.83870   0.40983   0.78953   0.00000  Uiso   1.00
C649   C     0.82299   0.04469   0.70864   0.00000  Uiso   1.00
C650   C     0.82829   0.45541   0.78878   0.00000  Uiso   1.00
C651   C     0.80042   0.02427   0.74534   0.00000  Uiso   1.00
C652   C     0.80081   0.47547   0.74764   0.00000  Uiso   1.00
H653   H     0.99132   0.25007   0.69434   0.00000  Uiso   1.00
H654   H     0.67535   0.24980   0.80564   0.00000  Uiso   1.00
H655   H     0.78956   0.11537   0.81486   0.00000  Uiso   1.00
H656   H     0.78241   0.38377   0.67604   0.00000  Uiso   1.00
H657   H     0.85137   0.10551   0.68168   0.00000  Uiso   1.00
H658   H     0.86021   0.39484   0.82151   0.00000  Uiso   1.00
H659   H     0.83528   0.02493   0.68017   0.00000  Uiso   1.00
H660   H     0.84402   0.47537   0.81962   0.00000  Uiso   1.00
H661   H     0.75835   0.21545   0.52476   0.00000  Uiso   1.00
H662   H     0.87482   0.31358   0.97068   0.00000  Uiso   1.00
H663   H     0.90598   0.28474   0.63135   0.00000  Uiso   1.00
H664   H     0.79159   0.18840   0.87280   0.00000  Uiso   1.00
H665   H     0.90818   0.28459   0.54497   0.00000  Uiso   1.00
H666   H     0.79161   0.18649   0.95953   0.00000  Uiso   1.00
N667   N     0.83333   0.24999   0.62623   0.00000  Uiso   1.00
N668   N     0.83333   0.25001   0.87376   0.00000  Uiso   1.00
O669   O     0.83334   0.18454   0.78974   0.00000  Uiso   1.00
O670   O     0.83333   0.31547   0.71026   0.00000  Uiso   1.00
O671   O     0.83334   0.18453   0.71026   0.00000  Uiso   1.00
O672   O     0.83333   0.31547   0.78974   0.00000  Uiso   1.00
O673   O     0.75725   0.25000   0.78044   0.00000  Uiso   1.00
O674   O     0.90942   0.25000   0.71955   0.00000  Uiso   1.00
O675   O     0.75725   0.25000   0.70096   0.00000  Uiso   1.00
O676   O     0.90942   0.25001   0.79903   0.00000  Uiso   1.00
Zn677  Zn    0.83333   0.25001   0.80307   0.00000  Uiso   1.00
Zn678  Zn    0.83333   0.25000   0.69693   0.00000  Uiso   1.00
O679   O     0.76715   0.03113   0.82176   0.00000  Uiso   1.00
C680   C     0.71322   0.02007   0.80968   0.00000  Uiso   1.00
H681   H     0.70284   0.49764   0.83826   0.00000  Uiso   1.00
H682   H     0.70509   0.00031   0.77623   0.00000  Uiso   1.00
C683   C     0.67812   0.06211   0.80739   0.00000  Uiso   1.00
H684   H     0.68795   0.08161   0.84099   0.00000  Uiso   1.00
H685   H     0.68531   0.08389   0.77711   0.00000  Uiso   1.00
C686   C     0.95317   0.04954   0.80065   0.00000  Uiso   1.00
H687   H     0.94206   0.03114   0.76657   0.00000  Uiso   1.00
H688   H     0.92905   0.08061   0.79961   0.00000  Uiso   1.00
H689   H     0.94440   0.02813   0.83065   0.00000  Uiso   1.00
O690   O     0.75731   0.46752   0.66461   0.00000  Uiso   1.00
C691   C     0.70516   0.48041   0.66870   0.00000  Uiso   1.00
H692   H     0.68931   0.49866   0.63540   0.00000  Uiso   1.00
H693   H     0.70390   0.00484   0.69799   0.00000  Uiso   1.00
C694   C     0.66930   0.43961   0.67356   0.00000  Uiso   1.00
H695   H     0.67193   0.41560   0.64398   0.00000  Uiso   1.00
H696   H     0.68226   0.42206   0.70796   0.00000  Uiso   1.00
C697   C     0.94540   0.45392   0.67216   0.00000  Uiso   1.00
H698   H     0.94177   0.47744   0.70187   0.00000  Uiso   1.00
H699   H     0.92066   0.42382   0.67602   0.00000  Uiso   1.00
H700   H     0.93061   0.47063   0.63768   0.00000  Uiso   1.00
H701   H     0.76063   0.21536   0.61181   0.00000  Uiso   1.00
H702   H     0.87493   0.31169   0.88398   0.00000  Uiso   1.00
C703   C     0.16520   0.66361   0.74986   0.00000  Uiso   1.00
C704   C     0.16552   0.83636   0.74981   0.00000  Uiso   1.00
C705   C     0.12513   0.73038   0.54702   0.00000  Uiso   1.00
C706   C     0.19018   0.78520   0.95053   0.00000  Uiso   1.00
C707   C     0.12603   0.73061   0.59676   0.00000  Uiso   1.00
C708   C     0.18992   0.78447   0.90088   0.00000  Uiso   1.00
C709   C     0.20725   0.76941   0.60770   0.00000  Uiso   1.00
C710   C     0.14331   0.71558   0.89462   0.00000  Uiso   1.00
C711   C     0.20809   0.76964   0.55820   0.00000  Uiso   1.00
C712   C     0.14297   0.71485   0.94420   0.00000  Uiso   1.00
C713   C     0.16660   0.75001   0.52667   0.00000  Uiso   1.00
C714   C     0.16658   0.75002   0.97330   0.00000  Uiso   1.00
C715   C     0.06700   0.74998   0.73753   0.00000  Uiso   1.00
C716   C     0.26633   0.74998   0.76246   0.00000  Uiso   1.00
C717   C     0.01197   0.74998   0.73078   0.00000  Uiso   1.00
C718   C     0.32136   0.74991   0.76920   0.00000  Uiso   1.00
C719   C     0.11958   0.55025   0.78310   0.00000  Uiso   1.00
C720   C     0.11568   0.94917   0.70704   0.00000  Uiso   1.00
C721   C     0.13211   0.59571   0.78503   0.00000  Uiso   1.00
C722   C     0.12858   0.90382   0.70757   0.00000  Uiso   1.00
C723   C     0.15559   0.61571   0.74870   0.00000  Uiso   1.00
C724   C     0.15645   0.88422   0.74865   0.00000  Uiso   1.00
C725   C     0.16664   0.59034   0.71002   0.00000  Uiso   1.00
C726   C     0.17203   0.90983   0.78953   0.00000  Uiso   1.00
C727   C     0.15633   0.54469   0.70864   0.00000  Uiso   1.00
C728   C     0.16162   0.95541   0.78878   0.00000  Uiso   1.00
C729   C     0.13376   0.52427   0.74534   0.00000  Uiso   1.00
C730   C     0.13414   0.97547   0.74764   0.00000  Uiso   1.00
H731   H     0.32466   0.75007   0.69434   0.00000  Uiso   1.00
H732   H     0.00868   0.74980   0.80564   0.00000  Uiso   1.00
H733   H     0.12290   0.61537   0.81486   0.00000  Uiso   1.00
H734   H     0.11574   0.88377   0.67604   0.00000  Uiso   1.00
H735   H     0.18470   0.60551   0.68168   0.00000  Uiso   1.00
H736   H     0.19354   0.89484   0.82151   0.00000  Uiso   1.00
H737   H     0.16862   0.52493   0.68017   0.00000  Uiso   1.00
H738   H     0.17736   0.97537   0.81962   0.00000  Uiso   1.00
H739   H     0.09168   0.71545   0.52476   0.00000  Uiso   1.00
H740   H     0.20815   0.81358   0.97068   0.00000  Uiso   1.00
H741   H     0.23932   0.78474   0.63135   0.00000  Uiso   1.00
H742   H     0.12492   0.68840   0.87280   0.00000  Uiso   1.00
H743   H     0.24151   0.78459   0.54497   0.00000  Uiso   1.00
H744   H     0.12495   0.68649   0.95953   0.00000  Uiso   1.00
N745   N     0.16667   0.74999   0.62623   0.00000  Uiso   1.00
N746   N     0.16667   0.75001   0.87376   0.00000  Uiso   1.00
O747   O     0.16667   0.68454   0.78974   0.00000  Uiso   1.00
O748   O     0.16666   0.81547   0.71026   0.00000  Uiso   1.00
O749   O     0.16667   0.68453   0.71026   0.00000  Uiso   1.00
O750   O     0.16666   0.81547   0.78974   0.00000  Uiso   1.00
O751   O     0.09058   0.75000   0.78044   0.00000  Uiso   1.00
O752   O     0.24275   0.75000   0.71955   0.00000  Uiso   1.00
O753   O     0.09058   0.75000   0.70096   0.00000  Uiso   1.00
O754   O     0.24275   0.75001   0.79903   0.00000  Uiso   1.00
Zn755  Zn    0.16667   0.75001   0.80307   0.00000  Uiso   1.00
Zn756  Zn    0.16667   0.75000   0.69693   0.00000  Uiso   1.00
O757   O     0.10049   0.53113   0.82176   0.00000  Uiso   1.00
C758   C     0.04655   0.52007   0.80968   0.00000  Uiso   1.00
H759   H     0.03618   0.99764   0.83826   0.00000  Uiso   1.00
H760   H     0.03842   0.50031   0.77623   0.00000  Uiso   1.00
C761   C     0.01145   0.56211   0.80739   0.00000  Uiso   1.00
H762   H     0.02128   0.58161   0.84099   0.00000  Uiso   1.00
H763   H     0.01864   0.58389   0.77711   0.00000  Uiso   1.00
C764   C     0.28650   0.54954   0.80065   0.00000  Uiso   1.00
H765   H     0.27540   0.53114   0.76657   0.00000  Uiso   1.00
H766   H     0.26239   0.58061   0.79961   0.00000  Uiso   1.00
H767   H     0.27774   0.52813   0.83065   0.00000  Uiso   1.00
O768   O     0.09065   0.96752   0.66461   0.00000  Uiso   1.00
C769   C     0.03849   0.98041   0.66870   0.00000  Uiso   1.00
H770   H     0.02265   0.99866   0.63540   0.00000  Uiso   1.00
H771   H     0.03723   0.50484   0.69799   0.00000  Uiso   1.00
C772   C     0.00263   0.93961   0.67356   0.00000  Uiso   1.00
H773   H     0.00527   0.91560   0.64398   0.00000  Uiso   1.00
H774   H     0.01559   0.92206   0.70796   0.00000  Uiso   1.00
C775   C     0.27873   0.95392   0.67216   0.00000  Uiso   1.00
H776   H     0.27510   0.97744   0.70187   0.00000  Uiso   1.00
H777   H     0.25399   0.92382   0.67602   0.00000  Uiso   1.00
H778   H     0.26394   0.97063   0.63768   0.00000  Uiso   1.00
H779   H     0.09396   0.71536   0.61181   0.00000  Uiso   1.00
H780   H     0.20826   0.81169   0.88398   0.00000  Uiso   1.00
C781   C     0.49853   0.66361   0.74986   0.00000  Uiso   1.00
C782   C     0.49886   0.83636   0.74981   0.00000  Uiso   1.00
C783   C     0.45846   0.73038   0.54702   0.00000  Uiso   1.00
C784   C     0.52352   0.78520   0.95053   0.00000  Uiso   1.00
C785   C     0.45937   0.73061   0.59676   0.00000  Uiso   1.00
C786   C     0.52326   0.78447   0.90088   0.00000  Uiso   1.00
C787   C     0.54058   0.76941   0.60770   0.00000  Uiso   1.00
C788   C     0.47664   0.71558   0.89462   0.00000  Uiso   1.00
C789   C     0.54143   0.76964   0.55820   0.00000  Uiso   1.00
C790   C     0.47631   0.71485   0.94420   0.00000  Uiso   1.00
C791   C     0.49993   0.75001   0.52667   0.00000  Uiso   1.00
C792   C     0.49991   0.75002   0.97330   0.00000  Uiso   1.00
C793   C     0.40034   0.74998   0.73753   0.00000  Uiso   1.00
C794   C     0.59966   0.74998   0.76246   0.00000  Uiso   1.00
C795   C     0.34530   0.74998   0.73078   0.00000  Uiso   1.00
C796   C     0.65470   0.74991   0.76920   0.00000  Uiso   1.00
C797   C     0.45291   0.55025   0.78310   0.00000  Uiso   1.00
C798   C     0.44902   0.94917   0.70704   0.00000  Uiso   1.00
C799   C     0.46545   0.59571   0.78503   0.00000  Uiso   1.00
C800   C     0.46191   0.90382   0.70757   0.00000  Uiso   1.00
C801   C     0.48892   0.61571   0.74870   0.00000  Uiso   1.00
C802   C     0.48979   0.88422   0.74865   0.00000  Uiso   1.00
C803   C     0.49997   0.59034   0.71002   0.00000  Uiso   1.00
C804   C     0.50537   0.90983   0.78953   0.00000  Uiso   1.00
C805   C     0.48966   0.54469   0.70864   0.00000  Uiso   1.00
C806   C     0.49496   0.95541   0.78878   0.00000  Uiso   1.00
C807   C     0.46709   0.52427   0.74534   0.00000  Uiso   1.00
C808   C     0.46747   0.97547   0.74764   0.00000  Uiso   1.00
H809   H     0.65799   0.75007   0.69434   0.00000  Uiso   1.00
H810   H     0.34202   0.74980   0.80564   0.00000  Uiso   1.00
H811   H     0.45623   0.61537   0.81486   0.00000  Uiso   1.00
H812   H     0.44907   0.88377   0.67604   0.00000  Uiso   1.00
H813   H     0.51803   0.60551   0.68168   0.00000  Uiso   1.00
H814   H     0.52688   0.89484   0.82151   0.00000  Uiso   1.00
H815   H     0.50195   0.52493   0.68017   0.00000  Uiso   1.00
H816   H     0.51069   0.97537   0.81962   0.00000  Uiso   1.00
H817   H     0.42502   0.71545   0.52476   0.00000  Uiso   1.00
H818   H     0.54149   0.81358   0.97068   0.00000  Uiso   1.00
H819   H     0.57265   0.78474   0.63135   0.00000  Uiso   1.00
H820   H     0.45826   0.68840   0.87280   0.00000  Uiso   1.00
H821   H     0.57485   0.78459   0.54497   0.00000  Uiso   1.00
H822   H     0.45828   0.68649   0.95953   0.00000  Uiso   1.00
N823   N     0.50000   0.74999   0.62623   0.00000  Uiso   1.00
N824   N     0.50000   0.75001   0.87376   0.00000  Uiso   1.00
O825   O     0.50000   0.68454   0.78974   0.00000  Uiso   1.00
O826   O     0.50000   0.81547   0.71026   0.00000  Uiso   1.00
O827   O     0.50000   0.68453   0.71026   0.00000  Uiso   1.00
O828   O     0.50000   0.81547   0.78974   0.00000  Uiso   1.00
O829   O     0.42392   0.75000   0.78044   0.00000  Uiso   1.00
O830   O     0.57608   0.75000   0.71955   0.00000  Uiso   1.00
O831   O     0.42392   0.75000   0.70096   0.00000  Uiso   1.00
O832   O     0.57608   0.75001   0.79903   0.00000  Uiso   1.00
Zn833  Zn    0.50000   0.75001   0.80307   0.00000  Uiso   1.00
Zn834  Zn    0.50000   0.75000   0.69693   0.00000  Uiso   1.00
O835   O     0.43382   0.53113   0.82176   0.00000  Uiso   1.00
C836   C     0.37989   0.52007   0.80968   0.00000  Uiso   1.00
H837   H     0.36951   0.99764   0.83826   0.00000  Uiso   1.00
H838   H     0.37176   0.50031   0.77623   0.00000  Uiso   1.00
C839   C     0.34478   0.56211   0.80739   0.00000  Uiso   1.00
H840   H     0.35461   0.58161   0.84099   0.00000  Uiso   1.00
H841   H     0.35198   0.58389   0.77711   0.00000  Uiso   1.00
C842   C     0.61984   0.54954   0.80065   0.00000  Uiso   1.00
H843   H     0.60873   0.53114   0.76657   0.00000  Uiso   1.00
H844   H     0.59572   0.58061   0.79961   0.00000  Uiso   1.00
H845   H     0.61107   0.52813   0.83065   0.00000  Uiso   1.00
O846   O     0.42398   0.96752   0.66461   0.00000  Uiso   1.00
C847   C     0.37182   0.98041   0.66870   0.00000  Uiso   1.00
H848   H     0.35598   0.99866   0.63540   0.00000  Uiso   1.00
H849   H     0.37057   0.50484   0.69799   0.00000  Uiso   1.00
C850   C     0.33597   0.93961   0.67356   0.00000  Uiso   1.00
H851   H     0.33860   0.91560   0.64398   0.00000  Uiso   1.00
H852   H     0.34893   0.92206   0.70796   0.00000  Uiso   1.00
C853   C     0.61206   0.95392   0.67216   0.00000  Uiso   1.00
H854   H     0.60844   0.97744   0.70187   0.00000  Uiso   1.00
H855   H     0.58732   0.92382   0.67602   0.00000  Uiso   1.00
H856   H     0.59728   0.97063   0.63768   0.00000  Uiso   1.00
H857   H     0.42730   0.71536   0.61181   0.00000  Uiso   1.00
H858   H     0.54159   0.81169   0.88398   0.00000  Uiso   1.00
C859   C     0.83186   0.66361   0.74986   0.00000  Uiso   1.00
C860   C     0.83219   0.83636   0.74981   0.00000  Uiso   1.00
C861   C     0.79180   0.73038   0.54702   0.00000  Uiso   1.00
C862   C     0.85685   0.78520   0.95053   0.00000  Uiso   1.00
C863   C     0.79270   0.73061   0.59676   0.00000  Uiso   1.00
C864   C     0.85659   0.78447   0.90088   0.00000  Uiso   1.00
C865   C     0.87392   0.76941   0.60770   0.00000  Uiso   1.00
C866   C     0.80997   0.71558   0.89462   0.00000  Uiso   1.00
C867   C     0.87476   0.76964   0.55820   0.00000  Uiso   1.00
C868   C     0.80964   0.71485   0.94420   0.00000  Uiso   1.00
C869   C     0.83327   0.75001   0.52667   0.00000  Uiso   1.00
C870   C     0.83325   0.75002   0.97330   0.00000  Uiso   1.00
C871   C     0.73367   0.74998   0.73753   0.00000  Uiso   1.00
C872   C     0.93299   0.74998   0.76246   0.00000  Uiso   1.00
C873   C     0.67864   0.74998   0.73078   0.00000  Uiso   1.00
C874   C     0.98803   0.74991   0.76920   0.00000  Uiso   1.00
C875   C     0.78625   0.55025   0.78310   0.00000  Uiso   1.00
C876   C     0.78235   0.94917   0.70704   0.00000  Uiso   1.00
C877   C     0.79878   0.59571   0.78503   0.00000  Uiso   1.00
C878   C     0.79525   0.90382   0.70757   0.00000  Uiso   1.00
C879   C     0.82226   0.61571   0.74870   0.00000  Uiso   1.00
C880   C     0.82312   0.88422   0.74865   0.00000  Uiso   1.00
C881   C     0.83330   0.59034   0.71002   0.00000  Uiso   1.00
C882   C     0.83870   0.90983   0.78953   0.00000  Uiso   1.00
C883   C     0.82299   0.54469   0.70864   0.00000  Uiso   1.00
C884   C     0.82829   0.95541   0.78878   0.00000  Uiso   1.00
C885   C     0.80042   0.52427   0.74534   0.00000  Uiso   1.00
C886   C     0.80081   0.97547   0.74764   0.00000  Uiso   1.00
H887   H     0.99132   0.75007   0.69434   0.00000  Uiso   1.00
H888   H     0.67535   0.74980   0.80564   0.00000  Uiso   1.00
H889   H     0.78956   0.61537   0.81486   0.00000  Uiso   1.00
H890   H     0.78241   0.88377   0.67604   0.00000  Uiso   1.00
H891   H     0.85137   0.60551   0.68168   0.00000  Uiso   1.00
H892   H     0.86021   0.89484   0.82151   0.00000  Uiso   1.00
H893   H     0.83528   0.52493   0.68017   0.00000  Uiso   1.00
H894   H     0.84402   0.97537   0.81962   0.00000  Uiso   1.00
H895   H     0.75835   0.71545   0.52476   0.00000  Uiso   1.00
H896   H     0.87482   0.81358   0.97068   0.00000  Uiso   1.00
H897   H     0.90598   0.78474   0.63135   0.00000  Uiso   1.00
H898   H     0.79159   0.68840   0.87280   0.00000  Uiso   1.00
H899   H     0.90818   0.78459   0.54497   0.00000  Uiso   1.00
H900   H     0.79161   0.68649   0.95953   0.00000  Uiso   1.00
N901   N     0.83333   0.74999   0.62623   0.00000  Uiso   1.00
N902   N     0.83333   0.75001   0.87376   0.00000  Uiso   1.00
O903   O     0.83334   0.68454   0.78974   0.00000  Uiso   1.00
O904   O     0.83333   0.81547   0.71026   0.00000  Uiso   1.00
O905   O     0.83334   0.68453   0.71026   0.00000  Uiso   1.00
O906   O     0.83333   0.81547   0.78974   0.00000  Uiso   1.00
O907   O     0.75725   0.75000   0.78044   0.00000  Uiso   1.00
O908   O     0.90942   0.75000   0.71955   0.00000  Uiso   1.00
O909   O     0.75725   0.75000   0.70096   0.00000  Uiso   1.00
O910   O     0.90942   0.75001   0.79903   0.00000  Uiso   1.00
Zn911  Zn    0.83333   0.75001   0.80307   0.00000  Uiso   1.00
Zn912  Zn    0.83333   0.75000   0.69693   0.00000  Uiso   1.00
O913   O     0.76715   0.53113   0.82176   0.00000  Uiso   1.00
C914   C     0.71322   0.52007   0.80968   0.00000  Uiso   1.00
H915   H     0.70284   0.99764   0.83826   0.00000  Uiso   1.00
H916   H     0.70509   0.50031   0.77623   0.00000  Uiso   1.00
C917   C     0.67812   0.56211   0.80739   0.00000  Uiso   1.00
H918   H     0.68795   0.58161   0.84099   0.00000  Uiso   1.00
H919   H     0.68531   0.58389   0.77711   0.00000  Uiso   1.00
C920   C     0.95317   0.54954   0.80065   0.00000  Uiso   1.00
H921   H     0.94206   0.53114   0.76657   0.00000  Uiso   1.00
H922   H     0.92905   0.58061   0.79961   0.00000  Uiso   1.00
H923   H     0.94440   0.52813   0.83065   0.00000  Uiso   1.00
O924   O     0.75731   0.96752   0.66461   0.00000  Uiso   1.00
C925   C     0.70516   0.98041   0.66870   0.00000  Uiso   1.00
H926   H     0.68931   0.99866   0.63540   0.00000  Uiso   1.00
H927   H     0.70390   0.50484   0.69799   0.00000  Uiso   1.00
C928   C     0.66930   0.93961   0.67356   0.00000  Uiso   1.00
H929   H     0.67193   0.91560   0.64398   0.00000  Uiso   1.00
H930   H     0.68226   0.92206   0.70796   0.00000  Uiso   1.00
C931   C     0.94540   0.95392   0.67216   0.00000  Uiso   1.00
H932   H     0.94177   0.97744   0.70187   0.00000  Uiso   1.00
H933   H     0.92066   0.92382   0.67602   0.00000  Uiso   1.00
H934   H     0.93061   0.97063   0.63768   0.00000  Uiso   1.00
H935   H     0.76063   0.71536   0.61181   0.00000  Uiso   1.00
H936   H     0.87493   0.81169   0.88398   0.00000  Uiso   1.00
loop_
_geom_bond_atom_site_label_1
_geom_bond_atom_site_label_2
_geom_bond_distance
_geom_bond_site_symmetry_2
_ccdc_geom_bond_type
C1     C21     1.443   .     S
C1     O47     1.287   .     A
C1     O45     1.286   .     A
C2     O46     1.286   .     A
C2     C22     1.440   .     S
C2     O48     1.286   .     A
C3     C5      1.407   .     A
C3     C11     1.411   .     A
C3     H37     1.082   .     S
C4     C12     1.411   .     A
C4     C6      1.407   .     A
C4     H38     1.082   .     S
C5     N43     1.363   .     A
C5     H77     1.082   .     S
C6     H78     1.082   .     S
C6     N44     1.363   .     A
C7     N43     1.363   .     A
C7     C9      1.407   .     A
C7     H39     1.082   .     S
C8     N44     1.363   .     A
C8     C10     1.407   .     A
C8     H40     1.082   .     S
C9     C11     1.410   .     A
C9     H41     1.082   .     S
C10    H42     1.082   .     S
C10    C12     1.411   .     A
C11    C480    1.513   1_554 S
C12    C479    1.513   .     S
C13    O51     1.277   .     A
C13    O49     1.275   .     A
C13    C15     1.399   .     S
C14    O52     1.277   .     A
C14    C16     1.399   .     S
C14    O50     1.275   .     A
C15    C172    1.329   1_455 S
C15    H185    1.088   1_455 S
C16    C93     1.329   .     S
C16    H108    1.088   .     S
C17    O55     1.387   .     S
C17    C27     1.412   .     A
C17    C19     1.386   .     A
C18    C20     1.387   .     A
C18    C28     1.413   .     A
C18    O66     1.387   .     S
C19    H31     1.084   .     S
C19    C21     1.400   .     A
C20    H32     1.084   .     S
C20    C22     1.399   .     A
C21    C23     1.395   .     A
C22    C24     1.394   .     A
C23    H33     1.083   .     S
C23    C25     1.380   .     A
C24    C26     1.380   .     A
C24    H34     1.084   .     S
C25    H35     1.083   .     S
C25    C27     1.402   .     A
C26    H36     1.083   .     S
C26    C28     1.402   .     A
C27    C262    1.450   1_545 S
C28    C261    1.450   .     S
H29    C93     1.088   .     S
H30    C172    1.088   1_455 S
N43    Zn54    2.004   .     S
N44    Zn53    2.004   .     S
O45    Zn53    1.981   .     S
O46    Zn54    1.981   .     S
O47    Zn54    1.980   .     S
O48    Zn53    1.980   .     S
O49    Zn53    1.964   .     S
O50    Zn54    1.964   .     S
O51    Zn54    1.976   .     S
O52    Zn53    1.976   .     S
O55    C56     1.415   .     S
C56    C59     1.537   .     S
C56    H58     1.109   .     S
C56    H291    1.111   1_545 S
H57    C290    1.111   .     S
C59    H60     1.111   .     S
C59    H61     1.111   .     S
C59    C218    1.527   1_455 S
C62    H64     1.110   .     S
C62    H63     1.110   .     S
C62    H65     1.111   .     S
C62    C137    1.527   .     S
O66    C67     1.416   .     S
C67    H68     1.111   .     S
C67    C70     1.539   .     S
C67    H303    1.108   .     S
H69    C301    1.108   1_545 S
C70    H71     1.111   .     S
C70    H72     1.111   .     S
C70    C229    1.527   1_455 S
C73    H74     1.110   .     S
C73    H75     1.111   .     S
C73    H76     1.111   .     S
C73    C148    1.527   .     S
C79    C99     1.443   .     S
C79    O125    1.287   .     A
C79    O123    1.286   .     A
C80    O124    1.286   .     A
C80    C100    1.440   .     S
C80    O126    1.286   .     A
C81    C83     1.407   .     A
C81    C89     1.411   .     A
C81    H115    1.082   .     S
C82    C90     1.411   .     A
C82    C84     1.407   .     A
C82    H116    1.082   .     S
C83    N121    1.363   .     A
C83    H155    1.082   .     S
C84    H156    1.082   .     S
C84    N122    1.363   .     A
C85    N121    1.363   .     A
C85    C87     1.407   .     A
C85    H117    1.082   .     S
C86    N122    1.363   .     A
C86    C88     1.407   .     A
C86    H118    1.082   .     S
C87    C89     1.410   .     A
C87    H119    1.082   .     S
C88    H120    1.082   .     S
C88    C90     1.411   .     A
C89    C558    1.513   1_554 S
C90    C557    1.513   .     S
C91    O129    1.277   .     A
C91    O127    1.275   .     A
C91    C93     1.399   .     S
C92    O130    1.277   .     A
C92    C94     1.399   .     S
C92    O128    1.275   .     A
C94    C171    1.329   .     S
C94    H186    1.088   .     S
C95    O133    1.387   .     S
C95    C105    1.412   .     A
C95    C97     1.386   .     A
C96    C98     1.387   .     A
C96    C106    1.413   .     A
C96    O144    1.387   .     S
C97    H109    1.084   .     S
C97    C99     1.400   .     A
C98    H110    1.084   .     S
C98    C100    1.399   .     A
C99    C101    1.395   .     A
C100   C102    1.394   .     A
C101   H111    1.083   .     S
C101   C103    1.380   .     A
C102   C104    1.380   .     A
C102   H112    1.084   .     S
C103   H113    1.083   .     S
C103   C105    1.402   .     A
C104   H114    1.083   .     S
C104   C106    1.402   .     A
C105   C340    1.450   1_545 S
C106   C339    1.450   .     S
H107   C171    1.088   .     S
N121   Zn132   2.004   .     S
N122   Zn131   2.004   .     S
O123   Zn131   1.981   .     S
O124   Zn132   1.981   .     S
O125   Zn132   1.980   .     S
O126   Zn131   1.980   .     S
O127   Zn131   1.964   .     S
O128   Zn132   1.964   .     S
O129   Zn132   1.976   .     S
O130   Zn131   1.976   .     S
O133   C134    1.415   .     S
C134   C137    1.537   .     S
C134   H136    1.109   .     S
C134   H369    1.111   1_545 S
H135   C368    1.111   .     S
C137   H138    1.111   .     S
C137   H139    1.111   .     S
C140   H142    1.110   .     S
C140   H141    1.110   .     S
C140   H143    1.111   .     S
C140   C215    1.527   .     S
O144   C145    1.416   .     S
C145   H146    1.111   .     S
C145   C148    1.539   .     S
C145   H381    1.108   .     S
H147   C379    1.108   1_545 S
C148   H149    1.111   .     S
C148   H150    1.111   .     S
C151   H152    1.110   .     S
C151   H153    1.111   .     S
C151   H154    1.111   .     S
C151   C226    1.527   .     S
C157   C177    1.443   .     S
C157   O203    1.287   .     A
C157   O201    1.286   .     A
C158   O202    1.286   .     A
C158   C178    1.440   .     S
C158   O204    1.286   .     A
C159   C161    1.407   .     A
C159   C167    1.411   .     A
C159   H193    1.082   .     S
C160   C168    1.411   .     A
C160   C162    1.407   .     A
C160   H194    1.082   .     S
C161   N199    1.363   .     A
C161   H233    1.082   .     S
C162   H234    1.082   .     S
C162   N200    1.363   .     A
C163   N199    1.363   .     A
C163   C165    1.407   .     A
C163   H195    1.082   .     S
C164   N200    1.363   .     A
C164   C166    1.407   .     A
C164   H196    1.082   .     S
C165   C167    1.410   .     A
C165   H197    1.082   .     S
C166   H198    1.082   .     S
C166   C168    1.411   .     A
C167   C636    1.513   1_554 S
C168   C635    1.513   .     S
C169   O207    1.277   .     A
C169   O205    1.275   .     A
C169   C171    1.399   .     S
C170   O208    1.277   .     A
C170   C172    1.399   .     S
C170   O206    1.275   .     A
C172   C15     1.329   1_655 S
C172   H30     1.088   1_655 S
C173   O211    1.387   .     S
C173   C183    1.412   .     A
C173   C175    1.386   .     A
C174   C176    1.387   .     A
C174   C184    1.413   .     A
C174   O222    1.387   .     S
C175   H187    1.084   .     S
C175   C177    1.400   .     A
C176   H188    1.084   .     S
C176   C178    1.399   .     A
C177   C179    1.395   .     A
C178   C180    1.394   .     A
C179   H189    1.083   .     S
C179   C181    1.380   .     A
C180   C182    1.380   .     A
C180   H190    1.084   .     S
C181   H191    1.083   .     S
C181   C183    1.402   .     A
C182   H192    1.083   .     S
C182   C184    1.402   .     A
C183   C418    1.450   1_545 S
C184   C417    1.450   .     S
H185   C15     1.088   1_655 S
N199   Zn210   2.004   .     S
N200   Zn209   2.004   .     S
O201   Zn209   1.981   .     S
O202   Zn210   1.981   .     S
O203   Zn210   1.980   .     S
O204   Zn209   1.980   .     S
O205   Zn209   1.964   .     S
O206   Zn210   1.964   .     S
O207   Zn210   1.976   .     S
O208   Zn209   1.976   .     S
O211   C212    1.415   .     S
C212   C215    1.537   .     S
C212   H214    1.109   .     S
C212   H447    1.111   1_545 S
H213   C446    1.111   .     S
C215   H216    1.111   .     S
C215   H217    1.111   .     S
C218   H220    1.110   .     S
C218   H219    1.110   .     S
C218   H221    1.111   .     S
C218   C59     1.527   1_655 S
O222   C223    1.416   .     S
C223   H224    1.111   .     S
C223   C226    1.539   .     S
C223   H459    1.108   .     S
H225   C457    1.108   1_545 S
C226   H227    1.111   .     S
C226   H228    1.111   .     S
C229   H230    1.110   .     S
C229   H231    1.111   .     S
C229   H232    1.111   .     S
C229   C70     1.527   1_655 S
C235   C255    1.443   .     S
C235   O281    1.287   .     A
C235   O279    1.286   .     A
C236   O280    1.286   .     A
C236   C256    1.440   .     S
C236   O282    1.286   .     A
C237   C239    1.407   .     A
C237   C245    1.411   .     A
C237   H271    1.082   .     S
C238   C246    1.411   .     A
C238   C240    1.407   .     A
C238   H272    1.082   .     S
C239   N277    1.363   .     A
C239   H311    1.082   .     S
C240   H312    1.082   .     S
C240   N278    1.363   .     A
C241   N277    1.363   .     A
C241   C243    1.407   .     A
C241   H273    1.082   .     S
C242   N278    1.363   .     A
C242   C244    1.407   .     A
C242   H274    1.082   .     S
C243   C245    1.410   .     A
C243   H275    1.082   .     S
C244   H276    1.082   .     S
C244   C246    1.411   .     A
C245   C714    1.513   1_554 S
C246   C713    1.513   .     S
C247   O285    1.277   .     A
C247   O283    1.275   .     A
C247   C249    1.399   .     S
C248   O286    1.277   .     A
C248   C250    1.399   .     S
C248   O284    1.275   .     A
C249   C406    1.329   1_455 S
C249   H419    1.088   1_455 S
C250   C327    1.329   .     S
C250   H342    1.088   .     S
C251   O289    1.387   .     S
C251   C261    1.412   .     A
C251   C253    1.386   .     A
C252   C254    1.387   .     A
C252   C262    1.413   .     A
C252   O300    1.387   .     S
C253   H265    1.084   .     S
C253   C255    1.400   .     A
C254   H266    1.084   .     S
C254   C256    1.399   .     A
C255   C257    1.395   .     A
C256   C258    1.394   .     A
C257   H267    1.083   .     S
C257   C259    1.380   .     A
C258   C260    1.380   .     A
C258   H268    1.084   .     S
C259   H269    1.083   .     S
C259   C261    1.402   .     A
C260   H270    1.083   .     S
C260   C262    1.402   .     A
C262   C27     1.450   1_565 S
H263   C327    1.088   .     S
H264   C406    1.088   1_455 S
N277   Zn288   2.004   .     S
N278   Zn287   2.004   .     S
O279   Zn287   1.981   .     S
O280   Zn288   1.981   .     S
O281   Zn288   1.980   .     S
O282   Zn287   1.980   .     S
O283   Zn287   1.964   .     S
O284   Zn288   1.964   .     S
O285   Zn288   1.976   .     S
O286   Zn287   1.976   .     S
O289   C290    1.415   .     S
C290   C293    1.537   .     S
C290   H292    1.109   .     S
H291   C56     1.111   1_565 S
C293   H294    1.111   .     S
C293   H295    1.111   .     S
C293   C452    1.527   1_455 S
C296   H298    1.110   .     S
C296   H297    1.110   .     S
C296   H299    1.111   .     S
C296   C371    1.527   .     S
O300   C301    1.416   .     S
C301   H302    1.111   .     S
C301   C304    1.539   .     S
C301   H69     1.108   1_565 S
C304   H305    1.111   .     S
C304   H306    1.111   .     S
C304   C463    1.527   1_455 S
C307   H308    1.110   .     S
C307   H309    1.111   .     S
C307   H310    1.111   .     S
C307   C382    1.527   .     S
C313   C333    1.443   .     S
C313   O359    1.287   .     A
C313   O357    1.286   .     A
C314   O358    1.286   .     A
C314   C334    1.440   .     S
C314   O360    1.286   .     A
C315   C317    1.407   .     A
C315   C323    1.411   .     A
C315   H349    1.082   .     S
C316   C324    1.411   .     A
C316   C318    1.407   .     A
C316   H350    1.082   .     S
C317   N355    1.363   .     A
C317   H389    1.082   .     S
C318   H390    1.082   .     S
C318   N356    1.363   .     A
C319   N355    1.363   .     A
C319   C321    1.407   .     A
C319   H351    1.082   .     S
C320   N356    1.363   .     A
C320   C322    1.407   .     A
C320   H352    1.082   .     S
C321   C323    1.410   .     A
C321   H353    1.082   .     S
C322   H354    1.082   .     S
C322   C324    1.411   .     A
C323   C792    1.513   1_554 S
C324   C791    1.513   .     S
C325   O363    1.277   .     A
C325   O361    1.275   .     A
C325   C327    1.399   .     S
C326   O364    1.277   .     A
C326   C328    1.399   .     S
C326   O362    1.275   .     A
C328   C405    1.329   .     S
C328   H420    1.088   .     S
C329   O367    1.387   .     S
C329   C339    1.412   .     A
C329   C331    1.386   .     A
C330   C332    1.387   .     A
C330   C340    1.413   .     A
C330   O378    1.387   .     S
C331   H343    1.084   .     S
C331   C333    1.400   .     A
C332   H344    1.084   .     S
C332   C334    1.399   .     A
C333   C335    1.395   .     A
C334   C336    1.394   .     A
C335   H345    1.083   .     S
C335   C337    1.380   .     A
C336   C338    1.380   .     A
C336   H346    1.084   .     S
C337   H347    1.083   .     S
C337   C339    1.402   .     A
C338   H348    1.083   .     S
C338   C340    1.402   .     A
C340   C105    1.450   1_565 S
H341   C405    1.088   .     S
N355   Zn366   2.004   .     S
N356   Zn365   2.004   .     S
O357   Zn365   1.981   .     S
O358   Zn366   1.981   .     S
O359   Zn366   1.980   .     S
O360   Zn365   1.980   .     S
O361   Zn365   1.964   .     S
O362   Zn366   1.964   .     S
O363   Zn366   1.976   .     S
O364   Zn365   1.976   .     S
O367   C368    1.415   .     S
C368   C371    1.537   .     S
C368   H370    1.109   .     S
H369   C134    1.111   1_565 S
C371   H372    1.111   .     S
C371   H373    1.111   .     S
C374   H376    1.110   .     S
C374   H375    1.110   .     S
C374   H377    1.111   .     S
C374   C449    1.527   .     S
O378   C379    1.416   .     S
C379   H380    1.111   .     S
C379   C382    1.539   .     S
C379   H147    1.108   1_565 S
C382   H383    1.111   .     S
C382   H384    1.111   .     S
C385   H386    1.110   .     S
C385   H387    1.111   .     S
C385   H388    1.111   .     S
C385   C460    1.527   .     S
C391   C411    1.443   .     S
C391   O437    1.287   .     A
C391   O435    1.286   .     A
C392   O436    1.286   .     A
C392   C412    1.440   .     S
C392   O438    1.286   .     A
C393   C395    1.407   .     A
C393   C401    1.411   .     A
C393   H427    1.082   .     S
C394   C402    1.411   .     A
C394   C396    1.407   .     A
C394   H428    1.082   .     S
C395   N433    1.363   .     A
C395   H467    1.082   .     S
C396   H468    1.082   .     S
C396   N434    1.363   .     A
C397   N433    1.363   .     A
C397   C399    1.407   .     A
C397   H429    1.082   .     S
C398   N434    1.363   .     A
C398   C400    1.407   .     A
C398   H430    1.082   .     S
C399   C401    1.410   .     A
C399   H431    1.082   .     S
C400   H432    1.082   .     S
C400   C402    1.411   .     A
C401   C870    1.513   1_554 S
C402   C869    1.513   .     S
C403   O441    1.277   .     A
C403   O439    1.275   .     A
C403   C405    1.399   .     S
C404   O442    1.277   .     A
C404   C406    1.399   .     S
C404   O440    1.275   .     A
C406   C249    1.329   1_655 S
C406   H264    1.088   1_655 S
C407   O445    1.387   .     S
C407   C417    1.412   .     A
C407   C409    1.386   .     A
C408   C410    1.387   .     A
C408   C418    1.413   .     A
C408   O456    1.387   .     S
C409   H421    1.084   .     S
C409   C411    1.400   .     A
C410   H422    1.084   .     S
C410   C412    1.399   .     A
C411   C413    1.395   .     A
C412   C414    1.394   .     A
C413   H423    1.083   .     S
C413   C415    1.380   .     A
C414   C416    1.380   .     A
C414   H424    1.084   .     S
C415   H425    1.083   .     S
C415   C417    1.402   .     A
C416   H426    1.083   .     S
C416   C418    1.402   .     A
C418   C183    1.450   1_565 S
H419   C249    1.088   1_655 S
N433   Zn444   2.004   .     S
N434   Zn443   2.004   .     S
O435   Zn443   1.981   .     S
O436   Zn444   1.981   .     S
O437   Zn444   1.980   .     S
O438   Zn443   1.980   .     S
O439   Zn443   1.964   .     S
O440   Zn444   1.964   .     S
O441   Zn444   1.976   .     S
O442   Zn443   1.976   .     S
O445   C446    1.415   .     S
C446   C449    1.537   .     S
C446   H448    1.109   .     S
H447   C212    1.111   1_565 S
C449   H450    1.111   .     S
C449   H451    1.111   .     S
C452   H454    1.110   .     S
C452   H453    1.110   .     S
C452   H455    1.111   .     S
C452   C293    1.527   1_655 S
O456   C457    1.416   .     S
C457   H458    1.111   .     S
C457   C460    1.539   .     S
C457   H225    1.108   1_565 S
C460   H461    1.111   .     S
C460   H462    1.111   .     S
C463   H464    1.110   .     S
C463   H465    1.111   .     S
C463   H466    1.111   .     S
C463   C304    1.527   1_655 S
C469   C489    1.443   .     S
C469   O515    1.287   .     A
C469   O513    1.286   .     A
C470   O514    1.286   .     A
C470   C490    1.440   .     S
C470   O516    1.286   .     A
C471   C473    1.407   .     A
C471   C479    1.411   .     A
C471   H505    1.082   .     S
C472   C480    1.411   .     A
C472   C474    1.407   .     A
C472   H506    1.082   .     S
C473   N511    1.363   .     A
C473   H545    1.082   .     S
C474   H546    1.082   .     S
C474   N512    1.363   .     A
C475   N511    1.363   .     A
C475   C477    1.407   .     A
C475   H507    1.082   .     S
C476   N512    1.363   .     A
C476   C478    1.407   .     A
C476   H508    1.082   .     S
C477   C479    1.410   .     A
C477   H509    1.082   .     S
C478   H510    1.082   .     S
C478   C480    1.411   .     A
C480   C11     1.513   1_556 S
C481   O519    1.277   .     A
C481   O517    1.275   .     A
C481   C483    1.399   .     S
C482   O520    1.277   .     A
C482   C484    1.399   .     S
C482   O518    1.275   .     A
C483   C640    1.329   1_455 S
C483   H653    1.088   1_455 S
C484   C561    1.329   .     S
C484   H576    1.088   .     S
C485   O523    1.387   .     S
C485   C495    1.412   .     A
C485   C487    1.386   .     A
C486   C488    1.387   .     A
C486   C496    1.413   .     A
C486   O534    1.387   .     S
C487   H499    1.084   .     S
C487   C489    1.400   .     A
C488   H500    1.084   .     S
C488   C490    1.399   .     A
C489   C491    1.395   .     A
C490   C492    1.394   .     A
C491   H501    1.083   .     S
C491   C493    1.380   .     A
C492   C494    1.380   .     A
C492   H502    1.084   .     S
C493   H503    1.083   .     S
C493   C495    1.402   .     A
C494   H504    1.083   .     S
C494   C496    1.402   .     A
C495   C730    1.450   1_545 S
C496   C729    1.450   .     S
H497   C561    1.088   .     S
H498   C640    1.088   1_455 S
N511   Zn522   2.004   .     S
N512   Zn521   2.004   .     S
O513   Zn521   1.981   .     S
O514   Zn522   1.981   .     S
O515   Zn522   1.980   .     S
O516   Zn521   1.980   .     S
O517   Zn521   1.964   .     S
O518   Zn522   1.964   .     S
O519   Zn522   1.976   .     S
O520   Zn521   1.976   .     S
O523   C524    1.415   .     S
C524   C527    1.537   .     S
C524   H526    1.109   .     S
C524   H759    1.111   1_545 S
H525   C758    1.111   .     S
C527   H528    1.111   .     S
C527   H529    1.111   .     S
C527   C686    1.527   1_455 S
C530   H532    1.110   .     S
C530   H531    1.110   .     S
C530   H533    1.111   .     S
C530   C605    1.527   .     S
O534   C535    1.416   .     S
C535   H536    1.111   .     S
C535   C538    1.539   .     S
C535   H771    1.108   .     S
H537   C769    1.108   1_545 S
C538   H539    1.111   .     S
C538   H540    1.111   .     S
C538   C697    1.527   1_455 S
C541   H542    1.110   .     S
C541   H543    1.111   .     S
C541   H544    1.111   .     S
C541   C616    1.527   .     S
C547   C567    1.443   .     S
C547   O593    1.287   .     A
C547   O591    1.286   .     A
C548   O592    1.286   .     A
C548   C568    1.440   .     S
C548   O594    1.286   .     A
C549   C551    1.407   .     A
C549   C557    1.411   .     A
C549   H583    1.082   .     S
C550   C558    1.411   .     A
C550   C552    1.407   .     A
C550   H584    1.082   .     S
C551   N589    1.363   .     A
C551   H623    1.082   .     S
C552   H624    1.082   .     S
C552   N590    1.363   .     A
C553   N589    1.363   .     A
C553   C555    1.407   .     A
C553   H585    1.082   .     S
C554   N590    1.363   .     A
C554   C556    1.407   .     A
C554   H586    1.082   .     S
C555   C557    1.410   .     A
C555   H587    1.082   .     S
C556   H588    1.082   .     S
C556   C558    1.411   .     A
C558   C89     1.513   1_556 S
C559   O597    1.277   .     A
C559   O595    1.275   .     A
C559   C561    1.399   .     S
C560   O598    1.277   .     A
C560   C562    1.399   .     S
C560   O596    1.275   .     A
C562   C639    1.329   .     S
C562   H654    1.088   .     S
C563   O601    1.387   .     S
C563   C573    1.412   .     A
C563   C565    1.386   .     A
C564   C566    1.387   .     A
C564   C574    1.413   .     A
C564   O612    1.387   .     S
C565   H577    1.084   .     S
C565   C567    1.400   .     A
C566   H578    1.084   .     S
C566   C568    1.399   .     A
C567   C569    1.395   .     A
C568   C570    1.394   .     A
C569   H579    1.083   .     S
C569   C571    1.380   .     A
C570   C572    1.380   .     A
C570   H580    1.084   .     S
C571   H581    1.083   .     S
C571   C573    1.402   .     A
C572   H582    1.083   .     S
C572   C574    1.402   .     A
C573   C808    1.450   1_545 S
C574   C807    1.450   .     S
H575   C639    1.088   .     S
N589   Zn600   2.004   .     S
N590   Zn599   2.004   .     S
O591   Zn599   1.981   .     S
O592   Zn600   1.981   .     S
O593   Zn600   1.980   .     S
O594   Zn599   1.980   .     S
O595   Zn599   1.964   .     S
O596   Zn600   1.964   .     S
O597   Zn600   1.976   .     S
O598   Zn599   1.976   .     S
O601   C602    1.415   .     S
C602   C605    1.537   .     S
C602   H604    1.109   .     S
C602   H837    1.111   1_545 S
H603   C836    1.111   .     S
C605   H606    1.111   .     S
C605   H607    1.111   .     S
C608   H610    1.110   .     S
C608   H609    1.110   .     S
C608   H611    1.111   .     S
C608   C683    1.527   .     S
O612   C613    1.416   .     S
C613   H614    1.111   .     S
C613   C616    1.539   .     S
C613   H849    1.108   .     S
H615   C847    1.108   1_545 S
C616   H617    1.111   .     S
C616   H618    1.111   .     S
C619   H620    1.110   .     S
C619   H621    1.111   .     S
C619   H622    1.111   .     S
C619   C694    1.527   .     S
C625   C645    1.443   .     S
C625   O671    1.287   .     A
C625   O669    1.286   .     A
C626   O670    1.286   .     A
C626   C646    1.440   .     S
C626   O672    1.286   .     A
C627   C629    1.407   .     A
C627   C635    1.411   .     A
C627   H661    1.082   .     S
C628   C636    1.411   .     A
C628   C630    1.407   .     A
C628   H662    1.082   .     S
C629   N667    1.363   .     A
C629   H701    1.082   .     S
C630   H702    1.082   .     S
C630   N668    1.363   .     A
C631   N667    1.363   .     A
C631   C633    1.407   .     A
C631   H663    1.082   .     S
C632   N668    1.363   .     A
C632   C634    1.407   .     A
C632   H664    1.082   .     S
C633   C635    1.410   .     A
C633   H665    1.082   .     S
C634   H666    1.082   .     S
C634   C636    1.411   .     A
C636   C167    1.513   1_556 S
C637   O675    1.277   .     A
C637   O673    1.275   .     A
C637   C639    1.399   .     S
C638   O676    1.277   .     A
C638   C640    1.399   .     S
C638   O674    1.275   .     A
C640   C483    1.329   1_655 S
C640   H498    1.088   1_655 S
C641   O679    1.387   .     S
C641   C651    1.412   .     A
C641   C643    1.386   .     A
C642   C644    1.387   .     A
C642   C652    1.413   .     A
C642   O690    1.387   .     S
C643   H655    1.084   .     S
C643   C645    1.400   .     A
C644   H656    1.084   .     S
C644   C646    1.399   .     A
C645   C647    1.395   .     A
C646   C648    1.394   .     A
C647   H657    1.083   .     S
C647   C649    1.380   .     A
C648   C650    1.380   .     A
C648   H658    1.084   .     S
C649   H659    1.083   .     S
C649   C651    1.402   .     A
C650   H660    1.083   .     S
C650   C652    1.402   .     A
C651   C886    1.450   1_545 S
C652   C885    1.450   .     S
H653   C483    1.088   1_655 S
N667   Zn678   2.004   .     S
N668   Zn677   2.004   .     S
O669   Zn677   1.981   .     S
O670   Zn678   1.981   .     S
O671   Zn678   1.980   .     S
O672   Zn677   1.980   .     S
O673   Zn677   1.964   .     S
O674   Zn678   1.964   .     S
O675   Zn678   1.976   .     S
O676   Zn677   1.976   .     S
O679   C680    1.415   .     S
C680   C683    1.537   .     S
C680   H682    1.109   .     S
C680   H915    1.111   1_545 S
H681   C914    1.111   .     S
C683   H684    1.111   .     S
C683   H685    1.111   .     S
C686   H688    1.110   .     S
C686   H687    1.110   .     S
C686   H689    1.111   .     S
C686   C527    1.527   1_655 S
O690   C691    1.416   .     S
C691   H692    1.111   .     S
C691   C694    1.539   .     S
C691   H927    1.108   .     S
H693   C925    1.108   1_545 S
C694   H695    1.111   .     S
C694   H696    1.111   .     S
C697   H698    1.110   .     S
C697   H699    1.111   .     S
C697   H700    1.111   .     S
C697   C538    1.527   1_655 S
C703   C723    1.443   .     S
C703   O749    1.287   .     A
C703   O747    1.286   .     A
C704   O748    1.286   .     A
C704   C724    1.440   .     S
C704   O750    1.286   .     A
C705   C707    1.407   .     A
C705   C713    1.411   .     A
C705   H739    1.082   .     S
C706   C714    1.411   .     A
C706   C708    1.407   .     A
C706   H740    1.082   .     S
C707   N745    1.363   .     A
C707   H779    1.082   .     S
C708   H780    1.082   .     S
C708   N746    1.363   .     A
C709   N745    1.363   .     A
C709   C711    1.407   .     A
C709   H741    1.082   .     S
C710   N746    1.363   .     A
C710   C712    1.407   .     A
C710   H742    1.082   .     S
C711   C713    1.410   .     A
C711   H743    1.082   .     S
C712   H744    1.082   .     S
C712   C714    1.411   .     A
C714   C245    1.513   1_556 S
C715   O753    1.277   .     A
C715   O751    1.275   .     A
C715   C717    1.399   .     S
C716   O754    1.277   .     A
C716   C718    1.399   .     S
C716   O752    1.275   .     A
C717   C874    1.329   1_455 S
C717   H887    1.088   1_455 S
C718   C795    1.329   .     S
C718   H810    1.088   .     S
C719   O757    1.387   .     S
C719   C729    1.412   .     A
C719   C721    1.386   .     A
C720   C722    1.387   .     A
C720   C730    1.413   .     A
C720   O768    1.387   .     S
C721   H733    1.084   .     S
C721   C723    1.400   .     A
C722   H734    1.084   .     S
C722   C724    1.399   .     A
C723   C725    1.395   .     A
C724   C726    1.394   .     A
C725   H735    1.083   .     S
C725   C727    1.380   .     A
C726   C728    1.380   .     A
C726   H736    1.084   .     S
C727   H737    1.083   .     S
C727   C729    1.402   .     A
C728   H738    1.083   .     S
C728   C730    1.402   .     A
C730   C495    1.450   1_565 S
H731   C795    1.088   .     S
H732   C874    1.088   1_455 S
N745   Zn756   2.004   .     S
N746   Zn755   2.004   .     S
O747   Zn755   1.981   .     S
O748   Zn756   1.981   .     S
O749   Zn756   1.980   .     S
O750   Zn755   1.980   .     S
O751   Zn755   1.964   .     S
O752   Zn756   1.964   .     S
O753   Zn756   1.976   .     S
O754   Zn755   1.976   .     S
O757   C758    1.415   .     S
C758   C761    1.537   .     S
C758   H760    1.109   .     S
H759   C524    1.111   1_565 S
C761   H762    1.111   .     S
C761   H763    1.111   .     S
C761   C920    1.527   1_455 S
C764   H766    1.110   .     S
C764   H765    1.110   .     S
C764   H767    1.111   .     S
C764   C839    1.527   .     S
O768   C769    1.416   .     S
C769   H770    1.111   .     S
C769   C772    1.539   .     S
C769   H537    1.108   1_565 S
C772   H773    1.111   .     S
C772   H774    1.111   .     S
C772   C931    1.527   1_455 S
C775   H776    1.110   .     S
C775   H777    1.111   .     S
C775   H778    1.111   .     S
C775   C850    1.527   .     S
C781   C801    1.443   .     S
C781   O827    1.287   .     A
C781   O825    1.286   .     A
C782   O826    1.286   .     A
C782   C802    1.440   .     S
C782   O828    1.286   .     A
C783   C785    1.407   .     A
C783   C791    1.411   .     A
C783   H817    1.082   .     S
C784   C792    1.411   .     A
C784   C786    1.407   .     A
C784   H818    1.082   .     S
C785   N823    1.363   .     A
C785   H857    1.082   .     S
C786   H858    1.082   .     S
C786   N824    1.363   .     A
C787   N823    1.363   .     A
C787   C789    1.407   .     A
C787   H819    1.082   .     S
C788   N824    1.363   .     A
C788   C790    1.407   .     A
C788   H820    1.082   .     S
C789   C791    1.410   .     A
C789   H821    1.082   .     S
C790   H822    1.082   .     S
C790   C792    1.411   .     A
C792   C323    1.513   1_556 S
C793   O831    1.277   .     A
C793   O829    1.275   .     A
C793   C795    1.399   .     S
C794   O832    1.277   .     A
C794   C796    1.399   .     S
C794   O830    1.275   .     A
C796   C873    1.329   .     S
C796   H888    1.088   .     S
C797   O835    1.387   .     S
C797   C807    1.412   .     A
C797   C799    1.386   .     A
C798   C800    1.387   .     A
C798   C808    1.413   .     A
C798   O846    1.387   .     S
C799   H811    1.084   .     S
C799   C801    1.400   .     A
C800   H812    1.084   .     S
C800   C802    1.399   .     A
C801   C803    1.395   .     A
C802   C804    1.394   .     A
C803   H813    1.083   .     S
C803   C805    1.380   .     A
C804   C806    1.380   .     A
C804   H814    1.084   .     S
C805   H815    1.083   .     S
C805   C807    1.402   .     A
C806   H816    1.083   .     S
C806   C808    1.402   .     A
C808   C573    1.450   1_565 S
H809   C873    1.088   .     S
N823   Zn834   2.004   .     S
N824   Zn833   2.004   .     S
O825   Zn833   1.981   .     S
O826   Zn834   1.981   .     S
O827   Zn834   1.980   .     S
O828   Zn833   1.980   .     S
O829   Zn833   1.964   .     S
O830   Zn834   1.964   .     S
O831   Zn834   1.976   .     S
O832   Zn833   1.976   .     S
O835   C836    1.415   .     S
C836   C839    1.537   .     S
C836   H838    1.109   .     S
H837   C602    1.111   1_565 S
C839   H840    1.111   .     S
C839   H841    1.111   .     S
C842   H844    1.110   .     S
C842   H843    1.110   .     S
C842   H845    1.111   .     S
C842   C917    1.527   .     S
O846   C847    1.416   .     S
C847   H848    1.111   .     S
C847   C850    1.539   .     S
C847   H615    1.108   1_565 S
C850   H851    1.111   .     S
C850   H852    1.111   .     S
C853   H854    1.110   .     S
C853   H855    1.111   .     S
C853   H856    1.111   .     S
C853   C928    1.527   .     S
C859   C879    1.443   .     S
C859   O905    1.287   .     A
C859   O903    1.286   .     A
C860   O904    1.286   .     A
C860   C880    1.440   .     S
C860   O906    1.286   .     A
C861   C863    1.407   .     A
C861   C869    1.411   .     A
C861   H895    1.082   .     S
C862   C870    1.411   .     A
C862   C864    1.407   .     A
C862   H896    1.082   .     S
C863   N901    1.363   .     A
C863   H935    1.082   .     S
C864   H936    1.082   .     S
C864   N902    1.363   .     A
C865   N901    1.363   .     A
C865   C867    1.407   .     A
C865   H897    1.082   .     S
C866   N902    1.363   .     A
C866   C868    1.407   .     A
C866   H898    1.082   .     S
C867   C869    1.410   .     A
C867   H899    1.082   .     S
C868   H900    1.082   .     S
C868   C870    1.411   .     A
C870   C401    1.513   1_556 S
C871   O909    1.277   .     A
C871   O907    1.275   .     A
C871   C873    1.399   .     S
C872   O910    1.277   .     A
C872   C874    1.399   .     S
C872   O908    1.275   .     A
C874   C717    1.329   1_655 S
C874   H732    1.088   1_655 S
C875   O913    1.387   .     S
C875   C885    1.412   .     A
C875   C877    1.386   .     A
C876   C878    1.387   .     A
C876   C886    1.413   .     A
C876   O924    1.387   .     S
C877   H889    1.084   .     S
C877   C879    1.400   .     A
C878   H890    1.084   .     S
C878   C880    1.399   .     A
C879   C881    1.395   .     A
C880   C882    1.394   .     A
C881   H891    1.083   .     S
C881   C883    1.380   .     A
C882   C884    1.380   .     A
C882   H892    1.084   .     S
C883   H893    1.083   .     S
C883   C885    1.402   .     A
C884   H894    1.083   .     S
C884   C886    1.402   .     A
C886   C651    1.450   1_565 S
H887   C717    1.088   1_655 S
N901   Zn912   2.004   .     S
N902   Zn911   2.004   .     S
O903   Zn911   1.981   .     S
O904   Zn912   1.981   .     S
O905   Zn912   1.980   .     S
O906   Zn911   1.980   .     S
O907   Zn911   1.964   .     S
O908   Zn912   1.964   .     S
O909   Zn912   1.976   .     S
O910   Zn911   1.976   .     S
O913   C914    1.415   .     S
C914   C917    1.537   .     S
C914   H916    1.109   .     S
H915   C680    1.111   1_565 S
C917   H918    1.111   .     S
C917   H919    1.111   .     S
C920   H922    1.110   .     S
C920   H921    1.110   .     S
C920   H923    1.111   .     S
C920   C761    1.527   1_655 S
O924   C925    1.416   .     S
C925   H926    1.111   .     S
C925   C928    1.539   .     S
C925   H693    1.108   1_565 S
C928   H929    1.111   .     S
C928   H930    1.111   .     S
C931   H932    1.110   .     S
C931   H933    1.111   .     S
C931   H934    1.111   .     S
C931   C772    1.527   1_655 S
