data_str_m3_o1_o17_pcu_sym.118
_audit_creation_date              2020-01-03
_audit_creation_method            'Materials Studio'
_symmetry_space_group_name_H-M    'P1'
_symmetry_Int_Tables_number       1
_symmetry_cell_setting            triclinic
loop_
_symmetry_equiv_pos_as_xyz
  x,y,z
_cell_length_a                    31.8535
_cell_length_b                    30.1224
_cell_length_c                    29.8786
_cell_angle_alpha                 88.4894
_cell_angle_beta                  93.2890
_cell_angle_gamma                 91.5811
loop_
_atom_site_label
_atom_site_type_symbol
_atom_site_fract_x
_atom_site_fract_y
_atom_site_fract_z
_atom_site_U_iso_or_equiv
_atom_site_adp_type
_atom_site_occupancy
C1     C     0.08690   0.16635   0.24938   0.00000  Uiso   1.00
C2     C     0.24649   0.16716   0.25039   0.00000  Uiso   1.00
C3     C     0.12590   0.09658   0.02305   0.00000  Uiso   1.00
C4     C     0.20826   0.23549   0.47725   0.00000  Uiso   1.00
C5     C     0.02248   0.13716   0.27819   0.00000  Uiso   1.00
C6     C     0.31116   0.19828   0.22279   0.00000  Uiso   1.00
C7     C     0.31288   0.13764   0.27854   0.00000  Uiso   1.00
C8     C     0.02088   0.19734   0.22189   0.00000  Uiso   1.00
C9     C     0.29082   0.16802   0.25082   0.00000  Uiso   1.00
C10    C     0.04271   0.16632   0.24922   0.00000  Uiso   1.00
C11    C     0.19078   0.02311   0.28091   0.00000  Uiso   1.00
C12    C     0.13935   0.30929   0.22131   0.00000  Uiso   1.00
C13    C     0.13787   0.02368   0.22296   0.00000  Uiso   1.00
C14    C     0.19654   0.31039   0.27451   0.00000  Uiso   1.00
C15    C     0.16660   0.16703   0.16362   0.00000  Uiso   1.00
C16    C     0.16669   0.16621   0.33643   0.00000  Uiso   1.00
C17    C     0.18696   0.20061   0.40758   0.00000  Uiso   1.00
C18    C     0.14581   0.13244   0.09272   0.00000  Uiso   1.00
C19    C     0.16702   0.16553   0.38442   0.00000  Uiso   1.00
C20    C     0.16660   0.16718   0.11573   0.00000  Uiso   1.00
C21    C     0.14691   0.13059   0.40697   0.00000  Uiso   1.00
C22    C     0.18839   0.20086   0.09325   0.00000  Uiso   1.00
C23    C     0.14673   0.13051   0.45336   0.00000  Uiso   1.00
C24    C     0.18827   0.20103   0.04692   0.00000  Uiso   1.00
C25    C     0.16725   0.16575   0.47688   0.00000  Uiso   1.00
C26    C     0.16722   0.16608   0.02343   0.00000  Uiso   1.00
C27    C     0.18763   0.20081   0.45382   0.00000  Uiso   1.00
C28    C     0.14620   0.13145   0.04650   0.00000  Uiso   1.00
C29    C     0.12628   0.09604   0.47655   0.00000  Uiso   1.00
C30    C     0.20877   0.23546   0.02378   0.00000  Uiso   1.00
H31    H     0.20214   0.22767   0.38971   0.00000  Uiso   1.00
H32    H     0.12924   0.10631   0.11081   0.00000  Uiso   1.00
H33    H     0.13097   0.10399   0.38841   0.00000  Uiso   1.00
H34    H     0.20572   0.22651   0.11183   0.00000  Uiso   1.00
H35    H     0.11050   0.06888   0.45874   0.00000  Uiso   1.00
H36    H     0.22487   0.26242   0.04161   0.00000  Uiso   1.00
H37    H     0.10983   0.06981   0.04067   0.00000  Uiso   1.00
H38    H     0.22400   0.26247   0.45961   0.00000  Uiso   1.00
H39    H     0.03983   0.11444   0.30053   0.00000  Uiso   1.00
H40    H     0.29378   0.22174   0.20130   0.00000  Uiso   1.00
H41    H     0.29723   0.11475   0.30068   0.00000  Uiso   1.00
H42    H     0.03707   0.22033   0.19985   0.00000  Uiso   1.00
N43    N     0.16667   0.28573   0.25000   0.00000  Uiso   1.00
N44    N     0.16667   0.04760   0.25000   0.00000  Uiso   1.00
O45    O     0.10559   0.20487   0.25000   0.00000  Uiso   1.00
O46    O     0.22774   0.12846   0.25001   0.00000  Uiso   1.00
O47    O     0.22774   0.20487   0.25001   0.00000  Uiso   1.00
O48    O     0.10559   0.12846   0.25000   0.00000  Uiso   1.00
O49    O     0.16666   0.20489   0.18393   0.00000  Uiso   1.00
O50    O     0.16667   0.12844   0.31608   0.00000  Uiso   1.00
O51    O     0.16667   0.20489   0.31608   0.00000  Uiso   1.00
O52    O     0.16666   0.12844   0.18393   0.00000  Uiso   1.00
Zn53   Zn    0.16667   0.21771   0.25000   0.00000  Uiso   1.00
Zn54   Zn    0.16667   0.11563   0.25000   0.00000  Uiso   1.00
C55    C     0.19594   0.03700   0.32938   0.00000  Uiso   1.00
C56    C     0.23726   0.06227   0.34150   0.00000  Uiso   1.00
C57    C     0.24575   0.06440   0.39221   0.00000  Uiso   1.00
H58    H     0.21931   0.08007   0.40786   0.00000  Uiso   1.00
H59    H     0.24999   0.03047   0.40697   0.00000  Uiso   1.00
H60    H     0.27493   0.08448   0.39977   0.00000  Uiso   1.00
H61    H     0.26418   0.04606   0.32741   0.00000  Uiso   1.00
H62    H     0.23560   0.09656   0.32786   0.00000  Uiso   1.00
H63    H     0.16826   0.05536   0.33826   0.00000  Uiso   1.00
H64    H     0.19387   0.00706   0.35173   0.00000  Uiso   1.00
C65    C     0.11517   0.28600   0.18295   0.00000  Uiso   1.00
C66    C     0.13599   0.29547   0.13842   0.00000  Uiso   1.00
C67    C     0.11024   0.27489   0.09919   0.00000  Uiso   1.00
H68    H     0.10542   0.23862   0.10516   0.00000  Uiso   1.00
H69    H     0.07910   0.29062   0.09477   0.00000  Uiso   1.00
H70    H     0.12708   0.28034   0.06790   0.00000  Uiso   1.00
H71    H     0.13943   0.33175   0.13156   0.00000  Uiso   1.00
H72    H     0.16809   0.28204   0.14059   0.00000  Uiso   1.00
H73    H     0.11240   0.25037   0.18875   0.00000  Uiso   1.00
H74    H     0.08200   0.29544   0.17958   0.00000  Uiso   1.00
C75    C     0.09982   0.04659   0.20068   0.00000  Uiso   1.00
C76    C     0.06278   0.04715   0.23188   0.00000  Uiso   1.00
C77    C     0.03643   0.00412   0.23415   0.00000  Uiso   1.00
H78    H     0.02281   0.32888   0.20034   0.00000  Uiso   1.00
H79    H     0.05544   0.30988   0.24898   0.00000  Uiso   1.00
H80    H     0.00996   0.00879   0.25606   0.00000  Uiso   1.00
H81    H     0.07462   0.05482   0.26658   0.00000  Uiso   1.00
H82    H     0.04135   0.07372   0.21932   0.00000  Uiso   1.00
H83    H     0.10856   0.08067   0.19071   0.00000  Uiso   1.00
H84    H     0.08890   0.03278   0.16801   0.00000  Uiso   1.00
C85    C     0.24183   0.29587   0.28011   0.00000  Uiso   1.00
C86    C     0.25323   0.27091   0.32439   0.00000  Uiso   1.00
C87    C     0.30070   0.26554   0.33127   0.00000  Uiso   1.00
H88    H     0.31302   0.24816   0.30271   0.00000  Uiso   1.00
H89    H     0.31685   0.29857   0.33439   0.00000  Uiso   1.00
H90    H     0.30786   0.24572   0.36250   0.00000  Uiso   1.00
H91    H     0.24261   0.28908   0.35324   0.00000  Uiso   1.00
H92    H     0.23811   0.23755   0.32451   0.00000  Uiso   1.00
H93    H     0.25000   0.27733   0.25061   0.00000  Uiso   1.00
H94    H     0.26308   0.32559   0.27782   0.00000  Uiso   1.00
C95    C     0.42023   0.16635   0.24938   0.00000  Uiso   1.00
C96    C     0.57983   0.16716   0.25039   0.00000  Uiso   1.00
C97    C     0.45923   0.09658   0.02305   0.00000  Uiso   1.00
C98    C     0.54159   0.23549   0.47725   0.00000  Uiso   1.00
C99    C     0.35581   0.13716   0.27819   0.00000  Uiso   1.00
C100   C     0.64449   0.19828   0.22279   0.00000  Uiso   1.00
C101   C     0.64622   0.13764   0.27854   0.00000  Uiso   1.00
C102   C     0.35421   0.19734   0.22189   0.00000  Uiso   1.00
C103   C     0.62415   0.16802   0.25082   0.00000  Uiso   1.00
C104   C     0.37605   0.16632   0.24922   0.00000  Uiso   1.00
C105   C     0.52411   0.02311   0.28091   0.00000  Uiso   1.00
C106   C     0.47269   0.30929   0.22131   0.00000  Uiso   1.00
C107   C     0.47120   0.02368   0.22296   0.00000  Uiso   1.00
C108   C     0.52987   0.31039   0.27451   0.00000  Uiso   1.00
C109   C     0.49993   0.16703   0.16362   0.00000  Uiso   1.00
C110   C     0.50003   0.16621   0.33643   0.00000  Uiso   1.00
C111   C     0.52029   0.20061   0.40758   0.00000  Uiso   1.00
C112   C     0.47914   0.13244   0.09272   0.00000  Uiso   1.00
C113   C     0.50036   0.16553   0.38442   0.00000  Uiso   1.00
C114   C     0.49994   0.16718   0.11573   0.00000  Uiso   1.00
C115   C     0.48024   0.13059   0.40697   0.00000  Uiso   1.00
C116   C     0.52172   0.20086   0.09325   0.00000  Uiso   1.00
C117   C     0.48006   0.13051   0.45336   0.00000  Uiso   1.00
C118   C     0.52160   0.20103   0.04692   0.00000  Uiso   1.00
C119   C     0.50059   0.16575   0.47688   0.00000  Uiso   1.00
C120   C     0.50056   0.16608   0.02343   0.00000  Uiso   1.00
C121   C     0.52097   0.20081   0.45382   0.00000  Uiso   1.00
C122   C     0.47953   0.13145   0.04650   0.00000  Uiso   1.00
C123   C     0.45961   0.09604   0.47655   0.00000  Uiso   1.00
C124   C     0.54210   0.23546   0.02378   0.00000  Uiso   1.00
H125   H     0.53548   0.22767   0.38971   0.00000  Uiso   1.00
H126   H     0.46258   0.10631   0.11081   0.00000  Uiso   1.00
H127   H     0.46430   0.10399   0.38841   0.00000  Uiso   1.00
H128   H     0.53906   0.22651   0.11183   0.00000  Uiso   1.00
H129   H     0.44383   0.06888   0.45874   0.00000  Uiso   1.00
H130   H     0.55820   0.26242   0.04161   0.00000  Uiso   1.00
H131   H     0.44316   0.06981   0.04067   0.00000  Uiso   1.00
H132   H     0.55734   0.26247   0.45961   0.00000  Uiso   1.00
H133   H     0.37317   0.11444   0.30053   0.00000  Uiso   1.00
H134   H     0.62711   0.22174   0.20130   0.00000  Uiso   1.00
H135   H     0.63056   0.11475   0.30068   0.00000  Uiso   1.00
H136   H     0.37040   0.22033   0.19985   0.00000  Uiso   1.00
N137   N     0.50000   0.28573   0.25000   0.00000  Uiso   1.00
N138   N     0.50000   0.04760   0.25000   0.00000  Uiso   1.00
O139   O     0.43892   0.20487   0.25000   0.00000  Uiso   1.00
O140   O     0.56108   0.12846   0.25001   0.00000  Uiso   1.00
O141   O     0.56108   0.20487   0.25001   0.00000  Uiso   1.00
O142   O     0.43892   0.12846   0.25000   0.00000  Uiso   1.00
O143   O     0.49999   0.20489   0.18393   0.00000  Uiso   1.00
O144   O     0.50001   0.12844   0.31608   0.00000  Uiso   1.00
O145   O     0.50001   0.20489   0.31608   0.00000  Uiso   1.00
O146   O     0.49999   0.12844   0.18393   0.00000  Uiso   1.00
Zn147  Zn    0.50000   0.21771   0.25000   0.00000  Uiso   1.00
Zn148  Zn    0.50000   0.11563   0.25000   0.00000  Uiso   1.00
C149   C     0.52928   0.03700   0.32938   0.00000  Uiso   1.00
C150   C     0.57059   0.06227   0.34150   0.00000  Uiso   1.00
C151   C     0.57908   0.06440   0.39221   0.00000  Uiso   1.00
H152   H     0.55264   0.08007   0.40786   0.00000  Uiso   1.00
H153   H     0.58333   0.03047   0.40697   0.00000  Uiso   1.00
H154   H     0.60826   0.08448   0.39977   0.00000  Uiso   1.00
H155   H     0.59752   0.04606   0.32741   0.00000  Uiso   1.00
H156   H     0.56893   0.09656   0.32786   0.00000  Uiso   1.00
H157   H     0.50159   0.05536   0.33826   0.00000  Uiso   1.00
H158   H     0.52720   0.00706   0.35173   0.00000  Uiso   1.00
C159   C     0.44850   0.28600   0.18295   0.00000  Uiso   1.00
C160   C     0.46932   0.29547   0.13842   0.00000  Uiso   1.00
C161   C     0.44358   0.27489   0.09919   0.00000  Uiso   1.00
H162   H     0.43875   0.23862   0.10516   0.00000  Uiso   1.00
H163   H     0.41243   0.29062   0.09477   0.00000  Uiso   1.00
H164   H     0.46041   0.28034   0.06790   0.00000  Uiso   1.00
H165   H     0.47276   0.33175   0.13156   0.00000  Uiso   1.00
H166   H     0.50142   0.28204   0.14059   0.00000  Uiso   1.00
H167   H     0.44573   0.25037   0.18875   0.00000  Uiso   1.00
H168   H     0.41533   0.29544   0.17958   0.00000  Uiso   1.00
C169   C     0.43316   0.04659   0.20068   0.00000  Uiso   1.00
C170   C     0.39611   0.04715   0.23188   0.00000  Uiso   1.00
C171   C     0.36976   0.00412   0.23415   0.00000  Uiso   1.00
H172   H     0.35614   0.32888   0.20034   0.00000  Uiso   1.00
H173   H     0.38878   0.30988   0.24898   0.00000  Uiso   1.00
H174   H     0.34330   0.00879   0.25606   0.00000  Uiso   1.00
H175   H     0.40796   0.05482   0.26658   0.00000  Uiso   1.00
H176   H     0.37469   0.07372   0.21932   0.00000  Uiso   1.00
H177   H     0.44189   0.08067   0.19071   0.00000  Uiso   1.00
H178   H     0.42224   0.03278   0.16801   0.00000  Uiso   1.00
C179   C     0.57517   0.29587   0.28011   0.00000  Uiso   1.00
C180   C     0.58656   0.27091   0.32439   0.00000  Uiso   1.00
C181   C     0.63403   0.26554   0.33127   0.00000  Uiso   1.00
H182   H     0.64635   0.24816   0.30271   0.00000  Uiso   1.00
H183   H     0.65018   0.29857   0.33439   0.00000  Uiso   1.00
H184   H     0.64119   0.24572   0.36250   0.00000  Uiso   1.00
H185   H     0.57594   0.28908   0.35324   0.00000  Uiso   1.00
H186   H     0.57144   0.23755   0.32451   0.00000  Uiso   1.00
H187   H     0.58334   0.27733   0.25061   0.00000  Uiso   1.00
H188   H     0.59642   0.32559   0.27782   0.00000  Uiso   1.00
C189   C     0.75356   0.16635   0.24938   0.00000  Uiso   1.00
C190   C     0.91316   0.16716   0.25039   0.00000  Uiso   1.00
C191   C     0.79257   0.09658   0.02305   0.00000  Uiso   1.00
C192   C     0.87492   0.23549   0.47725   0.00000  Uiso   1.00
C193   C     0.68914   0.13716   0.27819   0.00000  Uiso   1.00
C194   C     0.97783   0.19828   0.22279   0.00000  Uiso   1.00
C195   C     0.97955   0.13764   0.27854   0.00000  Uiso   1.00
C196   C     0.68755   0.19734   0.22189   0.00000  Uiso   1.00
C197   C     0.95748   0.16802   0.25082   0.00000  Uiso   1.00
C198   C     0.70938   0.16632   0.24922   0.00000  Uiso   1.00
C199   C     0.85744   0.02311   0.28091   0.00000  Uiso   1.00
C200   C     0.80602   0.30929   0.22131   0.00000  Uiso   1.00
C201   C     0.80453   0.02368   0.22296   0.00000  Uiso   1.00
C202   C     0.86320   0.31039   0.27451   0.00000  Uiso   1.00
C203   C     0.83326   0.16703   0.16362   0.00000  Uiso   1.00
C204   C     0.83336   0.16621   0.33643   0.00000  Uiso   1.00
C205   C     0.85363   0.20061   0.40758   0.00000  Uiso   1.00
C206   C     0.81247   0.13244   0.09272   0.00000  Uiso   1.00
C207   C     0.83369   0.16553   0.38442   0.00000  Uiso   1.00
C208   C     0.83327   0.16718   0.11573   0.00000  Uiso   1.00
C209   C     0.81358   0.13059   0.40697   0.00000  Uiso   1.00
C210   C     0.85505   0.20086   0.09325   0.00000  Uiso   1.00
C211   C     0.81339   0.13051   0.45336   0.00000  Uiso   1.00
C212   C     0.85493   0.20103   0.04692   0.00000  Uiso   1.00
C213   C     0.83392   0.16575   0.47688   0.00000  Uiso   1.00
C214   C     0.83389   0.16608   0.02343   0.00000  Uiso   1.00
C215   C     0.85430   0.20081   0.45382   0.00000  Uiso   1.00
C216   C     0.81286   0.13145   0.04650   0.00000  Uiso   1.00
C217   C     0.79295   0.09604   0.47655   0.00000  Uiso   1.00
C218   C     0.87543   0.23546   0.02378   0.00000  Uiso   1.00
H219   H     0.86881   0.22767   0.38971   0.00000  Uiso   1.00
H220   H     0.79591   0.10631   0.11081   0.00000  Uiso   1.00
H221   H     0.79763   0.10399   0.38841   0.00000  Uiso   1.00
H222   H     0.87239   0.22651   0.11183   0.00000  Uiso   1.00
H223   H     0.77717   0.06888   0.45874   0.00000  Uiso   1.00
H224   H     0.89153   0.26242   0.04161   0.00000  Uiso   1.00
H225   H     0.77649   0.06981   0.04067   0.00000  Uiso   1.00
H226   H     0.89067   0.26247   0.45961   0.00000  Uiso   1.00
H227   H     0.70650   0.11444   0.30053   0.00000  Uiso   1.00
H228   H     0.96044   0.22174   0.20130   0.00000  Uiso   1.00
H229   H     0.96390   0.11475   0.30068   0.00000  Uiso   1.00
H230   H     0.70374   0.22033   0.19985   0.00000  Uiso   1.00
N231   N     0.83333   0.28573   0.25000   0.00000  Uiso   1.00
N232   N     0.83333   0.04760   0.25000   0.00000  Uiso   1.00
O233   O     0.77226   0.20487   0.25000   0.00000  Uiso   1.00
O234   O     0.89441   0.12846   0.25001   0.00000  Uiso   1.00
O235   O     0.89441   0.20487   0.25001   0.00000  Uiso   1.00
O236   O     0.77226   0.12846   0.25000   0.00000  Uiso   1.00
O237   O     0.83333   0.20489   0.18393   0.00000  Uiso   1.00
O238   O     0.83334   0.12844   0.31608   0.00000  Uiso   1.00
O239   O     0.83334   0.20489   0.31608   0.00000  Uiso   1.00
O240   O     0.83333   0.12844   0.18393   0.00000  Uiso   1.00
Zn241  Zn    0.83333   0.21771   0.25000   0.00000  Uiso   1.00
Zn242  Zn    0.83333   0.11563   0.25000   0.00000  Uiso   1.00
C243   C     0.86261   0.03700   0.32938   0.00000  Uiso   1.00
C244   C     0.90392   0.06227   0.34150   0.00000  Uiso   1.00
C245   C     0.91241   0.06440   0.39221   0.00000  Uiso   1.00
H246   H     0.88598   0.08007   0.40786   0.00000  Uiso   1.00
H247   H     0.91666   0.03047   0.40697   0.00000  Uiso   1.00
H248   H     0.94159   0.08448   0.39977   0.00000  Uiso   1.00
H249   H     0.93085   0.04606   0.32741   0.00000  Uiso   1.00
H250   H     0.90226   0.09656   0.32786   0.00000  Uiso   1.00
H251   H     0.83493   0.05536   0.33826   0.00000  Uiso   1.00
H252   H     0.86054   0.00706   0.35173   0.00000  Uiso   1.00
C253   C     0.78184   0.28600   0.18295   0.00000  Uiso   1.00
C254   C     0.80265   0.29547   0.13842   0.00000  Uiso   1.00
C255   C     0.77691   0.27489   0.09919   0.00000  Uiso   1.00
H256   H     0.77209   0.23862   0.10516   0.00000  Uiso   1.00
H257   H     0.74577   0.29062   0.09477   0.00000  Uiso   1.00
H258   H     0.79375   0.28034   0.06790   0.00000  Uiso   1.00
H259   H     0.80610   0.33175   0.13156   0.00000  Uiso   1.00
H260   H     0.83475   0.28204   0.14059   0.00000  Uiso   1.00
H261   H     0.77906   0.25037   0.18875   0.00000  Uiso   1.00
H262   H     0.74867   0.29544   0.17958   0.00000  Uiso   1.00
C263   C     0.76649   0.04659   0.20068   0.00000  Uiso   1.00
C264   C     0.72944   0.04715   0.23188   0.00000  Uiso   1.00
C265   C     0.70309   0.00412   0.23415   0.00000  Uiso   1.00
H266   H     0.68947   0.32888   0.20034   0.00000  Uiso   1.00
H267   H     0.72211   0.30988   0.24898   0.00000  Uiso   1.00
H268   H     0.67663   0.00879   0.25606   0.00000  Uiso   1.00
H269   H     0.74129   0.05482   0.26658   0.00000  Uiso   1.00
H270   H     0.70802   0.07372   0.21932   0.00000  Uiso   1.00
H271   H     0.77523   0.08067   0.19071   0.00000  Uiso   1.00
H272   H     0.75557   0.03278   0.16801   0.00000  Uiso   1.00
C273   C     0.90850   0.29587   0.28011   0.00000  Uiso   1.00
C274   C     0.91989   0.27091   0.32439   0.00000  Uiso   1.00
C275   C     0.96737   0.26554   0.33127   0.00000  Uiso   1.00
H276   H     0.97968   0.24816   0.30271   0.00000  Uiso   1.00
H277   H     0.98351   0.29857   0.33439   0.00000  Uiso   1.00
H278   H     0.97453   0.24572   0.36250   0.00000  Uiso   1.00
H279   H     0.90928   0.28908   0.35324   0.00000  Uiso   1.00
H280   H     0.90477   0.23755   0.32451   0.00000  Uiso   1.00
H281   H     0.91667   0.27733   0.25061   0.00000  Uiso   1.00
H282   H     0.92975   0.32559   0.27782   0.00000  Uiso   1.00
C283   C     0.08690   0.49968   0.24938   0.00000  Uiso   1.00
C284   C     0.24649   0.50049   0.25039   0.00000  Uiso   1.00
C285   C     0.12590   0.42991   0.02305   0.00000  Uiso   1.00
C286   C     0.20826   0.56882   0.47725   0.00000  Uiso   1.00
C287   C     0.02248   0.47049   0.27819   0.00000  Uiso   1.00
C288   C     0.31116   0.53162   0.22279   0.00000  Uiso   1.00
C289   C     0.31288   0.47098   0.27854   0.00000  Uiso   1.00
C290   C     0.02088   0.53068   0.22189   0.00000  Uiso   1.00
C291   C     0.29082   0.50136   0.25082   0.00000  Uiso   1.00
C292   C     0.04271   0.49966   0.24922   0.00000  Uiso   1.00
C293   C     0.19078   0.35645   0.28091   0.00000  Uiso   1.00
C294   C     0.13935   0.64262   0.22131   0.00000  Uiso   1.00
C295   C     0.13787   0.35701   0.22296   0.00000  Uiso   1.00
C296   C     0.19654   0.64372   0.27451   0.00000  Uiso   1.00
C297   C     0.16660   0.50036   0.16362   0.00000  Uiso   1.00
C298   C     0.16669   0.49954   0.33643   0.00000  Uiso   1.00
C299   C     0.18696   0.53394   0.40758   0.00000  Uiso   1.00
C300   C     0.14581   0.46577   0.09272   0.00000  Uiso   1.00
C301   C     0.16702   0.49887   0.38442   0.00000  Uiso   1.00
C302   C     0.16660   0.50051   0.11573   0.00000  Uiso   1.00
C303   C     0.14691   0.46392   0.40697   0.00000  Uiso   1.00
C304   C     0.18839   0.53419   0.09325   0.00000  Uiso   1.00
C305   C     0.14673   0.46385   0.45336   0.00000  Uiso   1.00
C306   C     0.18827   0.53436   0.04692   0.00000  Uiso   1.00
C307   C     0.16725   0.49908   0.47688   0.00000  Uiso   1.00
C308   C     0.16722   0.49941   0.02343   0.00000  Uiso   1.00
C309   C     0.18763   0.53414   0.45382   0.00000  Uiso   1.00
C310   C     0.14620   0.46478   0.04650   0.00000  Uiso   1.00
C311   C     0.12628   0.42937   0.47655   0.00000  Uiso   1.00
C312   C     0.20877   0.56880   0.02378   0.00000  Uiso   1.00
H313   H     0.20214   0.56100   0.38971   0.00000  Uiso   1.00
H314   H     0.12924   0.43965   0.11081   0.00000  Uiso   1.00
H315   H     0.13097   0.43732   0.38841   0.00000  Uiso   1.00
H316   H     0.20572   0.55984   0.11183   0.00000  Uiso   1.00
H317   H     0.11050   0.40222   0.45874   0.00000  Uiso   1.00
H318   H     0.22487   0.59575   0.04161   0.00000  Uiso   1.00
H319   H     0.10983   0.40314   0.04067   0.00000  Uiso   1.00
H320   H     0.22400   0.59580   0.45961   0.00000  Uiso   1.00
H321   H     0.03983   0.44778   0.30053   0.00000  Uiso   1.00
H322   H     0.29378   0.55507   0.20130   0.00000  Uiso   1.00
H323   H     0.29723   0.44808   0.30068   0.00000  Uiso   1.00
H324   H     0.03707   0.55366   0.19985   0.00000  Uiso   1.00
N325   N     0.16667   0.61907   0.25000   0.00000  Uiso   1.00
N326   N     0.16667   0.38093   0.25000   0.00000  Uiso   1.00
O327   O     0.10559   0.53821   0.25000   0.00000  Uiso   1.00
O328   O     0.22774   0.46179   0.25001   0.00000  Uiso   1.00
O329   O     0.22774   0.53821   0.25001   0.00000  Uiso   1.00
O330   O     0.10559   0.46179   0.25000   0.00000  Uiso   1.00
O331   O     0.16666   0.53823   0.18393   0.00000  Uiso   1.00
O332   O     0.16667   0.46177   0.31608   0.00000  Uiso   1.00
O333   O     0.16667   0.53823   0.31608   0.00000  Uiso   1.00
O334   O     0.16666   0.46177   0.18393   0.00000  Uiso   1.00
Zn335  Zn    0.16667   0.55104   0.25000   0.00000  Uiso   1.00
Zn336  Zn    0.16667   0.44896   0.25000   0.00000  Uiso   1.00
C337   C     0.19594   0.37033   0.32938   0.00000  Uiso   1.00
C338   C     0.23726   0.39560   0.34150   0.00000  Uiso   1.00
C339   C     0.24575   0.39773   0.39221   0.00000  Uiso   1.00
H340   H     0.21931   0.41340   0.40786   0.00000  Uiso   1.00
H341   H     0.24999   0.36381   0.40697   0.00000  Uiso   1.00
H342   H     0.27493   0.41782   0.39977   0.00000  Uiso   1.00
H343   H     0.26418   0.37940   0.32741   0.00000  Uiso   1.00
H344   H     0.23560   0.42989   0.32786   0.00000  Uiso   1.00
H345   H     0.16826   0.38869   0.33826   0.00000  Uiso   1.00
H346   H     0.19387   0.34039   0.35173   0.00000  Uiso   1.00
C347   C     0.11517   0.61933   0.18295   0.00000  Uiso   1.00
C348   C     0.13599   0.62880   0.13842   0.00000  Uiso   1.00
C349   C     0.11024   0.60822   0.09919   0.00000  Uiso   1.00
H350   H     0.10542   0.57195   0.10516   0.00000  Uiso   1.00
H351   H     0.07910   0.62395   0.09477   0.00000  Uiso   1.00
H352   H     0.12708   0.61367   0.06790   0.00000  Uiso   1.00
H353   H     0.13943   0.66508   0.13156   0.00000  Uiso   1.00
H354   H     0.16809   0.61538   0.14059   0.00000  Uiso   1.00
H355   H     0.11240   0.58370   0.18875   0.00000  Uiso   1.00
H356   H     0.08200   0.62877   0.17958   0.00000  Uiso   1.00
C357   C     0.09982   0.37992   0.20068   0.00000  Uiso   1.00
C358   C     0.06278   0.38048   0.23188   0.00000  Uiso   1.00
C359   C     0.03643   0.33746   0.23415   0.00000  Uiso   1.00
H360   H     0.02281   0.66221   0.20034   0.00000  Uiso   1.00
H361   H     0.05544   0.64321   0.24898   0.00000  Uiso   1.00
H362   H     0.00996   0.34213   0.25606   0.00000  Uiso   1.00
H363   H     0.07462   0.38816   0.26658   0.00000  Uiso   1.00
H364   H     0.04135   0.40705   0.21932   0.00000  Uiso   1.00
H365   H     0.10856   0.41400   0.19071   0.00000  Uiso   1.00
H366   H     0.08890   0.36611   0.16801   0.00000  Uiso   1.00
C367   C     0.24183   0.62920   0.28011   0.00000  Uiso   1.00
C368   C     0.25323   0.60425   0.32439   0.00000  Uiso   1.00
C369   C     0.30070   0.59888   0.33127   0.00000  Uiso   1.00
H370   H     0.31302   0.58150   0.30271   0.00000  Uiso   1.00
H371   H     0.31685   0.63191   0.33439   0.00000  Uiso   1.00
H372   H     0.30786   0.57905   0.36250   0.00000  Uiso   1.00
H373   H     0.24261   0.62241   0.35324   0.00000  Uiso   1.00
H374   H     0.23811   0.57088   0.32451   0.00000  Uiso   1.00
H375   H     0.25000   0.61066   0.25061   0.00000  Uiso   1.00
H376   H     0.26308   0.65893   0.27782   0.00000  Uiso   1.00
C377   C     0.42023   0.49968   0.24938   0.00000  Uiso   1.00
C378   C     0.57983   0.50049   0.25039   0.00000  Uiso   1.00
C379   C     0.45923   0.42991   0.02305   0.00000  Uiso   1.00
C380   C     0.54159   0.56882   0.47725   0.00000  Uiso   1.00
C381   C     0.35581   0.47049   0.27819   0.00000  Uiso   1.00
C382   C     0.64449   0.53162   0.22279   0.00000  Uiso   1.00
C383   C     0.64622   0.47098   0.27854   0.00000  Uiso   1.00
C384   C     0.35421   0.53068   0.22189   0.00000  Uiso   1.00
C385   C     0.62415   0.50136   0.25082   0.00000  Uiso   1.00
C386   C     0.37605   0.49966   0.24922   0.00000  Uiso   1.00
C387   C     0.52411   0.35645   0.28091   0.00000  Uiso   1.00
C388   C     0.47269   0.64262   0.22131   0.00000  Uiso   1.00
C389   C     0.47120   0.35701   0.22296   0.00000  Uiso   1.00
C390   C     0.52987   0.64372   0.27451   0.00000  Uiso   1.00
C391   C     0.49993   0.50036   0.16362   0.00000  Uiso   1.00
C392   C     0.50003   0.49954   0.33643   0.00000  Uiso   1.00
C393   C     0.52029   0.53394   0.40758   0.00000  Uiso   1.00
C394   C     0.47914   0.46577   0.09272   0.00000  Uiso   1.00
C395   C     0.50036   0.49887   0.38442   0.00000  Uiso   1.00
C396   C     0.49994   0.50051   0.11573   0.00000  Uiso   1.00
C397   C     0.48024   0.46392   0.40697   0.00000  Uiso   1.00
C398   C     0.52172   0.53419   0.09325   0.00000  Uiso   1.00
C399   C     0.48006   0.46385   0.45336   0.00000  Uiso   1.00
C400   C     0.52160   0.53436   0.04692   0.00000  Uiso   1.00
C401   C     0.50059   0.49908   0.47688   0.00000  Uiso   1.00
C402   C     0.50056   0.49941   0.02343   0.00000  Uiso   1.00
C403   C     0.52097   0.53414   0.45382   0.00000  Uiso   1.00
C404   C     0.47953   0.46478   0.04650   0.00000  Uiso   1.00
C405   C     0.45961   0.42937   0.47655   0.00000  Uiso   1.00
C406   C     0.54210   0.56880   0.02378   0.00000  Uiso   1.00
H407   H     0.53548   0.56100   0.38971   0.00000  Uiso   1.00
H408   H     0.46258   0.43965   0.11081   0.00000  Uiso   1.00
H409   H     0.46430   0.43732   0.38841   0.00000  Uiso   1.00
H410   H     0.53906   0.55984   0.11183   0.00000  Uiso   1.00
H411   H     0.44383   0.40222   0.45874   0.00000  Uiso   1.00
H412   H     0.55820   0.59575   0.04161   0.00000  Uiso   1.00
H413   H     0.44316   0.40314   0.04067   0.00000  Uiso   1.00
H414   H     0.55734   0.59580   0.45961   0.00000  Uiso   1.00
H415   H     0.37317   0.44778   0.30053   0.00000  Uiso   1.00
H416   H     0.62711   0.55507   0.20130   0.00000  Uiso   1.00
H417   H     0.63056   0.44808   0.30068   0.00000  Uiso   1.00
H418   H     0.37040   0.55366   0.19985   0.00000  Uiso   1.00
N419   N     0.50000   0.61907   0.25000   0.00000  Uiso   1.00
N420   N     0.50000   0.38093   0.25000   0.00000  Uiso   1.00
O421   O     0.43892   0.53821   0.25000   0.00000  Uiso   1.00
O422   O     0.56108   0.46179   0.25001   0.00000  Uiso   1.00
O423   O     0.56108   0.53821   0.25001   0.00000  Uiso   1.00
O424   O     0.43892   0.46179   0.25000   0.00000  Uiso   1.00
O425   O     0.49999   0.53823   0.18393   0.00000  Uiso   1.00
O426   O     0.50001   0.46177   0.31608   0.00000  Uiso   1.00
O427   O     0.50001   0.53823   0.31608   0.00000  Uiso   1.00
O428   O     0.49999   0.46177   0.18393   0.00000  Uiso   1.00
Zn429  Zn    0.50000   0.55104   0.25000   0.00000  Uiso   1.00
Zn430  Zn    0.50000   0.44896   0.25000   0.00000  Uiso   1.00
C431   C     0.52928   0.37033   0.32938   0.00000  Uiso   1.00
C432   C     0.57059   0.39560   0.34150   0.00000  Uiso   1.00
C433   C     0.57908   0.39773   0.39221   0.00000  Uiso   1.00
H434   H     0.55264   0.41340   0.40786   0.00000  Uiso   1.00
H435   H     0.58333   0.36381   0.40697   0.00000  Uiso   1.00
H436   H     0.60826   0.41782   0.39977   0.00000  Uiso   1.00
H437   H     0.59752   0.37940   0.32741   0.00000  Uiso   1.00
H438   H     0.56893   0.42989   0.32786   0.00000  Uiso   1.00
H439   H     0.50159   0.38869   0.33826   0.00000  Uiso   1.00
H440   H     0.52720   0.34039   0.35173   0.00000  Uiso   1.00
C441   C     0.44850   0.61933   0.18295   0.00000  Uiso   1.00
C442   C     0.46932   0.62880   0.13842   0.00000  Uiso   1.00
C443   C     0.44358   0.60822   0.09919   0.00000  Uiso   1.00
H444   H     0.43875   0.57195   0.10516   0.00000  Uiso   1.00
H445   H     0.41243   0.62395   0.09477   0.00000  Uiso   1.00
H446   H     0.46041   0.61367   0.06790   0.00000  Uiso   1.00
H447   H     0.47276   0.66508   0.13156   0.00000  Uiso   1.00
H448   H     0.50142   0.61538   0.14059   0.00000  Uiso   1.00
H449   H     0.44573   0.58370   0.18875   0.00000  Uiso   1.00
H450   H     0.41533   0.62877   0.17958   0.00000  Uiso   1.00
C451   C     0.43316   0.37992   0.20068   0.00000  Uiso   1.00
C452   C     0.39611   0.38048   0.23188   0.00000  Uiso   1.00
C453   C     0.36976   0.33746   0.23415   0.00000  Uiso   1.00
H454   H     0.35614   0.66221   0.20034   0.00000  Uiso   1.00
H455   H     0.38878   0.64321   0.24898   0.00000  Uiso   1.00
H456   H     0.34330   0.34213   0.25606   0.00000  Uiso   1.00
H457   H     0.40796   0.38816   0.26658   0.00000  Uiso   1.00
H458   H     0.37469   0.40705   0.21932   0.00000  Uiso   1.00
H459   H     0.44189   0.41400   0.19071   0.00000  Uiso   1.00
H460   H     0.42224   0.36611   0.16801   0.00000  Uiso   1.00
C461   C     0.57517   0.62920   0.28011   0.00000  Uiso   1.00
C462   C     0.58656   0.60425   0.32439   0.00000  Uiso   1.00
C463   C     0.63403   0.59888   0.33127   0.00000  Uiso   1.00
H464   H     0.64635   0.58150   0.30271   0.00000  Uiso   1.00
H465   H     0.65018   0.63191   0.33439   0.00000  Uiso   1.00
H466   H     0.64119   0.57905   0.36250   0.00000  Uiso   1.00
H467   H     0.57594   0.62241   0.35324   0.00000  Uiso   1.00
H468   H     0.57144   0.57088   0.32451   0.00000  Uiso   1.00
H469   H     0.58334   0.61066   0.25061   0.00000  Uiso   1.00
H470   H     0.59642   0.65893   0.27782   0.00000  Uiso   1.00
C471   C     0.75356   0.49968   0.24938   0.00000  Uiso   1.00
C472   C     0.91316   0.50049   0.25039   0.00000  Uiso   1.00
C473   C     0.79257   0.42991   0.02305   0.00000  Uiso   1.00
C474   C     0.87492   0.56882   0.47725   0.00000  Uiso   1.00
C475   C     0.68914   0.47049   0.27819   0.00000  Uiso   1.00
C476   C     0.97783   0.53162   0.22279   0.00000  Uiso   1.00
C477   C     0.97955   0.47098   0.27854   0.00000  Uiso   1.00
C478   C     0.68755   0.53068   0.22189   0.00000  Uiso   1.00
C479   C     0.95748   0.50136   0.25082   0.00000  Uiso   1.00
C480   C     0.70938   0.49966   0.24922   0.00000  Uiso   1.00
C481   C     0.85744   0.35645   0.28091   0.00000  Uiso   1.00
C482   C     0.80602   0.64262   0.22131   0.00000  Uiso   1.00
C483   C     0.80453   0.35701   0.22296   0.00000  Uiso   1.00
C484   C     0.86320   0.64372   0.27451   0.00000  Uiso   1.00
C485   C     0.83326   0.50036   0.16362   0.00000  Uiso   1.00
C486   C     0.83336   0.49954   0.33643   0.00000  Uiso   1.00
C487   C     0.85363   0.53394   0.40758   0.00000  Uiso   1.00
C488   C     0.81247   0.46577   0.09272   0.00000  Uiso   1.00
C489   C     0.83369   0.49887   0.38442   0.00000  Uiso   1.00
C490   C     0.83327   0.50051   0.11573   0.00000  Uiso   1.00
C491   C     0.81358   0.46392   0.40697   0.00000  Uiso   1.00
C492   C     0.85505   0.53419   0.09325   0.00000  Uiso   1.00
C493   C     0.81339   0.46385   0.45336   0.00000  Uiso   1.00
C494   C     0.85493   0.53436   0.04692   0.00000  Uiso   1.00
C495   C     0.83392   0.49908   0.47688   0.00000  Uiso   1.00
C496   C     0.83389   0.49941   0.02343   0.00000  Uiso   1.00
C497   C     0.85430   0.53414   0.45382   0.00000  Uiso   1.00
C498   C     0.81286   0.46478   0.04650   0.00000  Uiso   1.00
C499   C     0.79295   0.42937   0.47655   0.00000  Uiso   1.00
C500   C     0.87543   0.56880   0.02378   0.00000  Uiso   1.00
H501   H     0.86881   0.56100   0.38971   0.00000  Uiso   1.00
H502   H     0.79591   0.43965   0.11081   0.00000  Uiso   1.00
H503   H     0.79763   0.43732   0.38841   0.00000  Uiso   1.00
H504   H     0.87239   0.55984   0.11183   0.00000  Uiso   1.00
H505   H     0.77717   0.40222   0.45874   0.00000  Uiso   1.00
H506   H     0.89153   0.59575   0.04161   0.00000  Uiso   1.00
H507   H     0.77649   0.40314   0.04067   0.00000  Uiso   1.00
H508   H     0.89067   0.59580   0.45961   0.00000  Uiso   1.00
H509   H     0.70650   0.44778   0.30053   0.00000  Uiso   1.00
H510   H     0.96044   0.55507   0.20130   0.00000  Uiso   1.00
H511   H     0.96390   0.44808   0.30068   0.00000  Uiso   1.00
H512   H     0.70374   0.55366   0.19985   0.00000  Uiso   1.00
N513   N     0.83333   0.61907   0.25000   0.00000  Uiso   1.00
N514   N     0.83333   0.38093   0.25000   0.00000  Uiso   1.00
O515   O     0.77226   0.53821   0.25000   0.00000  Uiso   1.00
O516   O     0.89441   0.46179   0.25001   0.00000  Uiso   1.00
O517   O     0.89441   0.53821   0.25001   0.00000  Uiso   1.00
O518   O     0.77226   0.46179   0.25000   0.00000  Uiso   1.00
O519   O     0.83333   0.53823   0.18393   0.00000  Uiso   1.00
O520   O     0.83334   0.46177   0.31608   0.00000  Uiso   1.00
O521   O     0.83334   0.53823   0.31608   0.00000  Uiso   1.00
O522   O     0.83333   0.46177   0.18393   0.00000  Uiso   1.00
Zn523  Zn    0.83333   0.55104   0.25000   0.00000  Uiso   1.00
Zn524  Zn    0.83333   0.44896   0.25000   0.00000  Uiso   1.00
C525   C     0.86261   0.37033   0.32938   0.00000  Uiso   1.00
C526   C     0.90392   0.39560   0.34150   0.00000  Uiso   1.00
C527   C     0.91241   0.39773   0.39221   0.00000  Uiso   1.00
H528   H     0.88598   0.41340   0.40786   0.00000  Uiso   1.00
H529   H     0.91666   0.36381   0.40697   0.00000  Uiso   1.00
H530   H     0.94159   0.41782   0.39977   0.00000  Uiso   1.00
H531   H     0.93085   0.37940   0.32741   0.00000  Uiso   1.00
H532   H     0.90226   0.42989   0.32786   0.00000  Uiso   1.00
H533   H     0.83493   0.38869   0.33826   0.00000  Uiso   1.00
H534   H     0.86054   0.34039   0.35173   0.00000  Uiso   1.00
C535   C     0.78184   0.61933   0.18295   0.00000  Uiso   1.00
C536   C     0.80265   0.62880   0.13842   0.00000  Uiso   1.00
C537   C     0.77691   0.60822   0.09919   0.00000  Uiso   1.00
H538   H     0.77209   0.57195   0.10516   0.00000  Uiso   1.00
H539   H     0.74577   0.62395   0.09477   0.00000  Uiso   1.00
H540   H     0.79375   0.61367   0.06790   0.00000  Uiso   1.00
H541   H     0.80610   0.66508   0.13156   0.00000  Uiso   1.00
H542   H     0.83475   0.61538   0.14059   0.00000  Uiso   1.00
H543   H     0.77906   0.58370   0.18875   0.00000  Uiso   1.00
H544   H     0.74867   0.62877   0.17958   0.00000  Uiso   1.00
C545   C     0.76649   0.37992   0.20068   0.00000  Uiso   1.00
C546   C     0.72944   0.38048   0.23188   0.00000  Uiso   1.00
C547   C     0.70309   0.33746   0.23415   0.00000  Uiso   1.00
H548   H     0.68947   0.66221   0.20034   0.00000  Uiso   1.00
H549   H     0.72211   0.64321   0.24898   0.00000  Uiso   1.00
H550   H     0.67663   0.34213   0.25606   0.00000  Uiso   1.00
H551   H     0.74129   0.38816   0.26658   0.00000  Uiso   1.00
H552   H     0.70802   0.40705   0.21932   0.00000  Uiso   1.00
H553   H     0.77523   0.41400   0.19071   0.00000  Uiso   1.00
H554   H     0.75557   0.36611   0.16801   0.00000  Uiso   1.00
C555   C     0.90850   0.62920   0.28011   0.00000  Uiso   1.00
C556   C     0.91989   0.60425   0.32439   0.00000  Uiso   1.00
C557   C     0.96737   0.59888   0.33127   0.00000  Uiso   1.00
H558   H     0.97968   0.58150   0.30271   0.00000  Uiso   1.00
H559   H     0.98351   0.63191   0.33439   0.00000  Uiso   1.00
H560   H     0.97453   0.57905   0.36250   0.00000  Uiso   1.00
H561   H     0.90928   0.62241   0.35324   0.00000  Uiso   1.00
H562   H     0.90477   0.57088   0.32451   0.00000  Uiso   1.00
H563   H     0.91667   0.61066   0.25061   0.00000  Uiso   1.00
H564   H     0.92975   0.65893   0.27782   0.00000  Uiso   1.00
C565   C     0.08690   0.83302   0.24938   0.00000  Uiso   1.00
C566   C     0.24649   0.83382   0.25039   0.00000  Uiso   1.00
C567   C     0.12590   0.76324   0.02305   0.00000  Uiso   1.00
C568   C     0.20826   0.90216   0.47725   0.00000  Uiso   1.00
C569   C     0.02248   0.80382   0.27819   0.00000  Uiso   1.00
C570   C     0.31116   0.86495   0.22279   0.00000  Uiso   1.00
C571   C     0.31288   0.80431   0.27854   0.00000  Uiso   1.00
C572   C     0.02088   0.86401   0.22189   0.00000  Uiso   1.00
C573   C     0.29082   0.83469   0.25082   0.00000  Uiso   1.00
C574   C     0.04271   0.83299   0.24922   0.00000  Uiso   1.00
C575   C     0.19078   0.68978   0.28091   0.00000  Uiso   1.00
C576   C     0.13935   0.97595   0.22131   0.00000  Uiso   1.00
C577   C     0.13787   0.69034   0.22296   0.00000  Uiso   1.00
C578   C     0.19654   0.97705   0.27451   0.00000  Uiso   1.00
C579   C     0.16660   0.83370   0.16362   0.00000  Uiso   1.00
C580   C     0.16669   0.83287   0.33643   0.00000  Uiso   1.00
C581   C     0.18696   0.86728   0.40758   0.00000  Uiso   1.00
C582   C     0.14581   0.79911   0.09272   0.00000  Uiso   1.00
C583   C     0.16702   0.83220   0.38442   0.00000  Uiso   1.00
C584   C     0.16660   0.83384   0.11573   0.00000  Uiso   1.00
C585   C     0.14691   0.79726   0.40697   0.00000  Uiso   1.00
C586   C     0.18839   0.86753   0.09325   0.00000  Uiso   1.00
C587   C     0.14673   0.79718   0.45336   0.00000  Uiso   1.00
C588   C     0.18827   0.86769   0.04692   0.00000  Uiso   1.00
C589   C     0.16725   0.83242   0.47688   0.00000  Uiso   1.00
C590   C     0.16722   0.83275   0.02343   0.00000  Uiso   1.00
C591   C     0.18763   0.86748   0.45382   0.00000  Uiso   1.00
C592   C     0.14620   0.79812   0.04650   0.00000  Uiso   1.00
C593   C     0.12628   0.76271   0.47655   0.00000  Uiso   1.00
C594   C     0.20877   0.90213   0.02378   0.00000  Uiso   1.00
H595   H     0.20214   0.89433   0.38971   0.00000  Uiso   1.00
H596   H     0.12924   0.77298   0.11081   0.00000  Uiso   1.00
H597   H     0.13097   0.77065   0.38841   0.00000  Uiso   1.00
H598   H     0.20572   0.89317   0.11183   0.00000  Uiso   1.00
H599   H     0.11050   0.73555   0.45874   0.00000  Uiso   1.00
H600   H     0.22487   0.92908   0.04161   0.00000  Uiso   1.00
H601   H     0.10983   0.73648   0.04067   0.00000  Uiso   1.00
H602   H     0.22400   0.92913   0.45961   0.00000  Uiso   1.00
H603   H     0.03983   0.78111   0.30053   0.00000  Uiso   1.00
H604   H     0.29378   0.88840   0.20130   0.00000  Uiso   1.00
H605   H     0.29723   0.78142   0.30068   0.00000  Uiso   1.00
H606   H     0.03707   0.88699   0.19985   0.00000  Uiso   1.00
N607   N     0.16667   0.95240   0.25000   0.00000  Uiso   1.00
N608   N     0.16667   0.71427   0.25000   0.00000  Uiso   1.00
O609   O     0.10559   0.87154   0.25000   0.00000  Uiso   1.00
O610   O     0.22774   0.79513   0.25001   0.00000  Uiso   1.00
O611   O     0.22774   0.87154   0.25001   0.00000  Uiso   1.00
O612   O     0.10559   0.79513   0.25000   0.00000  Uiso   1.00
O613   O     0.16666   0.87156   0.18393   0.00000  Uiso   1.00
O614   O     0.16667   0.79511   0.31608   0.00000  Uiso   1.00
O615   O     0.16667   0.87156   0.31608   0.00000  Uiso   1.00
O616   O     0.16666   0.79511   0.18393   0.00000  Uiso   1.00
Zn617  Zn    0.16667   0.88437   0.25000   0.00000  Uiso   1.00
Zn618  Zn    0.16667   0.78229   0.25000   0.00000  Uiso   1.00
C619   C     0.19594   0.70366   0.32938   0.00000  Uiso   1.00
C620   C     0.23726   0.72893   0.34150   0.00000  Uiso   1.00
C621   C     0.24575   0.73106   0.39221   0.00000  Uiso   1.00
H622   H     0.21931   0.74673   0.40786   0.00000  Uiso   1.00
H623   H     0.24999   0.69714   0.40697   0.00000  Uiso   1.00
H624   H     0.27493   0.75115   0.39977   0.00000  Uiso   1.00
H625   H     0.26418   0.71273   0.32741   0.00000  Uiso   1.00
H626   H     0.23560   0.76322   0.32786   0.00000  Uiso   1.00
H627   H     0.16826   0.72202   0.33826   0.00000  Uiso   1.00
H628   H     0.19387   0.67372   0.35173   0.00000  Uiso   1.00
C629   C     0.11517   0.95267   0.18295   0.00000  Uiso   1.00
C630   C     0.13599   0.96214   0.13842   0.00000  Uiso   1.00
C631   C     0.11024   0.94155   0.09919   0.00000  Uiso   1.00
H632   H     0.10542   0.90528   0.10516   0.00000  Uiso   1.00
H633   H     0.07910   0.95729   0.09477   0.00000  Uiso   1.00
H634   H     0.12708   0.94701   0.06790   0.00000  Uiso   1.00
H635   H     0.13943   0.99842   0.13156   0.00000  Uiso   1.00
H636   H     0.16809   0.94871   0.14059   0.00000  Uiso   1.00
H637   H     0.11240   0.91703   0.18875   0.00000  Uiso   1.00
H638   H     0.08200   0.96210   0.17958   0.00000  Uiso   1.00
C639   C     0.09982   0.71326   0.20068   0.00000  Uiso   1.00
C640   C     0.06278   0.71381   0.23188   0.00000  Uiso   1.00
C641   C     0.03643   0.67079   0.23415   0.00000  Uiso   1.00
H642   H     0.02281   0.99555   0.20034   0.00000  Uiso   1.00
H643   H     0.05544   0.97654   0.24898   0.00000  Uiso   1.00
H644   H     0.00996   0.67546   0.25606   0.00000  Uiso   1.00
H645   H     0.07462   0.72149   0.26658   0.00000  Uiso   1.00
H646   H     0.04135   0.74038   0.21932   0.00000  Uiso   1.00
H647   H     0.10856   0.74734   0.19071   0.00000  Uiso   1.00
H648   H     0.08890   0.69945   0.16801   0.00000  Uiso   1.00
C649   C     0.24183   0.96254   0.28011   0.00000  Uiso   1.00
C650   C     0.25323   0.93758   0.32439   0.00000  Uiso   1.00
C651   C     0.30070   0.93221   0.33127   0.00000  Uiso   1.00
H652   H     0.31302   0.91483   0.30271   0.00000  Uiso   1.00
H653   H     0.31685   0.96524   0.33439   0.00000  Uiso   1.00
H654   H     0.30786   0.91238   0.36250   0.00000  Uiso   1.00
H655   H     0.24261   0.95574   0.35324   0.00000  Uiso   1.00
H656   H     0.23811   0.90421   0.32451   0.00000  Uiso   1.00
H657   H     0.25000   0.94399   0.25061   0.00000  Uiso   1.00
H658   H     0.26308   0.99226   0.27782   0.00000  Uiso   1.00
C659   C     0.42023   0.83302   0.24938   0.00000  Uiso   1.00
C660   C     0.57983   0.83382   0.25039   0.00000  Uiso   1.00
C661   C     0.45923   0.76324   0.02305   0.00000  Uiso   1.00
C662   C     0.54159   0.90216   0.47725   0.00000  Uiso   1.00
C663   C     0.35581   0.80382   0.27819   0.00000  Uiso   1.00
C664   C     0.64449   0.86495   0.22279   0.00000  Uiso   1.00
C665   C     0.64622   0.80431   0.27854   0.00000  Uiso   1.00
C666   C     0.35421   0.86401   0.22189   0.00000  Uiso   1.00
C667   C     0.62415   0.83469   0.25082   0.00000  Uiso   1.00
C668   C     0.37605   0.83299   0.24922   0.00000  Uiso   1.00
C669   C     0.52411   0.68978   0.28091   0.00000  Uiso   1.00
C670   C     0.47269   0.97595   0.22131   0.00000  Uiso   1.00
C671   C     0.47120   0.69034   0.22296   0.00000  Uiso   1.00
C672   C     0.52987   0.97705   0.27451   0.00000  Uiso   1.00
C673   C     0.49993   0.83370   0.16362   0.00000  Uiso   1.00
C674   C     0.50003   0.83287   0.33643   0.00000  Uiso   1.00
C675   C     0.52029   0.86728   0.40758   0.00000  Uiso   1.00
C676   C     0.47914   0.79911   0.09272   0.00000  Uiso   1.00
C677   C     0.50036   0.83220   0.38442   0.00000  Uiso   1.00
C678   C     0.49994   0.83384   0.11573   0.00000  Uiso   1.00
C679   C     0.48024   0.79726   0.40697   0.00000  Uiso   1.00
C680   C     0.52172   0.86753   0.09325   0.00000  Uiso   1.00
C681   C     0.48006   0.79718   0.45336   0.00000  Uiso   1.00
C682   C     0.52160   0.86769   0.04692   0.00000  Uiso   1.00
C683   C     0.50059   0.83242   0.47688   0.00000  Uiso   1.00
C684   C     0.50056   0.83275   0.02343   0.00000  Uiso   1.00
C685   C     0.52097   0.86748   0.45382   0.00000  Uiso   1.00
C686   C     0.47953   0.79812   0.04650   0.00000  Uiso   1.00
C687   C     0.45961   0.76271   0.47655   0.00000  Uiso   1.00
C688   C     0.54210   0.90213   0.02378   0.00000  Uiso   1.00
H689   H     0.53548   0.89433   0.38971   0.00000  Uiso   1.00
H690   H     0.46258   0.77298   0.11081   0.00000  Uiso   1.00
H691   H     0.46430   0.77065   0.38841   0.00000  Uiso   1.00
H692   H     0.53906   0.89317   0.11183   0.00000  Uiso   1.00
H693   H     0.44383   0.73555   0.45874   0.00000  Uiso   1.00
H694   H     0.55820   0.92908   0.04161   0.00000  Uiso   1.00
H695   H     0.44316   0.73648   0.04067   0.00000  Uiso   1.00
H696   H     0.55734   0.92913   0.45961   0.00000  Uiso   1.00
H697   H     0.37317   0.78111   0.30053   0.00000  Uiso   1.00
H698   H     0.62711   0.88840   0.20130   0.00000  Uiso   1.00
H699   H     0.63056   0.78142   0.30068   0.00000  Uiso   1.00
H700   H     0.37040   0.88699   0.19985   0.00000  Uiso   1.00
N701   N     0.50000   0.95240   0.25000   0.00000  Uiso   1.00
N702   N     0.50000   0.71427   0.25000   0.00000  Uiso   1.00
O703   O     0.43892   0.87154   0.25000   0.00000  Uiso   1.00
O704   O     0.56108   0.79513   0.25001   0.00000  Uiso   1.00
O705   O     0.56108   0.87154   0.25001   0.00000  Uiso   1.00
O706   O     0.43892   0.79513   0.25000   0.00000  Uiso   1.00
O707   O     0.49999   0.87156   0.18393   0.00000  Uiso   1.00
O708   O     0.50001   0.79511   0.31608   0.00000  Uiso   1.00
O709   O     0.50001   0.87156   0.31608   0.00000  Uiso   1.00
O710   O     0.49999   0.79511   0.18393   0.00000  Uiso   1.00
Zn711  Zn    0.50000   0.88437   0.25000   0.00000  Uiso   1.00
Zn712  Zn    0.50000   0.78229   0.25000   0.00000  Uiso   1.00
C713   C     0.52928   0.70366   0.32938   0.00000  Uiso   1.00
C714   C     0.57059   0.72893   0.34150   0.00000  Uiso   1.00
C715   C     0.57908   0.73106   0.39221   0.00000  Uiso   1.00
H716   H     0.55264   0.74673   0.40786   0.00000  Uiso   1.00
H717   H     0.58333   0.69714   0.40697   0.00000  Uiso   1.00
H718   H     0.60826   0.75115   0.39977   0.00000  Uiso   1.00
H719   H     0.59752   0.71273   0.32741   0.00000  Uiso   1.00
H720   H     0.56893   0.76322   0.32786   0.00000  Uiso   1.00
H721   H     0.50159   0.72202   0.33826   0.00000  Uiso   1.00
H722   H     0.52720   0.67372   0.35173   0.00000  Uiso   1.00
C723   C     0.44850   0.95267   0.18295   0.00000  Uiso   1.00
C724   C     0.46932   0.96214   0.13842   0.00000  Uiso   1.00
C725   C     0.44358   0.94155   0.09919   0.00000  Uiso   1.00
H726   H     0.43875   0.90528   0.10516   0.00000  Uiso   1.00
H727   H     0.41243   0.95729   0.09477   0.00000  Uiso   1.00
H728   H     0.46041   0.94701   0.06790   0.00000  Uiso   1.00
H729   H     0.47276   0.99842   0.13156   0.00000  Uiso   1.00
H730   H     0.50142   0.94871   0.14059   0.00000  Uiso   1.00
H731   H     0.44573   0.91703   0.18875   0.00000  Uiso   1.00
H732   H     0.41533   0.96210   0.17958   0.00000  Uiso   1.00
C733   C     0.43316   0.71326   0.20068   0.00000  Uiso   1.00
C734   C     0.39611   0.71381   0.23188   0.00000  Uiso   1.00
C735   C     0.36976   0.67079   0.23415   0.00000  Uiso   1.00
H736   H     0.35614   0.99555   0.20034   0.00000  Uiso   1.00
H737   H     0.38878   0.97654   0.24898   0.00000  Uiso   1.00
H738   H     0.34330   0.67546   0.25606   0.00000  Uiso   1.00
H739   H     0.40796   0.72149   0.26658   0.00000  Uiso   1.00
H740   H     0.37469   0.74038   0.21932   0.00000  Uiso   1.00
H741   H     0.44189   0.74734   0.19071   0.00000  Uiso   1.00
H742   H     0.42224   0.69945   0.16801   0.00000  Uiso   1.00
C743   C     0.57517   0.96254   0.28011   0.00000  Uiso   1.00
C744   C     0.58656   0.93758   0.32439   0.00000  Uiso   1.00
C745   C     0.63403   0.93221   0.33127   0.00000  Uiso   1.00
H746   H     0.64635   0.91483   0.30271   0.00000  Uiso   1.00
H747   H     0.65018   0.96524   0.33439   0.00000  Uiso   1.00
H748   H     0.64119   0.91238   0.36250   0.00000  Uiso   1.00
H749   H     0.57594   0.95574   0.35324   0.00000  Uiso   1.00
H750   H     0.57144   0.90421   0.32451   0.00000  Uiso   1.00
H751   H     0.58334   0.94399   0.25061   0.00000  Uiso   1.00
H752   H     0.59642   0.99226   0.27782   0.00000  Uiso   1.00
C753   C     0.75356   0.83302   0.24938   0.00000  Uiso   1.00
C754   C     0.91316   0.83382   0.25039   0.00000  Uiso   1.00
C755   C     0.79257   0.76324   0.02305   0.00000  Uiso   1.00
C756   C     0.87492   0.90216   0.47725   0.00000  Uiso   1.00
C757   C     0.68914   0.80382   0.27819   0.00000  Uiso   1.00
C758   C     0.97783   0.86495   0.22279   0.00000  Uiso   1.00
C759   C     0.97955   0.80431   0.27854   0.00000  Uiso   1.00
C760   C     0.68755   0.86401   0.22189   0.00000  Uiso   1.00
C761   C     0.95748   0.83469   0.25082   0.00000  Uiso   1.00
C762   C     0.70938   0.83299   0.24922   0.00000  Uiso   1.00
C763   C     0.85744   0.68978   0.28091   0.00000  Uiso   1.00
C764   C     0.80602   0.97595   0.22131   0.00000  Uiso   1.00
C765   C     0.80453   0.69034   0.22296   0.00000  Uiso   1.00
C766   C     0.86320   0.97705   0.27451   0.00000  Uiso   1.00
C767   C     0.83326   0.83370   0.16362   0.00000  Uiso   1.00
C768   C     0.83336   0.83287   0.33643   0.00000  Uiso   1.00
C769   C     0.85363   0.86728   0.40758   0.00000  Uiso   1.00
C770   C     0.81247   0.79911   0.09272   0.00000  Uiso   1.00
C771   C     0.83369   0.83220   0.38442   0.00000  Uiso   1.00
C772   C     0.83327   0.83384   0.11573   0.00000  Uiso   1.00
C773   C     0.81358   0.79726   0.40697   0.00000  Uiso   1.00
C774   C     0.85505   0.86753   0.09325   0.00000  Uiso   1.00
C775   C     0.81339   0.79718   0.45336   0.00000  Uiso   1.00
C776   C     0.85493   0.86769   0.04692   0.00000  Uiso   1.00
C777   C     0.83392   0.83242   0.47688   0.00000  Uiso   1.00
C778   C     0.83389   0.83275   0.02343   0.00000  Uiso   1.00
C779   C     0.85430   0.86748   0.45382   0.00000  Uiso   1.00
C780   C     0.81286   0.79812   0.04650   0.00000  Uiso   1.00
C781   C     0.79295   0.76271   0.47655   0.00000  Uiso   1.00
C782   C     0.87543   0.90213   0.02378   0.00000  Uiso   1.00
H783   H     0.86881   0.89433   0.38971   0.00000  Uiso   1.00
H784   H     0.79591   0.77298   0.11081   0.00000  Uiso   1.00
H785   H     0.79763   0.77065   0.38841   0.00000  Uiso   1.00
H786   H     0.87239   0.89317   0.11183   0.00000  Uiso   1.00
H787   H     0.77717   0.73555   0.45874   0.00000  Uiso   1.00
H788   H     0.89153   0.92908   0.04161   0.00000  Uiso   1.00
H789   H     0.77649   0.73648   0.04067   0.00000  Uiso   1.00
H790   H     0.89067   0.92913   0.45961   0.00000  Uiso   1.00
H791   H     0.70650   0.78111   0.30053   0.00000  Uiso   1.00
H792   H     0.96044   0.88840   0.20130   0.00000  Uiso   1.00
H793   H     0.96390   0.78142   0.30068   0.00000  Uiso   1.00
H794   H     0.70374   0.88699   0.19985   0.00000  Uiso   1.00
N795   N     0.83333   0.95240   0.25000   0.00000  Uiso   1.00
N796   N     0.83333   0.71427   0.25000   0.00000  Uiso   1.00
O797   O     0.77226   0.87154   0.25000   0.00000  Uiso   1.00
O798   O     0.89441   0.79513   0.25001   0.00000  Uiso   1.00
O799   O     0.89441   0.87154   0.25001   0.00000  Uiso   1.00
O800   O     0.77226   0.79513   0.25000   0.00000  Uiso   1.00
O801   O     0.83333   0.87156   0.18393   0.00000  Uiso   1.00
O802   O     0.83334   0.79511   0.31608   0.00000  Uiso   1.00
O803   O     0.83334   0.87156   0.31608   0.00000  Uiso   1.00
O804   O     0.83333   0.79511   0.18393   0.00000  Uiso   1.00
Zn805  Zn    0.83333   0.88437   0.25000   0.00000  Uiso   1.00
Zn806  Zn    0.83333   0.78229   0.25000   0.00000  Uiso   1.00
C807   C     0.86261   0.70366   0.32938   0.00000  Uiso   1.00
C808   C     0.90392   0.72893   0.34150   0.00000  Uiso   1.00
C809   C     0.91241   0.73106   0.39221   0.00000  Uiso   1.00
H810   H     0.88598   0.74673   0.40786   0.00000  Uiso   1.00
H811   H     0.91666   0.69714   0.40697   0.00000  Uiso   1.00
H812   H     0.94159   0.75115   0.39977   0.00000  Uiso   1.00
H813   H     0.93085   0.71273   0.32741   0.00000  Uiso   1.00
H814   H     0.90226   0.76322   0.32786   0.00000  Uiso   1.00
H815   H     0.83493   0.72202   0.33826   0.00000  Uiso   1.00
H816   H     0.86054   0.67372   0.35173   0.00000  Uiso   1.00
C817   C     0.78184   0.95267   0.18295   0.00000  Uiso   1.00
C818   C     0.80265   0.96214   0.13842   0.00000  Uiso   1.00
C819   C     0.77691   0.94155   0.09919   0.00000  Uiso   1.00
H820   H     0.77209   0.90528   0.10516   0.00000  Uiso   1.00
H821   H     0.74577   0.95729   0.09477   0.00000  Uiso   1.00
H822   H     0.79375   0.94701   0.06790   0.00000  Uiso   1.00
H823   H     0.80610   0.99842   0.13156   0.00000  Uiso   1.00
H824   H     0.83475   0.94871   0.14059   0.00000  Uiso   1.00
H825   H     0.77906   0.91703   0.18875   0.00000  Uiso   1.00
H826   H     0.74867   0.96210   0.17958   0.00000  Uiso   1.00
C827   C     0.76649   0.71326   0.20068   0.00000  Uiso   1.00
C828   C     0.72944   0.71381   0.23188   0.00000  Uiso   1.00
C829   C     0.70309   0.67079   0.23415   0.00000  Uiso   1.00
H830   H     0.68947   0.99555   0.20034   0.00000  Uiso   1.00
H831   H     0.72211   0.97654   0.24898   0.00000  Uiso   1.00
H832   H     0.67663   0.67546   0.25606   0.00000  Uiso   1.00
H833   H     0.74129   0.72149   0.26658   0.00000  Uiso   1.00
H834   H     0.70802   0.74038   0.21932   0.00000  Uiso   1.00
H835   H     0.77523   0.74734   0.19071   0.00000  Uiso   1.00
H836   H     0.75557   0.69945   0.16801   0.00000  Uiso   1.00
C837   C     0.90850   0.96254   0.28011   0.00000  Uiso   1.00
C838   C     0.91989   0.93758   0.32439   0.00000  Uiso   1.00
C839   C     0.96737   0.93221   0.33127   0.00000  Uiso   1.00
H840   H     0.97968   0.91483   0.30271   0.00000  Uiso   1.00
H841   H     0.98351   0.96524   0.33439   0.00000  Uiso   1.00
H842   H     0.97453   0.91238   0.36250   0.00000  Uiso   1.00
H843   H     0.90928   0.95574   0.35324   0.00000  Uiso   1.00
H844   H     0.90477   0.90421   0.32451   0.00000  Uiso   1.00
H845   H     0.91667   0.94399   0.25061   0.00000  Uiso   1.00
H846   H     0.92975   0.99226   0.27782   0.00000  Uiso   1.00
C847   C     0.08690   0.16635   0.74938   0.00000  Uiso   1.00
C848   C     0.24649   0.16716   0.75039   0.00000  Uiso   1.00
C849   C     0.12590   0.09658   0.52305   0.00000  Uiso   1.00
C850   C     0.20826   0.23549   0.97725   0.00000  Uiso   1.00
C851   C     0.02248   0.13716   0.77819   0.00000  Uiso   1.00
C852   C     0.31116   0.19828   0.72279   0.00000  Uiso   1.00
C853   C     0.31288   0.13764   0.77854   0.00000  Uiso   1.00
C854   C     0.02088   0.19734   0.72189   0.00000  Uiso   1.00
C855   C     0.29082   0.16802   0.75082   0.00000  Uiso   1.00
C856   C     0.04271   0.16632   0.74922   0.00000  Uiso   1.00
C857   C     0.19078   0.02311   0.78091   0.00000  Uiso   1.00
C858   C     0.13935   0.30929   0.72131   0.00000  Uiso   1.00
C859   C     0.13787   0.02368   0.72296   0.00000  Uiso   1.00
C860   C     0.19654   0.31039   0.77451   0.00000  Uiso   1.00
C861   C     0.16660   0.16703   0.66362   0.00000  Uiso   1.00
C862   C     0.16669   0.16621   0.83643   0.00000  Uiso   1.00
C863   C     0.18696   0.20061   0.90758   0.00000  Uiso   1.00
C864   C     0.14581   0.13244   0.59272   0.00000  Uiso   1.00
C865   C     0.16702   0.16553   0.88442   0.00000  Uiso   1.00
C866   C     0.16660   0.16718   0.61573   0.00000  Uiso   1.00
C867   C     0.14691   0.13059   0.90697   0.00000  Uiso   1.00
C868   C     0.18839   0.20086   0.59325   0.00000  Uiso   1.00
C869   C     0.14673   0.13051   0.95336   0.00000  Uiso   1.00
C870   C     0.18827   0.20103   0.54692   0.00000  Uiso   1.00
C871   C     0.16725   0.16575   0.97688   0.00000  Uiso   1.00
C872   C     0.16722   0.16608   0.52343   0.00000  Uiso   1.00
C873   C     0.18763   0.20081   0.95382   0.00000  Uiso   1.00
C874   C     0.14620   0.13145   0.54650   0.00000  Uiso   1.00
C875   C     0.12628   0.09604   0.97655   0.00000  Uiso   1.00
C876   C     0.20877   0.23546   0.52378   0.00000  Uiso   1.00
H877   H     0.20214   0.22767   0.88971   0.00000  Uiso   1.00
H878   H     0.12924   0.10631   0.61081   0.00000  Uiso   1.00
H879   H     0.13097   0.10399   0.88841   0.00000  Uiso   1.00
H880   H     0.20572   0.22651   0.61183   0.00000  Uiso   1.00
H881   H     0.11050   0.06888   0.95874   0.00000  Uiso   1.00
H882   H     0.22487   0.26242   0.54161   0.00000  Uiso   1.00
H883   H     0.10983   0.06981   0.54067   0.00000  Uiso   1.00
H884   H     0.22400   0.26247   0.95961   0.00000  Uiso   1.00
H885   H     0.03983   0.11444   0.80053   0.00000  Uiso   1.00
H886   H     0.29378   0.22174   0.70130   0.00000  Uiso   1.00
H887   H     0.29723   0.11475   0.80068   0.00000  Uiso   1.00
H888   H     0.03707   0.22033   0.69985   0.00000  Uiso   1.00
N889   N     0.16667   0.28573   0.75000   0.00000  Uiso   1.00
N890   N     0.16667   0.04760   0.75000   0.00000  Uiso   1.00
O891   O     0.10559   0.20487   0.75000   0.00000  Uiso   1.00
O892   O     0.22774   0.12846   0.75001   0.00000  Uiso   1.00
O893   O     0.22774   0.20487   0.75001   0.00000  Uiso   1.00
O894   O     0.10559   0.12846   0.75000   0.00000  Uiso   1.00
O895   O     0.16666   0.20489   0.68393   0.00000  Uiso   1.00
O896   O     0.16667   0.12844   0.81608   0.00000  Uiso   1.00
O897   O     0.16667   0.20489   0.81608   0.00000  Uiso   1.00
O898   O     0.16666   0.12844   0.68393   0.00000  Uiso   1.00
Zn899  Zn    0.16667   0.21771   0.75000   0.00000  Uiso   1.00
Zn900  Zn    0.16667   0.11563   0.75000   0.00000  Uiso   1.00
C901   C     0.19594   0.03700   0.82938   0.00000  Uiso   1.00
C902   C     0.23726   0.06227   0.84150   0.00000  Uiso   1.00
C903   C     0.24575   0.06440   0.89221   0.00000  Uiso   1.00
H904   H     0.21931   0.08007   0.90786   0.00000  Uiso   1.00
H905   H     0.24999   0.03047   0.90697   0.00000  Uiso   1.00
H906   H     0.27493   0.08448   0.89977   0.00000  Uiso   1.00
H907   H     0.26418   0.04606   0.82741   0.00000  Uiso   1.00
H908   H     0.23560   0.09656   0.82786   0.00000  Uiso   1.00
H909   H     0.16826   0.05536   0.83826   0.00000  Uiso   1.00
H910   H     0.19387   0.00706   0.85173   0.00000  Uiso   1.00
C911   C     0.11517   0.28600   0.68295   0.00000  Uiso   1.00
C912   C     0.13599   0.29547   0.63842   0.00000  Uiso   1.00
C913   C     0.11024   0.27489   0.59919   0.00000  Uiso   1.00
H914   H     0.10542   0.23862   0.60516   0.00000  Uiso   1.00
H915   H     0.07910   0.29062   0.59477   0.00000  Uiso   1.00
H916   H     0.12708   0.28034   0.56790   0.00000  Uiso   1.00
H917   H     0.13943   0.33175   0.63156   0.00000  Uiso   1.00
H918   H     0.16809   0.28204   0.64059   0.00000  Uiso   1.00
H919   H     0.11240   0.25037   0.68875   0.00000  Uiso   1.00
H920   H     0.08200   0.29544   0.67958   0.00000  Uiso   1.00
C921   C     0.09982   0.04659   0.70068   0.00000  Uiso   1.00
C922   C     0.06278   0.04715   0.73188   0.00000  Uiso   1.00
C923   C     0.03643   0.00412   0.73415   0.00000  Uiso   1.00
H924   H     0.02281   0.32888   0.70034   0.00000  Uiso   1.00
H925   H     0.05544   0.30988   0.74898   0.00000  Uiso   1.00
H926   H     0.00996   0.00879   0.75606   0.00000  Uiso   1.00
H927   H     0.07462   0.05482   0.76658   0.00000  Uiso   1.00
H928   H     0.04135   0.07372   0.71932   0.00000  Uiso   1.00
H929   H     0.10856   0.08067   0.69071   0.00000  Uiso   1.00
H930   H     0.08890   0.03278   0.66801   0.00000  Uiso   1.00
C931   C     0.24183   0.29587   0.78011   0.00000  Uiso   1.00
C932   C     0.25323   0.27091   0.82439   0.00000  Uiso   1.00
C933   C     0.30070   0.26554   0.83127   0.00000  Uiso   1.00
H934   H     0.31302   0.24816   0.80271   0.00000  Uiso   1.00
H935   H     0.31685   0.29857   0.83439   0.00000  Uiso   1.00
H936   H     0.30786   0.24572   0.86250   0.00000  Uiso   1.00
H937   H     0.24261   0.28908   0.85324   0.00000  Uiso   1.00
H938   H     0.23811   0.23755   0.82451   0.00000  Uiso   1.00
H939   H     0.25000   0.27733   0.75061   0.00000  Uiso   1.00
H940   H     0.26308   0.32559   0.77782   0.00000  Uiso   1.00
C941   C     0.42023   0.16635   0.74938   0.00000  Uiso   1.00
C942   C     0.57983   0.16716   0.75039   0.00000  Uiso   1.00
C943   C     0.45923   0.09658   0.52305   0.00000  Uiso   1.00
C944   C     0.54159   0.23549   0.97725   0.00000  Uiso   1.00
C945   C     0.35581   0.13716   0.77819   0.00000  Uiso   1.00
C946   C     0.64449   0.19828   0.72279   0.00000  Uiso   1.00
C947   C     0.64622   0.13764   0.77854   0.00000  Uiso   1.00
C948   C     0.35421   0.19734   0.72189   0.00000  Uiso   1.00
C949   C     0.62415   0.16802   0.75082   0.00000  Uiso   1.00
C950   C     0.37605   0.16632   0.74922   0.00000  Uiso   1.00
C951   C     0.52411   0.02311   0.78091   0.00000  Uiso   1.00
C952   C     0.47269   0.30929   0.72131   0.00000  Uiso   1.00
C953   C     0.47120   0.02368   0.72296   0.00000  Uiso   1.00
C954   C     0.52987   0.31039   0.77451   0.00000  Uiso   1.00
C955   C     0.49993   0.16703   0.66362   0.00000  Uiso   1.00
C956   C     0.50003   0.16621   0.83643   0.00000  Uiso   1.00
C957   C     0.52029   0.20061   0.90758   0.00000  Uiso   1.00
C958   C     0.47914   0.13244   0.59272   0.00000  Uiso   1.00
C959   C     0.50036   0.16553   0.88442   0.00000  Uiso   1.00
C960   C     0.49994   0.16718   0.61573   0.00000  Uiso   1.00
C961   C     0.48024   0.13059   0.90697   0.00000  Uiso   1.00
C962   C     0.52172   0.20086   0.59325   0.00000  Uiso   1.00
C963   C     0.48006   0.13051   0.95336   0.00000  Uiso   1.00
C964   C     0.52160   0.20103   0.54692   0.00000  Uiso   1.00
C965   C     0.50059   0.16575   0.97688   0.00000  Uiso   1.00
C966   C     0.50056   0.16608   0.52343   0.00000  Uiso   1.00
C967   C     0.52097   0.20081   0.95382   0.00000  Uiso   1.00
C968   C     0.47953   0.13145   0.54650   0.00000  Uiso   1.00
C969   C     0.45961   0.09604   0.97655   0.00000  Uiso   1.00
C970   C     0.54210   0.23546   0.52378   0.00000  Uiso   1.00
H971   H     0.53548   0.22767   0.88971   0.00000  Uiso   1.00
H972   H     0.46258   0.10631   0.61081   0.00000  Uiso   1.00
H973   H     0.46430   0.10399   0.88841   0.00000  Uiso   1.00
H974   H     0.53906   0.22651   0.61183   0.00000  Uiso   1.00
H975   H     0.44383   0.06888   0.95874   0.00000  Uiso   1.00
H976   H     0.55820   0.26242   0.54161   0.00000  Uiso   1.00
H977   H     0.44316   0.06981   0.54067   0.00000  Uiso   1.00
H978   H     0.55734   0.26247   0.95961   0.00000  Uiso   1.00
H979   H     0.37317   0.11444   0.80053   0.00000  Uiso   1.00
H980   H     0.62711   0.22174   0.70130   0.00000  Uiso   1.00
H981   H     0.63056   0.11475   0.80068   0.00000  Uiso   1.00
H982   H     0.37040   0.22033   0.69985   0.00000  Uiso   1.00
N983   N     0.50000   0.28573   0.75000   0.00000  Uiso   1.00
N984   N     0.50000   0.04760   0.75000   0.00000  Uiso   1.00
O985   O     0.43892   0.20487   0.75000   0.00000  Uiso   1.00
O986   O     0.56108   0.12846   0.75001   0.00000  Uiso   1.00
O987   O     0.56108   0.20487   0.75001   0.00000  Uiso   1.00
O988   O     0.43892   0.12846   0.75000   0.00000  Uiso   1.00
O989   O     0.49999   0.20489   0.68393   0.00000  Uiso   1.00
O990   O     0.50001   0.12844   0.81608   0.00000  Uiso   1.00
O991   O     0.50001   0.20489   0.81608   0.00000  Uiso   1.00
O992   O     0.49999   0.12844   0.68393   0.00000  Uiso   1.00
Zn993  Zn    0.50000   0.21771   0.75000   0.00000  Uiso   1.00
Zn994  Zn    0.50000   0.11563   0.75000   0.00000  Uiso   1.00
C995   C     0.52928   0.03700   0.82938   0.00000  Uiso   1.00
C996   C     0.57059   0.06227   0.84150   0.00000  Uiso   1.00
C997   C     0.57908   0.06440   0.89221   0.00000  Uiso   1.00
H998   H     0.55264   0.08007   0.90786   0.00000  Uiso   1.00
H999   H     0.58333   0.03047   0.90697   0.00000  Uiso   1.00
H1000  H     0.60826   0.08448   0.89977   0.00000  Uiso   1.00
H1001  H     0.59752   0.04606   0.82741   0.00000  Uiso   1.00
H1002  H     0.56893   0.09656   0.82786   0.00000  Uiso   1.00
H1003  H     0.50159   0.05536   0.83826   0.00000  Uiso   1.00
H1004  H     0.52720   0.00706   0.85173   0.00000  Uiso   1.00
C1005  C     0.44850   0.28600   0.68295   0.00000  Uiso   1.00
C1006  C     0.46932   0.29547   0.63842   0.00000  Uiso   1.00
C1007  C     0.44358   0.27489   0.59919   0.00000  Uiso   1.00
H1008  H     0.43875   0.23862   0.60516   0.00000  Uiso   1.00
H1009  H     0.41243   0.29062   0.59477   0.00000  Uiso   1.00
H1010  H     0.46041   0.28034   0.56790   0.00000  Uiso   1.00
H1011  H     0.47276   0.33175   0.63156   0.00000  Uiso   1.00
H1012  H     0.50142   0.28204   0.64059   0.00000  Uiso   1.00
H1013  H     0.44573   0.25037   0.68875   0.00000  Uiso   1.00
H1014  H     0.41533   0.29544   0.67958   0.00000  Uiso   1.00
C1015  C     0.43316   0.04659   0.70068   0.00000  Uiso   1.00
C1016  C     0.39611   0.04715   0.73188   0.00000  Uiso   1.00
C1017  C     0.36976   0.00412   0.73415   0.00000  Uiso   1.00
H1018  H     0.35614   0.32888   0.70034   0.00000  Uiso   1.00
H1019  H     0.38878   0.30988   0.74898   0.00000  Uiso   1.00
H1020  H     0.34330   0.00879   0.75606   0.00000  Uiso   1.00
H1021  H     0.40796   0.05482   0.76658   0.00000  Uiso   1.00
H1022  H     0.37469   0.07372   0.71932   0.00000  Uiso   1.00
H1023  H     0.44189   0.08067   0.69071   0.00000  Uiso   1.00
H1024  H     0.42224   0.03278   0.66801   0.00000  Uiso   1.00
C1025  C     0.57517   0.29587   0.78011   0.00000  Uiso   1.00
C1026  C     0.58656   0.27091   0.82439   0.00000  Uiso   1.00
C1027  C     0.63403   0.26554   0.83127   0.00000  Uiso   1.00
H1028  H     0.64635   0.24816   0.80271   0.00000  Uiso   1.00
H1029  H     0.65018   0.29857   0.83439   0.00000  Uiso   1.00
H1030  H     0.64119   0.24572   0.86250   0.00000  Uiso   1.00
H1031  H     0.57594   0.28908   0.85324   0.00000  Uiso   1.00
H1032  H     0.57144   0.23755   0.82451   0.00000  Uiso   1.00
H1033  H     0.58334   0.27733   0.75061   0.00000  Uiso   1.00
H1034  H     0.59642   0.32559   0.77782   0.00000  Uiso   1.00
C1035  C     0.75356   0.16635   0.74938   0.00000  Uiso   1.00
C1036  C     0.91316   0.16716   0.75039   0.00000  Uiso   1.00
C1037  C     0.79257   0.09658   0.52305   0.00000  Uiso   1.00
C1038  C     0.87492   0.23549   0.97725   0.00000  Uiso   1.00
C1039  C     0.68914   0.13716   0.77819   0.00000  Uiso   1.00
C1040  C     0.97783   0.19828   0.72279   0.00000  Uiso   1.00
C1041  C     0.97955   0.13764   0.77854   0.00000  Uiso   1.00
C1042  C     0.68755   0.19734   0.72189   0.00000  Uiso   1.00
C1043  C     0.95748   0.16802   0.75082   0.00000  Uiso   1.00
C1044  C     0.70938   0.16632   0.74922   0.00000  Uiso   1.00
C1045  C     0.85744   0.02311   0.78091   0.00000  Uiso   1.00
C1046  C     0.80602   0.30929   0.72131   0.00000  Uiso   1.00
C1047  C     0.80453   0.02368   0.72296   0.00000  Uiso   1.00
C1048  C     0.86320   0.31039   0.77451   0.00000  Uiso   1.00
C1049  C     0.83326   0.16703   0.66362   0.00000  Uiso   1.00
C1050  C     0.83336   0.16621   0.83643   0.00000  Uiso   1.00
C1051  C     0.85363   0.20061   0.90758   0.00000  Uiso   1.00
C1052  C     0.81247   0.13244   0.59272   0.00000  Uiso   1.00
C1053  C     0.83369   0.16553   0.88442   0.00000  Uiso   1.00
C1054  C     0.83327   0.16718   0.61573   0.00000  Uiso   1.00
C1055  C     0.81358   0.13059   0.90697   0.00000  Uiso   1.00
C1056  C     0.85505   0.20086   0.59325   0.00000  Uiso   1.00
C1057  C     0.81339   0.13051   0.95336   0.00000  Uiso   1.00
C1058  C     0.85493   0.20103   0.54692   0.00000  Uiso   1.00
C1059  C     0.83392   0.16575   0.97688   0.00000  Uiso   1.00
C1060  C     0.83389   0.16608   0.52343   0.00000  Uiso   1.00
C1061  C     0.85430   0.20081   0.95382   0.00000  Uiso   1.00
C1062  C     0.81286   0.13145   0.54650   0.00000  Uiso   1.00
C1063  C     0.79295   0.09604   0.97655   0.00000  Uiso   1.00
C1064  C     0.87543   0.23546   0.52378   0.00000  Uiso   1.00
H1065  H     0.86881   0.22767   0.88971   0.00000  Uiso   1.00
H1066  H     0.79591   0.10631   0.61081   0.00000  Uiso   1.00
H1067  H     0.79763   0.10399   0.88841   0.00000  Uiso   1.00
H1068  H     0.87239   0.22651   0.61183   0.00000  Uiso   1.00
H1069  H     0.77717   0.06888   0.95874   0.00000  Uiso   1.00
H1070  H     0.89153   0.26242   0.54161   0.00000  Uiso   1.00
H1071  H     0.77649   0.06981   0.54067   0.00000  Uiso   1.00
H1072  H     0.89067   0.26247   0.95961   0.00000  Uiso   1.00
H1073  H     0.70650   0.11444   0.80053   0.00000  Uiso   1.00
H1074  H     0.96044   0.22174   0.70130   0.00000  Uiso   1.00
H1075  H     0.96390   0.11475   0.80068   0.00000  Uiso   1.00
H1076  H     0.70374   0.22033   0.69985   0.00000  Uiso   1.00
N1077  N     0.83333   0.28573   0.75000   0.00000  Uiso   1.00
N1078  N     0.83333   0.04760   0.75000   0.00000  Uiso   1.00
O1079  O     0.77226   0.20487   0.75000   0.00000  Uiso   1.00
O1080  O     0.89441   0.12846   0.75001   0.00000  Uiso   1.00
O1081  O     0.89441   0.20487   0.75001   0.00000  Uiso   1.00
O1082  O     0.77226   0.12846   0.75000   0.00000  Uiso   1.00
O1083  O     0.83333   0.20489   0.68393   0.00000  Uiso   1.00
O1084  O     0.83334   0.12844   0.81608   0.00000  Uiso   1.00
O1085  O     0.83334   0.20489   0.81608   0.00000  Uiso   1.00
O1086  O     0.83333   0.12844   0.68393   0.00000  Uiso   1.00
Zn1087 Zn    0.83333   0.21771   0.75000   0.00000  Uiso   1.00
Zn1088 Zn    0.83333   0.11563   0.75000   0.00000  Uiso   1.00
C1089  C     0.86261   0.03700   0.82938   0.00000  Uiso   1.00
C1090  C     0.90392   0.06227   0.84150   0.00000  Uiso   1.00
C1091  C     0.91241   0.06440   0.89221   0.00000  Uiso   1.00
H1092  H     0.88598   0.08007   0.90786   0.00000  Uiso   1.00
H1093  H     0.91666   0.03047   0.90697   0.00000  Uiso   1.00
H1094  H     0.94159   0.08448   0.89977   0.00000  Uiso   1.00
H1095  H     0.93085   0.04606   0.82741   0.00000  Uiso   1.00
H1096  H     0.90226   0.09656   0.82786   0.00000  Uiso   1.00
H1097  H     0.83493   0.05536   0.83826   0.00000  Uiso   1.00
H1098  H     0.86054   0.00706   0.85173   0.00000  Uiso   1.00
C1099  C     0.78184   0.28600   0.68295   0.00000  Uiso   1.00
C1100  C     0.80265   0.29547   0.63842   0.00000  Uiso   1.00
C1101  C     0.77691   0.27489   0.59919   0.00000  Uiso   1.00
H1102  H     0.77209   0.23862   0.60516   0.00000  Uiso   1.00
H1103  H     0.74577   0.29062   0.59477   0.00000  Uiso   1.00
H1104  H     0.79375   0.28034   0.56790   0.00000  Uiso   1.00
H1105  H     0.80610   0.33175   0.63156   0.00000  Uiso   1.00
H1106  H     0.83475   0.28204   0.64059   0.00000  Uiso   1.00
H1107  H     0.77906   0.25037   0.68875   0.00000  Uiso   1.00
H1108  H     0.74867   0.29544   0.67958   0.00000  Uiso   1.00
C1109  C     0.76649   0.04659   0.70068   0.00000  Uiso   1.00
C1110  C     0.72944   0.04715   0.73188   0.00000  Uiso   1.00
C1111  C     0.70309   0.00412   0.73415   0.00000  Uiso   1.00
H1112  H     0.68947   0.32888   0.70034   0.00000  Uiso   1.00
H1113  H     0.72211   0.30988   0.74898   0.00000  Uiso   1.00
H1114  H     0.67663   0.00879   0.75606   0.00000  Uiso   1.00
H1115  H     0.74129   0.05482   0.76658   0.00000  Uiso   1.00
H1116  H     0.70802   0.07372   0.71932   0.00000  Uiso   1.00
H1117  H     0.77523   0.08067   0.69071   0.00000  Uiso   1.00
H1118  H     0.75557   0.03278   0.66801   0.00000  Uiso   1.00
C1119  C     0.90850   0.29587   0.78011   0.00000  Uiso   1.00
C1120  C     0.91989   0.27091   0.82439   0.00000  Uiso   1.00
C1121  C     0.96737   0.26554   0.83127   0.00000  Uiso   1.00
H1122  H     0.97968   0.24816   0.80271   0.00000  Uiso   1.00
H1123  H     0.98351   0.29857   0.83439   0.00000  Uiso   1.00
H1124  H     0.97453   0.24572   0.86250   0.00000  Uiso   1.00
H1125  H     0.90928   0.28908   0.85324   0.00000  Uiso   1.00
H1126  H     0.90477   0.23755   0.82451   0.00000  Uiso   1.00
H1127  H     0.91667   0.27733   0.75061   0.00000  Uiso   1.00
H1128  H     0.92975   0.32559   0.77782   0.00000  Uiso   1.00
C1129  C     0.08690   0.49968   0.74938   0.00000  Uiso   1.00
C1130  C     0.24649   0.50049   0.75039   0.00000  Uiso   1.00
C1131  C     0.12590   0.42991   0.52305   0.00000  Uiso   1.00
C1132  C     0.20826   0.56882   0.97725   0.00000  Uiso   1.00
C1133  C     0.02248   0.47049   0.77819   0.00000  Uiso   1.00
C1134  C     0.31116   0.53162   0.72279   0.00000  Uiso   1.00
C1135  C     0.31288   0.47098   0.77854   0.00000  Uiso   1.00
C1136  C     0.02088   0.53068   0.72189   0.00000  Uiso   1.00
C1137  C     0.29082   0.50136   0.75082   0.00000  Uiso   1.00
C1138  C     0.04271   0.49966   0.74922   0.00000  Uiso   1.00
C1139  C     0.19078   0.35645   0.78091   0.00000  Uiso   1.00
C1140  C     0.13935   0.64262   0.72131   0.00000  Uiso   1.00
C1141  C     0.13787   0.35701   0.72296   0.00000  Uiso   1.00
C1142  C     0.19654   0.64372   0.77451   0.00000  Uiso   1.00
C1143  C     0.16660   0.50036   0.66362   0.00000  Uiso   1.00
C1144  C     0.16669   0.49954   0.83643   0.00000  Uiso   1.00
C1145  C     0.18696   0.53394   0.90758   0.00000  Uiso   1.00
C1146  C     0.14581   0.46577   0.59272   0.00000  Uiso   1.00
C1147  C     0.16702   0.49887   0.88442   0.00000  Uiso   1.00
C1148  C     0.16660   0.50051   0.61573   0.00000  Uiso   1.00
C1149  C     0.14691   0.46392   0.90697   0.00000  Uiso   1.00
C1150  C     0.18839   0.53419   0.59325   0.00000  Uiso   1.00
C1151  C     0.14673   0.46385   0.95336   0.00000  Uiso   1.00
C1152  C     0.18827   0.53436   0.54692   0.00000  Uiso   1.00
C1153  C     0.16725   0.49908   0.97688   0.00000  Uiso   1.00
C1154  C     0.16722   0.49941   0.52343   0.00000  Uiso   1.00
C1155  C     0.18763   0.53414   0.95382   0.00000  Uiso   1.00
C1156  C     0.14620   0.46478   0.54650   0.00000  Uiso   1.00
C1157  C     0.12628   0.42937   0.97655   0.00000  Uiso   1.00
C1158  C     0.20877   0.56880   0.52378   0.00000  Uiso   1.00
H1159  H     0.20214   0.56100   0.88971   0.00000  Uiso   1.00
H1160  H     0.12924   0.43965   0.61081   0.00000  Uiso   1.00
H1161  H     0.13097   0.43732   0.88841   0.00000  Uiso   1.00
H1162  H     0.20572   0.55984   0.61183   0.00000  Uiso   1.00
H1163  H     0.11050   0.40222   0.95874   0.00000  Uiso   1.00
H1164  H     0.22487   0.59575   0.54161   0.00000  Uiso   1.00
H1165  H     0.10983   0.40314   0.54067   0.00000  Uiso   1.00
H1166  H     0.22400   0.59580   0.95961   0.00000  Uiso   1.00
H1167  H     0.03983   0.44778   0.80053   0.00000  Uiso   1.00
H1168  H     0.29378   0.55507   0.70130   0.00000  Uiso   1.00
H1169  H     0.29723   0.44808   0.80068   0.00000  Uiso   1.00
H1170  H     0.03707   0.55366   0.69985   0.00000  Uiso   1.00
N1171  N     0.16667   0.61907   0.75000   0.00000  Uiso   1.00
N1172  N     0.16667   0.38093   0.75000   0.00000  Uiso   1.00
O1173  O     0.10559   0.53821   0.75000   0.00000  Uiso   1.00
O1174  O     0.22774   0.46179   0.75001   0.00000  Uiso   1.00
O1175  O     0.22774   0.53821   0.75001   0.00000  Uiso   1.00
O1176  O     0.10559   0.46179   0.75000   0.00000  Uiso   1.00
O1177  O     0.16666   0.53823   0.68393   0.00000  Uiso   1.00
O1178  O     0.16667   0.46177   0.81608   0.00000  Uiso   1.00
O1179  O     0.16667   0.53823   0.81608   0.00000  Uiso   1.00
O1180  O     0.16666   0.46177   0.68393   0.00000  Uiso   1.00
Zn1181 Zn    0.16667   0.55104   0.75000   0.00000  Uiso   1.00
Zn1182 Zn    0.16667   0.44896   0.75000   0.00000  Uiso   1.00
C1183  C     0.19594   0.37033   0.82938   0.00000  Uiso   1.00
C1184  C     0.23726   0.39560   0.84150   0.00000  Uiso   1.00
C1185  C     0.24575   0.39773   0.89221   0.00000  Uiso   1.00
H1186  H     0.21931   0.41340   0.90786   0.00000  Uiso   1.00
H1187  H     0.24999   0.36381   0.90697   0.00000  Uiso   1.00
H1188  H     0.27493   0.41782   0.89977   0.00000  Uiso   1.00
H1189  H     0.26418   0.37940   0.82741   0.00000  Uiso   1.00
H1190  H     0.23560   0.42989   0.82786   0.00000  Uiso   1.00
H1191  H     0.16826   0.38869   0.83826   0.00000  Uiso   1.00
H1192  H     0.19387   0.34039   0.85173   0.00000  Uiso   1.00
C1193  C     0.11517   0.61933   0.68295   0.00000  Uiso   1.00
C1194  C     0.13599   0.62880   0.63842   0.00000  Uiso   1.00
C1195  C     0.11024   0.60822   0.59919   0.00000  Uiso   1.00
H1196  H     0.10542   0.57195   0.60516   0.00000  Uiso   1.00
H1197  H     0.07910   0.62395   0.59477   0.00000  Uiso   1.00
H1198  H     0.12708   0.61367   0.56790   0.00000  Uiso   1.00
H1199  H     0.13943   0.66508   0.63156   0.00000  Uiso   1.00
H1200  H     0.16809   0.61538   0.64059   0.00000  Uiso   1.00
H1201  H     0.11240   0.58370   0.68875   0.00000  Uiso   1.00
H1202  H     0.08200   0.62877   0.67958   0.00000  Uiso   1.00
C1203  C     0.09982   0.37992   0.70068   0.00000  Uiso   1.00
C1204  C     0.06278   0.38048   0.73188   0.00000  Uiso   1.00
C1205  C     0.03643   0.33746   0.73415   0.00000  Uiso   1.00
H1206  H     0.02281   0.66221   0.70034   0.00000  Uiso   1.00
H1207  H     0.05544   0.64321   0.74898   0.00000  Uiso   1.00
H1208  H     0.00996   0.34213   0.75606   0.00000  Uiso   1.00
H1209  H     0.07462   0.38816   0.76658   0.00000  Uiso   1.00
H1210  H     0.04135   0.40705   0.71932   0.00000  Uiso   1.00
H1211  H     0.10856   0.41400   0.69071   0.00000  Uiso   1.00
H1212  H     0.08890   0.36611   0.66801   0.00000  Uiso   1.00
C1213  C     0.24183   0.62920   0.78011   0.00000  Uiso   1.00
C1214  C     0.25323   0.60425   0.82439   0.00000  Uiso   1.00
C1215  C     0.30070   0.59888   0.83127   0.00000  Uiso   1.00
H1216  H     0.31302   0.58150   0.80271   0.00000  Uiso   1.00
H1217  H     0.31685   0.63191   0.83439   0.00000  Uiso   1.00
H1218  H     0.30786   0.57905   0.86250   0.00000  Uiso   1.00
H1219  H     0.24261   0.62241   0.85324   0.00000  Uiso   1.00
H1220  H     0.23811   0.57088   0.82451   0.00000  Uiso   1.00
H1221  H     0.25000   0.61066   0.75061   0.00000  Uiso   1.00
H1222  H     0.26308   0.65893   0.77782   0.00000  Uiso   1.00
C1223  C     0.42023   0.49968   0.74938   0.00000  Uiso   1.00
C1224  C     0.57983   0.50049   0.75039   0.00000  Uiso   1.00
C1225  C     0.45923   0.42991   0.52305   0.00000  Uiso   1.00
C1226  C     0.54159   0.56882   0.97725   0.00000  Uiso   1.00
C1227  C     0.35581   0.47049   0.77819   0.00000  Uiso   1.00
C1228  C     0.64449   0.53162   0.72279   0.00000  Uiso   1.00
C1229  C     0.64622   0.47098   0.77854   0.00000  Uiso   1.00
C1230  C     0.35421   0.53068   0.72189   0.00000  Uiso   1.00
C1231  C     0.62415   0.50136   0.75082   0.00000  Uiso   1.00
C1232  C     0.37605   0.49966   0.74922   0.00000  Uiso   1.00
C1233  C     0.52411   0.35645   0.78091   0.00000  Uiso   1.00
C1234  C     0.47269   0.64262   0.72131   0.00000  Uiso   1.00
C1235  C     0.47120   0.35701   0.72296   0.00000  Uiso   1.00
C1236  C     0.52987   0.64372   0.77451   0.00000  Uiso   1.00
C1237  C     0.49993   0.50036   0.66362   0.00000  Uiso   1.00
C1238  C     0.50003   0.49954   0.83643   0.00000  Uiso   1.00
C1239  C     0.52029   0.53394   0.90758   0.00000  Uiso   1.00
C1240  C     0.47914   0.46577   0.59272   0.00000  Uiso   1.00
C1241  C     0.50036   0.49887   0.88442   0.00000  Uiso   1.00
C1242  C     0.49994   0.50051   0.61573   0.00000  Uiso   1.00
C1243  C     0.48024   0.46392   0.90697   0.00000  Uiso   1.00
C1244  C     0.52172   0.53419   0.59325   0.00000  Uiso   1.00
C1245  C     0.48006   0.46385   0.95336   0.00000  Uiso   1.00
C1246  C     0.52160   0.53436   0.54692   0.00000  Uiso   1.00
C1247  C     0.50059   0.49908   0.97688   0.00000  Uiso   1.00
C1248  C     0.50056   0.49941   0.52343   0.00000  Uiso   1.00
C1249  C     0.52097   0.53414   0.95382   0.00000  Uiso   1.00
C1250  C     0.47953   0.46478   0.54650   0.00000  Uiso   1.00
C1251  C     0.45961   0.42937   0.97655   0.00000  Uiso   1.00
C1252  C     0.54210   0.56880   0.52378   0.00000  Uiso   1.00
H1253  H     0.53548   0.56100   0.88971   0.00000  Uiso   1.00
H1254  H     0.46258   0.43965   0.61081   0.00000  Uiso   1.00
H1255  H     0.46430   0.43732   0.88841   0.00000  Uiso   1.00
H1256  H     0.53906   0.55984   0.61183   0.00000  Uiso   1.00
H1257  H     0.44383   0.40222   0.95874   0.00000  Uiso   1.00
H1258  H     0.55820   0.59575   0.54161   0.00000  Uiso   1.00
H1259  H     0.44316   0.40314   0.54067   0.00000  Uiso   1.00
H1260  H     0.55734   0.59580   0.95961   0.00000  Uiso   1.00
H1261  H     0.37317   0.44778   0.80053   0.00000  Uiso   1.00
H1262  H     0.62711   0.55507   0.70130   0.00000  Uiso   1.00
H1263  H     0.63056   0.44808   0.80068   0.00000  Uiso   1.00
H1264  H     0.37040   0.55366   0.69985   0.00000  Uiso   1.00
N1265  N     0.50000   0.61907   0.75000   0.00000  Uiso   1.00
N1266  N     0.50000   0.38093   0.75000   0.00000  Uiso   1.00
O1267  O     0.43892   0.53821   0.75000   0.00000  Uiso   1.00
O1268  O     0.56108   0.46179   0.75001   0.00000  Uiso   1.00
O1269  O     0.56108   0.53821   0.75001   0.00000  Uiso   1.00
O1270  O     0.43892   0.46179   0.75000   0.00000  Uiso   1.00
O1271  O     0.49999   0.53823   0.68393   0.00000  Uiso   1.00
O1272  O     0.50001   0.46177   0.81608   0.00000  Uiso   1.00
O1273  O     0.50001   0.53823   0.81608   0.00000  Uiso   1.00
O1274  O     0.49999   0.46177   0.68393   0.00000  Uiso   1.00
Zn1275 Zn    0.50000   0.55104   0.75000   0.00000  Uiso   1.00
Zn1276 Zn    0.50000   0.44896   0.75000   0.00000  Uiso   1.00
C1277  C     0.52928   0.37033   0.82938   0.00000  Uiso   1.00
C1278  C     0.57059   0.39560   0.84150   0.00000  Uiso   1.00
C1279  C     0.57908   0.39773   0.89221   0.00000  Uiso   1.00
H1280  H     0.55264   0.41340   0.90786   0.00000  Uiso   1.00
H1281  H     0.58333   0.36381   0.90697   0.00000  Uiso   1.00
H1282  H     0.60826   0.41782   0.89977   0.00000  Uiso   1.00
H1283  H     0.59752   0.37940   0.82741   0.00000  Uiso   1.00
H1284  H     0.56893   0.42989   0.82786   0.00000  Uiso   1.00
H1285  H     0.50159   0.38869   0.83826   0.00000  Uiso   1.00
H1286  H     0.52720   0.34039   0.85173   0.00000  Uiso   1.00
C1287  C     0.44850   0.61933   0.68295   0.00000  Uiso   1.00
C1288  C     0.46932   0.62880   0.63842   0.00000  Uiso   1.00
C1289  C     0.44358   0.60822   0.59919   0.00000  Uiso   1.00
H1290  H     0.43875   0.57195   0.60516   0.00000  Uiso   1.00
H1291  H     0.41243   0.62395   0.59477   0.00000  Uiso   1.00
H1292  H     0.46041   0.61367   0.56790   0.00000  Uiso   1.00
H1293  H     0.47276   0.66508   0.63156   0.00000  Uiso   1.00
H1294  H     0.50142   0.61538   0.64059   0.00000  Uiso   1.00
H1295  H     0.44573   0.58370   0.68875   0.00000  Uiso   1.00
H1296  H     0.41533   0.62877   0.67958   0.00000  Uiso   1.00
C1297  C     0.43316   0.37992   0.70068   0.00000  Uiso   1.00
C1298  C     0.39611   0.38048   0.73188   0.00000  Uiso   1.00
C1299  C     0.36976   0.33746   0.73415   0.00000  Uiso   1.00
H1300  H     0.35614   0.66221   0.70034   0.00000  Uiso   1.00
H1301  H     0.38878   0.64321   0.74898   0.00000  Uiso   1.00
H1302  H     0.34330   0.34213   0.75606   0.00000  Uiso   1.00
H1303  H     0.40796   0.38816   0.76658   0.00000  Uiso   1.00
H1304  H     0.37469   0.40705   0.71932   0.00000  Uiso   1.00
H1305  H     0.44189   0.41400   0.69071   0.00000  Uiso   1.00
H1306  H     0.42224   0.36611   0.66801   0.00000  Uiso   1.00
C1307  C     0.57517   0.62920   0.78011   0.00000  Uiso   1.00
C1308  C     0.58656   0.60425   0.82439   0.00000  Uiso   1.00
C1309  C     0.63403   0.59888   0.83127   0.00000  Uiso   1.00
H1310  H     0.64635   0.58150   0.80271   0.00000  Uiso   1.00
H1311  H     0.65018   0.63191   0.83439   0.00000  Uiso   1.00
H1312  H     0.64119   0.57905   0.86250   0.00000  Uiso   1.00
H1313  H     0.57594   0.62241   0.85324   0.00000  Uiso   1.00
H1314  H     0.57144   0.57088   0.82451   0.00000  Uiso   1.00
H1315  H     0.58334   0.61066   0.75061   0.00000  Uiso   1.00
H1316  H     0.59642   0.65893   0.77782   0.00000  Uiso   1.00
C1317  C     0.75356   0.49968   0.74938   0.00000  Uiso   1.00
C1318  C     0.91316   0.50049   0.75039   0.00000  Uiso   1.00
C1319  C     0.79257   0.42991   0.52305   0.00000  Uiso   1.00
C1320  C     0.87492   0.56882   0.97725   0.00000  Uiso   1.00
C1321  C     0.68914   0.47049   0.77819   0.00000  Uiso   1.00
C1322  C     0.97783   0.53162   0.72279   0.00000  Uiso   1.00
C1323  C     0.97955   0.47098   0.77854   0.00000  Uiso   1.00
C1324  C     0.68755   0.53068   0.72189   0.00000  Uiso   1.00
C1325  C     0.95748   0.50136   0.75082   0.00000  Uiso   1.00
C1326  C     0.70938   0.49966   0.74922   0.00000  Uiso   1.00
C1327  C     0.85744   0.35645   0.78091   0.00000  Uiso   1.00
C1328  C     0.80602   0.64262   0.72131   0.00000  Uiso   1.00
C1329  C     0.80453   0.35701   0.72296   0.00000  Uiso   1.00
C1330  C     0.86320   0.64372   0.77451   0.00000  Uiso   1.00
C1331  C     0.83326   0.50036   0.66362   0.00000  Uiso   1.00
C1332  C     0.83336   0.49954   0.83643   0.00000  Uiso   1.00
C1333  C     0.85363   0.53394   0.90758   0.00000  Uiso   1.00
C1334  C     0.81247   0.46577   0.59272   0.00000  Uiso   1.00
C1335  C     0.83369   0.49887   0.88442   0.00000  Uiso   1.00
C1336  C     0.83327   0.50051   0.61573   0.00000  Uiso   1.00
C1337  C     0.81358   0.46392   0.90697   0.00000  Uiso   1.00
C1338  C     0.85505   0.53419   0.59325   0.00000  Uiso   1.00
C1339  C     0.81339   0.46385   0.95336   0.00000  Uiso   1.00
C1340  C     0.85493   0.53436   0.54692   0.00000  Uiso   1.00
C1341  C     0.83392   0.49908   0.97688   0.00000  Uiso   1.00
C1342  C     0.83389   0.49941   0.52343   0.00000  Uiso   1.00
C1343  C     0.85430   0.53414   0.95382   0.00000  Uiso   1.00
C1344  C     0.81286   0.46478   0.54650   0.00000  Uiso   1.00
C1345  C     0.79295   0.42937   0.97655   0.00000  Uiso   1.00
C1346  C     0.87543   0.56880   0.52378   0.00000  Uiso   1.00
H1347  H     0.86881   0.56100   0.88971   0.00000  Uiso   1.00
H1348  H     0.79591   0.43965   0.61081   0.00000  Uiso   1.00
H1349  H     0.79763   0.43732   0.88841   0.00000  Uiso   1.00
H1350  H     0.87239   0.55984   0.61183   0.00000  Uiso   1.00
H1351  H     0.77717   0.40222   0.95874   0.00000  Uiso   1.00
H1352  H     0.89153   0.59575   0.54161   0.00000  Uiso   1.00
H1353  H     0.77649   0.40314   0.54067   0.00000  Uiso   1.00
H1354  H     0.89067   0.59580   0.95961   0.00000  Uiso   1.00
H1355  H     0.70650   0.44778   0.80053   0.00000  Uiso   1.00
H1356  H     0.96044   0.55507   0.70130   0.00000  Uiso   1.00
H1357  H     0.96390   0.44808   0.80068   0.00000  Uiso   1.00
H1358  H     0.70374   0.55366   0.69985   0.00000  Uiso   1.00
N1359  N     0.83333   0.61907   0.75000   0.00000  Uiso   1.00
N1360  N     0.83333   0.38093   0.75000   0.00000  Uiso   1.00
O1361  O     0.77226   0.53821   0.75000   0.00000  Uiso   1.00
O1362  O     0.89441   0.46179   0.75001   0.00000  Uiso   1.00
O1363  O     0.89441   0.53821   0.75001   0.00000  Uiso   1.00
O1364  O     0.77226   0.46179   0.75000   0.00000  Uiso   1.00
O1365  O     0.83333   0.53823   0.68393   0.00000  Uiso   1.00
O1366  O     0.83334   0.46177   0.81608   0.00000  Uiso   1.00
O1367  O     0.83334   0.53823   0.81608   0.00000  Uiso   1.00
O1368  O     0.83333   0.46177   0.68393   0.00000  Uiso   1.00
Zn1369 Zn    0.83333   0.55104   0.75000   0.00000  Uiso   1.00
Zn1370 Zn    0.83333   0.44896   0.75000   0.00000  Uiso   1.00
C1371  C     0.86261   0.37033   0.82938   0.00000  Uiso   1.00
C1372  C     0.90392   0.39560   0.84150   0.00000  Uiso   1.00
C1373  C     0.91241   0.39773   0.89221   0.00000  Uiso   1.00
H1374  H     0.88598   0.41340   0.90786   0.00000  Uiso   1.00
H1375  H     0.91666   0.36381   0.90697   0.00000  Uiso   1.00
H1376  H     0.94159   0.41782   0.89977   0.00000  Uiso   1.00
H1377  H     0.93085   0.37940   0.82741   0.00000  Uiso   1.00
H1378  H     0.90226   0.42989   0.82786   0.00000  Uiso   1.00
H1379  H     0.83493   0.38869   0.83826   0.00000  Uiso   1.00
H1380  H     0.86054   0.34039   0.85173   0.00000  Uiso   1.00
C1381  C     0.78184   0.61933   0.68295   0.00000  Uiso   1.00
C1382  C     0.80265   0.62880   0.63842   0.00000  Uiso   1.00
C1383  C     0.77691   0.60822   0.59919   0.00000  Uiso   1.00
H1384  H     0.77209   0.57195   0.60516   0.00000  Uiso   1.00
H1385  H     0.74577   0.62395   0.59477   0.00000  Uiso   1.00
H1386  H     0.79375   0.61367   0.56790   0.00000  Uiso   1.00
H1387  H     0.80610   0.66508   0.63156   0.00000  Uiso   1.00
H1388  H     0.83475   0.61538   0.64059   0.00000  Uiso   1.00
H1389  H     0.77906   0.58370   0.68875   0.00000  Uiso   1.00
H1390  H     0.74867   0.62877   0.67958   0.00000  Uiso   1.00
C1391  C     0.76649   0.37992   0.70068   0.00000  Uiso   1.00
C1392  C     0.72944   0.38048   0.73188   0.00000  Uiso   1.00
C1393  C     0.70309   0.33746   0.73415   0.00000  Uiso   1.00
H1394  H     0.68947   0.66221   0.70034   0.00000  Uiso   1.00
H1395  H     0.72211   0.64321   0.74898   0.00000  Uiso   1.00
H1396  H     0.67663   0.34213   0.75606   0.00000  Uiso   1.00
H1397  H     0.74129   0.38816   0.76658   0.00000  Uiso   1.00
H1398  H     0.70802   0.40705   0.71932   0.00000  Uiso   1.00
H1399  H     0.77523   0.41400   0.69071   0.00000  Uiso   1.00
H1400  H     0.75557   0.36611   0.66801   0.00000  Uiso   1.00
C1401  C     0.90850   0.62920   0.78011   0.00000  Uiso   1.00
C1402  C     0.91989   0.60425   0.82439   0.00000  Uiso   1.00
C1403  C     0.96737   0.59888   0.83127   0.00000  Uiso   1.00
H1404  H     0.97968   0.58150   0.80271   0.00000  Uiso   1.00
H1405  H     0.98351   0.63191   0.83439   0.00000  Uiso   1.00
H1406  H     0.97453   0.57905   0.86250   0.00000  Uiso   1.00
H1407  H     0.90928   0.62241   0.85324   0.00000  Uiso   1.00
H1408  H     0.90477   0.57088   0.82451   0.00000  Uiso   1.00
H1409  H     0.91667   0.61066   0.75061   0.00000  Uiso   1.00
H1410  H     0.92975   0.65893   0.77782   0.00000  Uiso   1.00
C1411  C     0.08690   0.83302   0.74938   0.00000  Uiso   1.00
C1412  C     0.24649   0.83382   0.75039   0.00000  Uiso   1.00
C1413  C     0.12590   0.76324   0.52305   0.00000  Uiso   1.00
C1414  C     0.20826   0.90216   0.97725   0.00000  Uiso   1.00
C1415  C     0.02248   0.80382   0.77819   0.00000  Uiso   1.00
C1416  C     0.31116   0.86495   0.72279   0.00000  Uiso   1.00
C1417  C     0.31288   0.80431   0.77854   0.00000  Uiso   1.00
C1418  C     0.02088   0.86401   0.72189   0.00000  Uiso   1.00
C1419  C     0.29082   0.83469   0.75082   0.00000  Uiso   1.00
C1420  C     0.04271   0.83299   0.74922   0.00000  Uiso   1.00
C1421  C     0.19078   0.68978   0.78091   0.00000  Uiso   1.00
C1422  C     0.13935   0.97595   0.72131   0.00000  Uiso   1.00
C1423  C     0.13787   0.69034   0.72296   0.00000  Uiso   1.00
C1424  C     0.19654   0.97705   0.77451   0.00000  Uiso   1.00
C1425  C     0.16660   0.83370   0.66362   0.00000  Uiso   1.00
C1426  C     0.16669   0.83287   0.83643   0.00000  Uiso   1.00
C1427  C     0.18696   0.86728   0.90758   0.00000  Uiso   1.00
C1428  C     0.14581   0.79911   0.59272   0.00000  Uiso   1.00
C1429  C     0.16702   0.83220   0.88442   0.00000  Uiso   1.00
C1430  C     0.16660   0.83384   0.61573   0.00000  Uiso   1.00
C1431  C     0.14691   0.79726   0.90697   0.00000  Uiso   1.00
C1432  C     0.18839   0.86753   0.59325   0.00000  Uiso   1.00
C1433  C     0.14673   0.79718   0.95336   0.00000  Uiso   1.00
C1434  C     0.18827   0.86769   0.54692   0.00000  Uiso   1.00
C1435  C     0.16725   0.83242   0.97688   0.00000  Uiso   1.00
C1436  C     0.16722   0.83275   0.52343   0.00000  Uiso   1.00
C1437  C     0.18763   0.86748   0.95382   0.00000  Uiso   1.00
C1438  C     0.14620   0.79812   0.54650   0.00000  Uiso   1.00
C1439  C     0.12628   0.76271   0.97655   0.00000  Uiso   1.00
C1440  C     0.20877   0.90213   0.52378   0.00000  Uiso   1.00
H1441  H     0.20214   0.89433   0.88971   0.00000  Uiso   1.00
H1442  H     0.12924   0.77298   0.61081   0.00000  Uiso   1.00
H1443  H     0.13097   0.77065   0.88841   0.00000  Uiso   1.00
H1444  H     0.20572   0.89317   0.61183   0.00000  Uiso   1.00
H1445  H     0.11050   0.73555   0.95874   0.00000  Uiso   1.00
H1446  H     0.22487   0.92908   0.54161   0.00000  Uiso   1.00
H1447  H     0.10983   0.73648   0.54067   0.00000  Uiso   1.00
H1448  H     0.22400   0.92913   0.95961   0.00000  Uiso   1.00
H1449  H     0.03983   0.78111   0.80053   0.00000  Uiso   1.00
H1450  H     0.29378   0.88840   0.70130   0.00000  Uiso   1.00
H1451  H     0.29723   0.78142   0.80068   0.00000  Uiso   1.00
H1452  H     0.03707   0.88699   0.69985   0.00000  Uiso   1.00
N1453  N     0.16667   0.95240   0.75000   0.00000  Uiso   1.00
N1454  N     0.16667   0.71427   0.75000   0.00000  Uiso   1.00
O1455  O     0.10559   0.87154   0.75000   0.00000  Uiso   1.00
O1456  O     0.22774   0.79513   0.75001   0.00000  Uiso   1.00
O1457  O     0.22774   0.87154   0.75001   0.00000  Uiso   1.00
O1458  O     0.10559   0.79513   0.75000   0.00000  Uiso   1.00
O1459  O     0.16666   0.87156   0.68393   0.00000  Uiso   1.00
O1460  O     0.16667   0.79511   0.81608   0.00000  Uiso   1.00
O1461  O     0.16667   0.87156   0.81608   0.00000  Uiso   1.00
O1462  O     0.16666   0.79511   0.68393   0.00000  Uiso   1.00
Zn1463 Zn    0.16667   0.88437   0.75000   0.00000  Uiso   1.00
Zn1464 Zn    0.16667   0.78229   0.75000   0.00000  Uiso   1.00
C1465  C     0.19594   0.70366   0.82938   0.00000  Uiso   1.00
C1466  C     0.23726   0.72893   0.84150   0.00000  Uiso   1.00
C1467  C     0.24575   0.73106   0.89221   0.00000  Uiso   1.00
H1468  H     0.21931   0.74673   0.90786   0.00000  Uiso   1.00
H1469  H     0.24999   0.69714   0.90697   0.00000  Uiso   1.00
H1470  H     0.27493   0.75115   0.89977   0.00000  Uiso   1.00
H1471  H     0.26418   0.71273   0.82741   0.00000  Uiso   1.00
H1472  H     0.23560   0.76322   0.82786   0.00000  Uiso   1.00
H1473  H     0.16826   0.72202   0.83826   0.00000  Uiso   1.00
H1474  H     0.19387   0.67372   0.85173   0.00000  Uiso   1.00
C1475  C     0.11517   0.95267   0.68295   0.00000  Uiso   1.00
C1476  C     0.13599   0.96214   0.63842   0.00000  Uiso   1.00
C1477  C     0.11024   0.94155   0.59919   0.00000  Uiso   1.00
H1478  H     0.10542   0.90528   0.60516   0.00000  Uiso   1.00
H1479  H     0.07910   0.95729   0.59477   0.00000  Uiso   1.00
H1480  H     0.12708   0.94701   0.56790   0.00000  Uiso   1.00
H1481  H     0.13943   0.99842   0.63156   0.00000  Uiso   1.00
H1482  H     0.16809   0.94871   0.64059   0.00000  Uiso   1.00
H1483  H     0.11240   0.91703   0.68875   0.00000  Uiso   1.00
H1484  H     0.08200   0.96210   0.67958   0.00000  Uiso   1.00
C1485  C     0.09982   0.71326   0.70068   0.00000  Uiso   1.00
C1486  C     0.06278   0.71381   0.73188   0.00000  Uiso   1.00
C1487  C     0.03643   0.67079   0.73415   0.00000  Uiso   1.00
H1488  H     0.02281   0.99555   0.70034   0.00000  Uiso   1.00
H1489  H     0.05544   0.97654   0.74898   0.00000  Uiso   1.00
H1490  H     0.00996   0.67546   0.75606   0.00000  Uiso   1.00
H1491  H     0.07462   0.72149   0.76658   0.00000  Uiso   1.00
H1492  H     0.04135   0.74038   0.71932   0.00000  Uiso   1.00
H1493  H     0.10856   0.74734   0.69071   0.00000  Uiso   1.00
H1494  H     0.08890   0.69945   0.66801   0.00000  Uiso   1.00
C1495  C     0.24183   0.96254   0.78011   0.00000  Uiso   1.00
C1496  C     0.25323   0.93758   0.82439   0.00000  Uiso   1.00
C1497  C     0.30070   0.93221   0.83127   0.00000  Uiso   1.00
H1498  H     0.31302   0.91483   0.80271   0.00000  Uiso   1.00
H1499  H     0.31685   0.96524   0.83439   0.00000  Uiso   1.00
H1500  H     0.30786   0.91238   0.86250   0.00000  Uiso   1.00
H1501  H     0.24261   0.95574   0.85324   0.00000  Uiso   1.00
H1502  H     0.23811   0.90421   0.82451   0.00000  Uiso   1.00
H1503  H     0.25000   0.94399   0.75061   0.00000  Uiso   1.00
H1504  H     0.26308   0.99226   0.77782   0.00000  Uiso   1.00
C1505  C     0.42023   0.83302   0.74938   0.00000  Uiso   1.00
C1506  C     0.57983   0.83382   0.75039   0.00000  Uiso   1.00
C1507  C     0.45923   0.76324   0.52305   0.00000  Uiso   1.00
C1508  C     0.54159   0.90216   0.97725   0.00000  Uiso   1.00
C1509  C     0.35581   0.80382   0.77819   0.00000  Uiso   1.00
C1510  C     0.64449   0.86495   0.72279   0.00000  Uiso   1.00
C1511  C     0.64622   0.80431   0.77854   0.00000  Uiso   1.00
C1512  C     0.35421   0.86401   0.72189   0.00000  Uiso   1.00
C1513  C     0.62415   0.83469   0.75082   0.00000  Uiso   1.00
C1514  C     0.37605   0.83299   0.74922   0.00000  Uiso   1.00
C1515  C     0.52411   0.68978   0.78091   0.00000  Uiso   1.00
C1516  C     0.47269   0.97595   0.72131   0.00000  Uiso   1.00
C1517  C     0.47120   0.69034   0.72296   0.00000  Uiso   1.00
C1518  C     0.52987   0.97705   0.77451   0.00000  Uiso   1.00
C1519  C     0.49993   0.83370   0.66362   0.00000  Uiso   1.00
C1520  C     0.50003   0.83287   0.83643   0.00000  Uiso   1.00
C1521  C     0.52029   0.86728   0.90758   0.00000  Uiso   1.00
C1522  C     0.47914   0.79911   0.59272   0.00000  Uiso   1.00
C1523  C     0.50036   0.83220   0.88442   0.00000  Uiso   1.00
C1524  C     0.49994   0.83384   0.61573   0.00000  Uiso   1.00
C1525  C     0.48024   0.79726   0.90697   0.00000  Uiso   1.00
C1526  C     0.52172   0.86753   0.59325   0.00000  Uiso   1.00
C1527  C     0.48006   0.79718   0.95336   0.00000  Uiso   1.00
C1528  C     0.52160   0.86769   0.54692   0.00000  Uiso   1.00
C1529  C     0.50059   0.83242   0.97688   0.00000  Uiso   1.00
C1530  C     0.50056   0.83275   0.52343   0.00000  Uiso   1.00
C1531  C     0.52097   0.86748   0.95382   0.00000  Uiso   1.00
C1532  C     0.47953   0.79812   0.54650   0.00000  Uiso   1.00
C1533  C     0.45961   0.76271   0.97655   0.00000  Uiso   1.00
C1534  C     0.54210   0.90213   0.52378   0.00000  Uiso   1.00
H1535  H     0.53548   0.89433   0.88971   0.00000  Uiso   1.00
H1536  H     0.46258   0.77298   0.61081   0.00000  Uiso   1.00
H1537  H     0.46430   0.77065   0.88841   0.00000  Uiso   1.00
H1538  H     0.53906   0.89317   0.61183   0.00000  Uiso   1.00
H1539  H     0.44383   0.73555   0.95874   0.00000  Uiso   1.00
H1540  H     0.55820   0.92908   0.54161   0.00000  Uiso   1.00
H1541  H     0.44316   0.73648   0.54067   0.00000  Uiso   1.00
H1542  H     0.55734   0.92913   0.95961   0.00000  Uiso   1.00
H1543  H     0.37317   0.78111   0.80053   0.00000  Uiso   1.00
H1544  H     0.62711   0.88840   0.70130   0.00000  Uiso   1.00
H1545  H     0.63056   0.78142   0.80068   0.00000  Uiso   1.00
H1546  H     0.37040   0.88699   0.69985   0.00000  Uiso   1.00
N1547  N     0.50000   0.95240   0.75000   0.00000  Uiso   1.00
N1548  N     0.50000   0.71427   0.75000   0.00000  Uiso   1.00
O1549  O     0.43892   0.87154   0.75000   0.00000  Uiso   1.00
O1550  O     0.56108   0.79513   0.75001   0.00000  Uiso   1.00
O1551  O     0.56108   0.87154   0.75001   0.00000  Uiso   1.00
O1552  O     0.43892   0.79513   0.75000   0.00000  Uiso   1.00
O1553  O     0.49999   0.87156   0.68393   0.00000  Uiso   1.00
O1554  O     0.50001   0.79511   0.81608   0.00000  Uiso   1.00
O1555  O     0.50001   0.87156   0.81608   0.00000  Uiso   1.00
O1556  O     0.49999   0.79511   0.68393   0.00000  Uiso   1.00
Zn1557 Zn    0.50000   0.88437   0.75000   0.00000  Uiso   1.00
Zn1558 Zn    0.50000   0.78229   0.75000   0.00000  Uiso   1.00
C1559  C     0.52928   0.70366   0.82938   0.00000  Uiso   1.00
C1560  C     0.57059   0.72893   0.84150   0.00000  Uiso   1.00
C1561  C     0.57908   0.73106   0.89221   0.00000  Uiso   1.00
H1562  H     0.55264   0.74673   0.90786   0.00000  Uiso   1.00
H1563  H     0.58333   0.69714   0.90697   0.00000  Uiso   1.00
H1564  H     0.60826   0.75115   0.89977   0.00000  Uiso   1.00
H1565  H     0.59752   0.71273   0.82741   0.00000  Uiso   1.00
H1566  H     0.56893   0.76322   0.82786   0.00000  Uiso   1.00
H1567  H     0.50159   0.72202   0.83826   0.00000  Uiso   1.00
H1568  H     0.52720   0.67372   0.85173   0.00000  Uiso   1.00
C1569  C     0.44850   0.95267   0.68295   0.00000  Uiso   1.00
C1570  C     0.46932   0.96214   0.63842   0.00000  Uiso   1.00
C1571  C     0.44358   0.94155   0.59919   0.00000  Uiso   1.00
H1572  H     0.43875   0.90528   0.60516   0.00000  Uiso   1.00
H1573  H     0.41243   0.95729   0.59477   0.00000  Uiso   1.00
H1574  H     0.46041   0.94701   0.56790   0.00000  Uiso   1.00
H1575  H     0.47276   0.99842   0.63156   0.00000  Uiso   1.00
H1576  H     0.50142   0.94871   0.64059   0.00000  Uiso   1.00
H1577  H     0.44573   0.91703   0.68875   0.00000  Uiso   1.00
H1578  H     0.41533   0.96210   0.67958   0.00000  Uiso   1.00
C1579  C     0.43316   0.71326   0.70068   0.00000  Uiso   1.00
C1580  C     0.39611   0.71381   0.73188   0.00000  Uiso   1.00
C1581  C     0.36976   0.67079   0.73415   0.00000  Uiso   1.00
H1582  H     0.35614   0.99555   0.70034   0.00000  Uiso   1.00
H1583  H     0.38878   0.97654   0.74898   0.00000  Uiso   1.00
H1584  H     0.34330   0.67546   0.75606   0.00000  Uiso   1.00
H1585  H     0.40796   0.72149   0.76658   0.00000  Uiso   1.00
H1586  H     0.37469   0.74038   0.71932   0.00000  Uiso   1.00
H1587  H     0.44189   0.74734   0.69071   0.00000  Uiso   1.00
H1588  H     0.42224   0.69945   0.66801   0.00000  Uiso   1.00
C1589  C     0.57517   0.96254   0.78011   0.00000  Uiso   1.00
C1590  C     0.58656   0.93758   0.82439   0.00000  Uiso   1.00
C1591  C     0.63403   0.93221   0.83127   0.00000  Uiso   1.00
H1592  H     0.64635   0.91483   0.80271   0.00000  Uiso   1.00
H1593  H     0.65018   0.96524   0.83439   0.00000  Uiso   1.00
H1594  H     0.64119   0.91238   0.86250   0.00000  Uiso   1.00
H1595  H     0.57594   0.95574   0.85324   0.00000  Uiso   1.00
H1596  H     0.57144   0.90421   0.82451   0.00000  Uiso   1.00
H1597  H     0.58334   0.94399   0.75061   0.00000  Uiso   1.00
H1598  H     0.59642   0.99226   0.77782   0.00000  Uiso   1.00
C1599  C     0.75356   0.83302   0.74938   0.00000  Uiso   1.00
C1600  C     0.91316   0.83382   0.75039   0.00000  Uiso   1.00
C1601  C     0.79257   0.76324   0.52305   0.00000  Uiso   1.00
C1602  C     0.87492   0.90216   0.97725   0.00000  Uiso   1.00
C1603  C     0.68914   0.80382   0.77819   0.00000  Uiso   1.00
C1604  C     0.97783   0.86495   0.72279   0.00000  Uiso   1.00
C1605  C     0.97955   0.80431   0.77854   0.00000  Uiso   1.00
C1606  C     0.68755   0.86401   0.72189   0.00000  Uiso   1.00
C1607  C     0.95748   0.83469   0.75082   0.00000  Uiso   1.00
C1608  C     0.70938   0.83299   0.74922   0.00000  Uiso   1.00
C1609  C     0.85744   0.68978   0.78091   0.00000  Uiso   1.00
C1610  C     0.80602   0.97595   0.72131   0.00000  Uiso   1.00
C1611  C     0.80453   0.69034   0.72296   0.00000  Uiso   1.00
C1612  C     0.86320   0.97705   0.77451   0.00000  Uiso   1.00
C1613  C     0.83326   0.83370   0.66362   0.00000  Uiso   1.00
C1614  C     0.83336   0.83287   0.83643   0.00000  Uiso   1.00
C1615  C     0.85363   0.86728   0.90758   0.00000  Uiso   1.00
C1616  C     0.81247   0.79911   0.59272   0.00000  Uiso   1.00
C1617  C     0.83369   0.83220   0.88442   0.00000  Uiso   1.00
C1618  C     0.83327   0.83384   0.61573   0.00000  Uiso   1.00
C1619  C     0.81358   0.79726   0.90697   0.00000  Uiso   1.00
C1620  C     0.85505   0.86753   0.59325   0.00000  Uiso   1.00
C1621  C     0.81339   0.79718   0.95336   0.00000  Uiso   1.00
C1622  C     0.85493   0.86769   0.54692   0.00000  Uiso   1.00
C1623  C     0.83392   0.83242   0.97688   0.00000  Uiso   1.00
C1624  C     0.83389   0.83275   0.52343   0.00000  Uiso   1.00
C1625  C     0.85430   0.86748   0.95382   0.00000  Uiso   1.00
C1626  C     0.81286   0.79812   0.54650   0.00000  Uiso   1.00
C1627  C     0.79295   0.76271   0.97655   0.00000  Uiso   1.00
C1628  C     0.87543   0.90213   0.52378   0.00000  Uiso   1.00
H1629  H     0.86881   0.89433   0.88971   0.00000  Uiso   1.00
H1630  H     0.79591   0.77298   0.61081   0.00000  Uiso   1.00
H1631  H     0.79763   0.77065   0.88841   0.00000  Uiso   1.00
H1632  H     0.87239   0.89317   0.61183   0.00000  Uiso   1.00
H1633  H     0.77717   0.73555   0.95874   0.00000  Uiso   1.00
H1634  H     0.89153   0.92908   0.54161   0.00000  Uiso   1.00
H1635  H     0.77649   0.73648   0.54067   0.00000  Uiso   1.00
H1636  H     0.89067   0.92913   0.95961   0.00000  Uiso   1.00
H1637  H     0.70650   0.78111   0.80053   0.00000  Uiso   1.00
H1638  H     0.96044   0.88840   0.70130   0.00000  Uiso   1.00
H1639  H     0.96390   0.78142   0.80068   0.00000  Uiso   1.00
H1640  H     0.70374   0.88699   0.69985   0.00000  Uiso   1.00
N1641  N     0.83333   0.95240   0.75000   0.00000  Uiso   1.00
N1642  N     0.83333   0.71427   0.75000   0.00000  Uiso   1.00
O1643  O     0.77226   0.87154   0.75000   0.00000  Uiso   1.00
O1644  O     0.89441   0.79513   0.75001   0.00000  Uiso   1.00
O1645  O     0.89441   0.87154   0.75001   0.00000  Uiso   1.00
O1646  O     0.77226   0.79513   0.75000   0.00000  Uiso   1.00
O1647  O     0.83333   0.87156   0.68393   0.00000  Uiso   1.00
O1648  O     0.83334   0.79511   0.81608   0.00000  Uiso   1.00
O1649  O     0.83334   0.87156   0.81608   0.00000  Uiso   1.00
O1650  O     0.83333   0.79511   0.68393   0.00000  Uiso   1.00
Zn1651 Zn    0.83333   0.88437   0.75000   0.00000  Uiso   1.00
Zn1652 Zn    0.83333   0.78229   0.75000   0.00000  Uiso   1.00
C1653  C     0.86261   0.70366   0.82938   0.00000  Uiso   1.00
C1654  C     0.90392   0.72893   0.84150   0.00000  Uiso   1.00
C1655  C     0.91241   0.73106   0.89221   0.00000  Uiso   1.00
H1656  H     0.88598   0.74673   0.90786   0.00000  Uiso   1.00
H1657  H     0.91666   0.69714   0.90697   0.00000  Uiso   1.00
H1658  H     0.94159   0.75115   0.89977   0.00000  Uiso   1.00
H1659  H     0.93085   0.71273   0.82741   0.00000  Uiso   1.00
H1660  H     0.90226   0.76322   0.82786   0.00000  Uiso   1.00
H1661  H     0.83493   0.72202   0.83826   0.00000  Uiso   1.00
H1662  H     0.86054   0.67372   0.85173   0.00000  Uiso   1.00
C1663  C     0.78184   0.95267   0.68295   0.00000  Uiso   1.00
C1664  C     0.80265   0.96214   0.63842   0.00000  Uiso   1.00
C1665  C     0.77691   0.94155   0.59919   0.00000  Uiso   1.00
H1666  H     0.77209   0.90528   0.60516   0.00000  Uiso   1.00
H1667  H     0.74577   0.95729   0.59477   0.00000  Uiso   1.00
H1668  H     0.79375   0.94701   0.56790   0.00000  Uiso   1.00
H1669  H     0.80610   0.99842   0.63156   0.00000  Uiso   1.00
H1670  H     0.83475   0.94871   0.64059   0.00000  Uiso   1.00
H1671  H     0.77906   0.91703   0.68875   0.00000  Uiso   1.00
H1672  H     0.74867   0.96210   0.67958   0.00000  Uiso   1.00
C1673  C     0.76649   0.71326   0.70068   0.00000  Uiso   1.00
C1674  C     0.72944   0.71381   0.73188   0.00000  Uiso   1.00
C1675  C     0.70309   0.67079   0.73415   0.00000  Uiso   1.00
H1676  H     0.68947   0.99555   0.70034   0.00000  Uiso   1.00
H1677  H     0.72211   0.97654   0.74898   0.00000  Uiso   1.00
H1678  H     0.67663   0.67546   0.75606   0.00000  Uiso   1.00
H1679  H     0.74129   0.72149   0.76658   0.00000  Uiso   1.00
H1680  H     0.70802   0.74038   0.71932   0.00000  Uiso   1.00
H1681  H     0.77523   0.74734   0.69071   0.00000  Uiso   1.00
H1682  H     0.75557   0.69945   0.66801   0.00000  Uiso   1.00
C1683  C     0.90850   0.96254   0.78011   0.00000  Uiso   1.00
C1684  C     0.91989   0.93758   0.82439   0.00000  Uiso   1.00
C1685  C     0.96737   0.93221   0.83127   0.00000  Uiso   1.00
H1686  H     0.97968   0.91483   0.80271   0.00000  Uiso   1.00
H1687  H     0.98351   0.96524   0.83439   0.00000  Uiso   1.00
H1688  H     0.97453   0.91238   0.86250   0.00000  Uiso   1.00
H1689  H     0.90928   0.95574   0.85324   0.00000  Uiso   1.00
H1690  H     0.90477   0.90421   0.82451   0.00000  Uiso   1.00
H1691  H     0.91667   0.94399   0.75061   0.00000  Uiso   1.00
H1692  H     0.92975   0.99226   0.77782   0.00000  Uiso   1.00
loop_
_geom_bond_atom_site_label_1
_geom_bond_atom_site_label_2
_geom_bond_distance
_geom_bond_site_symmetry_2
_ccdc_geom_bond_type
C1     C10     1.407   .     S
C1     O48     1.301   .     A
C1     O45     1.290   .     A
C2     O46     1.295   .     A
C2     O47     1.298   .     A
C2     C9      1.411   .     S
C3     C28     1.401   .     A
C3     H37     1.084   .     S
C3     C875    1.391   1_554 S
C4     C27     1.400   .     A
C4     H38     1.084   .     S
C4     C876    1.389   .     S
C5     H39     1.084   .     S
C5     C10     1.389   .     A
C5     C195    1.369   1_455 S
C6     C9      1.393   .     A
C6     H40     1.084   .     S
C6     C102    1.374   .     S
C7     H41     1.075   .     S
C7     C9      1.395   .     A
C7     C99     1.369   .     S
C8     H42     1.084   .     S
C8     C10     1.398   .     A
C8     C194    1.374   1_455 S
C11    N44     1.379   .     A
C11    C55     1.517   .     S
C11    C578    1.424   1_545 S
C12    N43     1.383   .     A
C12    C65     1.520   .     S
C12    C295    1.442   .     S
C13    C75     1.522   .     S
C13    N44     1.387   .     A
C13    C576    1.442   1_545 S
C14    C85     1.518   .     S
C14    N43     1.379   .     A
C14    C293    1.424   .     S
C15    C20     1.431   .     S
C15    O52     1.297   .     A
C15    O49     1.306   .     A
C16    O51     1.300   .     A
C16    C19     1.433   .     S
C16    O50     1.304   .     A
C17    C27     1.381   .     A
C17    H31     1.081   .     S
C17    C19     1.396   .     A
C18    C28     1.383   .     A
C18    H32     1.085   .     S
C18    C20     1.398   .     A
C19    C21     1.395   .     A
C20    C22     1.393   .     A
C21    H33     1.085   .     S
C21    C23     1.386   .     A
C22    H34     1.083   .     S
C22    C24     1.384   .     A
C23    C29     1.400   .     A
C23    C25     1.413   .     A
C24    C26     1.413   .     A
C24    C30     1.399   .     A
C25    C27     1.409   .     A
C25    C872    1.391   .     S
C26    C28     1.410   .     A
C26    C871    1.391   1_554 S
C29    H35     1.084   .     S
C29    C849    1.391   .     S
C30    H36     1.084   .     S
C30    C850    1.389   1_554 S
N43    Zn53    2.049   .     S
N44    Zn54    2.049   .     S
O45    Zn53    1.973   .     S
O46    Zn54    1.973   .     S
O47    Zn53    1.994   .     S
O48    Zn54    1.994   .     S
O49    Zn53    2.022   .     S
O50    Zn54    2.022   .     S
O51    Zn53    2.002   .     S
O52    Zn54    2.002   .     S
C55    C56     1.532   .     S
C55    H63     1.102   .     S
C55    H64     1.111   .     S
C56    C57     1.526   .     S
C56    H62     1.102   .     S
C56    H61     1.107   .     S
C57    H59     1.111   .     S
C57    H60     1.110   .     S
C57    H58     1.109   .     S
C65    H73     1.085   .     S
C65    H74     1.100   .     S
C65    C66     1.537   .     S
C66    H72     1.108   .     S
C66    C67     1.527   .     S
C66    H71     1.110   .     S
C67    H68     1.110   .     S
C67    H69     1.111   .     S
C67    H70     1.110   .     S
C75    H83     1.094   .     S
C75    H84     1.105   .     S
C75    C76     1.546   .     S
C76    C77     1.527   .     S
C76    H82     1.110   .     S
C76    H81     1.111   .     S
C77    H80     1.111   .     S
C77    H642    1.110   1_545 S
C77    H643    1.110   1_545 S
H78    C359    1.110   .     S
H79    C359    1.110   .     S
C85    C86     1.535   .     S
C85    H93     1.103   .     S
C85    H94     1.110   .     S
C86    H91     1.107   .     S
C86    C87     1.527   .     S
C86    H92     1.103   .     S
C87    H88     1.109   .     S
C87    H90     1.110   .     S
C87    H89     1.111   .     S
C95    C104    1.407   .     S
C95    O142    1.301   .     A
C95    O139    1.290   .     A
C96    O140    1.295   .     A
C96    O141    1.298   .     A
C96    C103    1.411   .     S
C97    C122    1.401   .     A
C97    H131    1.084   .     S
C97    C969    1.391   1_554 S
C98    C121    1.400   .     A
C98    H132    1.084   .     S
C98    C970    1.389   .     S
C99    H133    1.084   .     S
C99    C104    1.389   .     A
C100   C103    1.393   .     A
C100   H134    1.084   .     S
C100   C196    1.374   .     S
C101   H135    1.075   .     S
C101   C103    1.395   .     A
C101   C193    1.369   .     S
C102   H136    1.084   .     S
C102   C104    1.398   .     A
C105   N138    1.379   .     A
C105   C149    1.517   .     S
C105   C672    1.424   1_545 S
C106   N137    1.383   .     A
C106   C159    1.520   .     S
C106   C389    1.442   .     S
C107   C169    1.522   .     S
C107   N138    1.387   .     A
C107   C670    1.442   1_545 S
C108   C179    1.518   .     S
C108   N137    1.379   .     A
C108   C387    1.424   .     S
C109   C114    1.431   .     S
C109   O146    1.297   .     A
C109   O143    1.306   .     A
C110   O145    1.300   .     A
C110   C113    1.433   .     S
C110   O144    1.304   .     A
C111   C121    1.381   .     A
C111   H125    1.081   .     S
C111   C113    1.396   .     A
C112   C122    1.383   .     A
C112   H126    1.085   .     S
C112   C114    1.398   .     A
C113   C115    1.395   .     A
C114   C116    1.393   .     A
C115   H127    1.085   .     S
C115   C117    1.386   .     A
C116   H128    1.083   .     S
C116   C118    1.384   .     A
C117   C123    1.400   .     A
C117   C119    1.413   .     A
C118   C120    1.413   .     A
C118   C124    1.399   .     A
C119   C121    1.409   .     A
C119   C966    1.391   .     S
C120   C122    1.410   .     A
C120   C965    1.391   1_554 S
C123   H129    1.084   .     S
C123   C943    1.391   .     S
C124   H130    1.084   .     S
C124   C944    1.389   1_554 S
N137   Zn147   2.049   .     S
N138   Zn148   2.049   .     S
O139   Zn147   1.973   .     S
O140   Zn148   1.973   .     S
O141   Zn147   1.994   .     S
O142   Zn148   1.994   .     S
O143   Zn147   2.022   .     S
O144   Zn148   2.022   .     S
O145   Zn147   2.002   .     S
O146   Zn148   2.002   .     S
C149   C150    1.532   .     S
C149   H157    1.102   .     S
C149   H158    1.111   .     S
C150   C151    1.526   .     S
C150   H156    1.102   .     S
C150   H155    1.107   .     S
C151   H153    1.111   .     S
C151   H154    1.110   .     S
C151   H152    1.109   .     S
C159   H167    1.085   .     S
C159   H168    1.100   .     S
C159   C160    1.537   .     S
C160   H166    1.108   .     S
C160   C161    1.527   .     S
C160   H165    1.110   .     S
C161   H162    1.110   .     S
C161   H163    1.111   .     S
C161   H164    1.110   .     S
C169   H177    1.094   .     S
C169   H178    1.105   .     S
C169   C170    1.546   .     S
C170   C171    1.527   .     S
C170   H176    1.110   .     S
C170   H175    1.111   .     S
C171   H174    1.111   .     S
C171   H736    1.110   1_545 S
C171   H737    1.110   1_545 S
H172   C453    1.110   .     S
H173   C453    1.110   .     S
C179   C180    1.535   .     S
C179   H187    1.103   .     S
C179   H188    1.110   .     S
C180   H185    1.107   .     S
C180   C181    1.527   .     S
C180   H186    1.103   .     S
C181   H182    1.109   .     S
C181   H184    1.110   .     S
C181   H183    1.111   .     S
C189   C198    1.407   .     S
C189   O236    1.301   .     A
C189   O233    1.290   .     A
C190   O234    1.295   .     A
C190   O235    1.298   .     A
C190   C197    1.411   .     S
C191   C216    1.401   .     A
C191   H225    1.084   .     S
C191   C1063   1.391   1_554 S
C192   C215    1.400   .     A
C192   H226    1.084   .     S
C192   C1064   1.389   .     S
C193   H227    1.084   .     S
C193   C198    1.389   .     A
C194   C197    1.393   .     A
C194   H228    1.084   .     S
C194   C8      1.374   1_655 S
C195   H229    1.075   .     S
C195   C197    1.395   .     A
C195   C5      1.369   1_655 S
C196   H230    1.084   .     S
C196   C198    1.398   .     A
C199   N232    1.379   .     A
C199   C243    1.517   .     S
C199   C766    1.424   1_545 S
C200   N231    1.383   .     A
C200   C253    1.520   .     S
C200   C483    1.442   .     S
C201   C263    1.522   .     S
C201   N232    1.387   .     A
C201   C764    1.442   1_545 S
C202   C273    1.518   .     S
C202   N231    1.379   .     A
C202   C481    1.424   .     S
C203   C208    1.431   .     S
C203   O240    1.297   .     A
C203   O237    1.306   .     A
C204   O239    1.300   .     A
C204   C207    1.433   .     S
C204   O238    1.304   .     A
C205   C215    1.381   .     A
C205   H219    1.081   .     S
C205   C207    1.396   .     A
C206   C216    1.383   .     A
C206   H220    1.085   .     S
C206   C208    1.398   .     A
C207   C209    1.395   .     A
C208   C210    1.393   .     A
C209   H221    1.085   .     S
C209   C211    1.386   .     A
C210   H222    1.083   .     S
C210   C212    1.384   .     A
C211   C217    1.400   .     A
C211   C213    1.413   .     A
C212   C214    1.413   .     A
C212   C218    1.399   .     A
C213   C215    1.409   .     A
C213   C1060   1.391   .     S
C214   C216    1.410   .     A
C214   C1059   1.391   1_554 S
C217   H223    1.084   .     S
C217   C1037   1.391   .     S
C218   H224    1.084   .     S
C218   C1038   1.389   1_554 S
N231   Zn241   2.049   .     S
N232   Zn242   2.049   .     S
O233   Zn241   1.973   .     S
O234   Zn242   1.973   .     S
O235   Zn241   1.994   .     S
O236   Zn242   1.994   .     S
O237   Zn241   2.022   .     S
O238   Zn242   2.022   .     S
O239   Zn241   2.002   .     S
O240   Zn242   2.002   .     S
C243   C244    1.532   .     S
C243   H251    1.102   .     S
C243   H252    1.111   .     S
C244   C245    1.526   .     S
C244   H250    1.102   .     S
C244   H249    1.107   .     S
C245   H247    1.111   .     S
C245   H248    1.110   .     S
C245   H246    1.109   .     S
C253   H261    1.085   .     S
C253   H262    1.100   .     S
C253   C254    1.537   .     S
C254   H260    1.108   .     S
C254   C255    1.527   .     S
C254   H259    1.110   .     S
C255   H256    1.110   .     S
C255   H257    1.111   .     S
C255   H258    1.110   .     S
C263   H271    1.094   .     S
C263   H272    1.105   .     S
C263   C264    1.546   .     S
C264   C265    1.527   .     S
C264   H270    1.110   .     S
C264   H269    1.111   .     S
C265   H268    1.111   .     S
C265   H830    1.110   1_545 S
C265   H831    1.110   1_545 S
H266   C547    1.110   .     S
H267   C547    1.110   .     S
C273   C274    1.535   .     S
C273   H281    1.103   .     S
C273   H282    1.110   .     S
C274   H279    1.107   .     S
C274   C275    1.527   .     S
C274   H280    1.103   .     S
C275   H276    1.109   .     S
C275   H278    1.110   .     S
C275   H277    1.111   .     S
C283   C292    1.407   .     S
C283   O330    1.301   .     A
C283   O327    1.290   .     A
C284   O328    1.295   .     A
C284   O329    1.298   .     A
C284   C291    1.411   .     S
C285   C310    1.401   .     A
C285   H319    1.084   .     S
C285   C1157   1.391   1_554 S
C286   C309    1.400   .     A
C286   H320    1.084   .     S
C286   C1158   1.389   .     S
C287   H321    1.084   .     S
C287   C292    1.389   .     A
C287   C477    1.369   1_455 S
C288   C291    1.393   .     A
C288   H322    1.084   .     S
C288   C384    1.374   .     S
C289   H323    1.075   .     S
C289   C291    1.395   .     A
C289   C381    1.369   .     S
C290   H324    1.084   .     S
C290   C292    1.398   .     A
C290   C476    1.374   1_455 S
C293   N326    1.379   .     A
C293   C337    1.517   .     S
C294   N325    1.383   .     A
C294   C347    1.520   .     S
C294   C577    1.442   .     S
C295   C357    1.522   .     S
C295   N326    1.387   .     A
C296   C367    1.518   .     S
C296   N325    1.379   .     A
C296   C575    1.424   .     S
C297   C302    1.431   .     S
C297   O334    1.297   .     A
C297   O331    1.306   .     A
C298   O333    1.300   .     A
C298   C301    1.433   .     S
C298   O332    1.304   .     A
C299   C309    1.381   .     A
C299   H313    1.081   .     S
C299   C301    1.396   .     A
C300   C310    1.383   .     A
C300   H314    1.085   .     S
C300   C302    1.398   .     A
C301   C303    1.395   .     A
C302   C304    1.393   .     A
C303   H315    1.085   .     S
C303   C305    1.386   .     A
C304   H316    1.083   .     S
C304   C306    1.384   .     A
C305   C311    1.400   .     A
C305   C307    1.413   .     A
C306   C308    1.413   .     A
C306   C312    1.399   .     A
C307   C309    1.409   .     A
C307   C1154   1.391   .     S
C308   C310    1.410   .     A
C308   C1153   1.391   1_554 S
C311   H317    1.084   .     S
C311   C1131   1.391   .     S
C312   H318    1.084   .     S
C312   C1132   1.389   1_554 S
N325   Zn335   2.049   .     S
N326   Zn336   2.049   .     S
O327   Zn335   1.973   .     S
O328   Zn336   1.973   .     S
O329   Zn335   1.994   .     S
O330   Zn336   1.994   .     S
O331   Zn335   2.022   .     S
O332   Zn336   2.022   .     S
O333   Zn335   2.002   .     S
O334   Zn336   2.002   .     S
C337   C338    1.532   .     S
C337   H345    1.102   .     S
C337   H346    1.111   .     S
C338   C339    1.526   .     S
C338   H344    1.102   .     S
C338   H343    1.107   .     S
C339   H341    1.111   .     S
C339   H342    1.110   .     S
C339   H340    1.109   .     S
C347   H355    1.085   .     S
C347   H356    1.100   .     S
C347   C348    1.537   .     S
C348   H354    1.108   .     S
C348   C349    1.527   .     S
C348   H353    1.110   .     S
C349   H350    1.110   .     S
C349   H351    1.111   .     S
C349   H352    1.110   .     S
C357   H365    1.094   .     S
C357   H366    1.105   .     S
C357   C358    1.546   .     S
C358   C359    1.527   .     S
C358   H364    1.110   .     S
C358   H363    1.111   .     S
C359   H362    1.111   .     S
H360   C641    1.110   .     S
H361   C641    1.110   .     S
C367   C368    1.535   .     S
C367   H375    1.103   .     S
C367   H376    1.110   .     S
C368   H373    1.107   .     S
C368   C369    1.527   .     S
C368   H374    1.103   .     S
C369   H370    1.109   .     S
C369   H372    1.110   .     S
C369   H371    1.111   .     S
C377   C386    1.407   .     S
C377   O424    1.301   .     A
C377   O421    1.290   .     A
C378   O422    1.295   .     A
C378   O423    1.298   .     A
C378   C385    1.411   .     S
C379   C404    1.401   .     A
C379   H413    1.084   .     S
C379   C1251   1.391   1_554 S
C380   C403    1.400   .     A
C380   H414    1.084   .     S
C380   C1252   1.389   .     S
C381   H415    1.084   .     S
C381   C386    1.389   .     A
C382   C385    1.393   .     A
C382   H416    1.084   .     S
C382   C478    1.374   .     S
C383   H417    1.075   .     S
C383   C385    1.395   .     A
C383   C475    1.369   .     S
C384   H418    1.084   .     S
C384   C386    1.398   .     A
C387   N420    1.379   .     A
C387   C431    1.517   .     S
C388   N419    1.383   .     A
C388   C441    1.520   .     S
C388   C671    1.442   .     S
C389   C451    1.522   .     S
C389   N420    1.387   .     A
C390   C461    1.518   .     S
C390   N419    1.379   .     A
C390   C669    1.424   .     S
C391   C396    1.431   .     S
C391   O428    1.297   .     A
C391   O425    1.306   .     A
C392   O427    1.300   .     A
C392   C395    1.433   .     S
C392   O426    1.304   .     A
C393   C403    1.381   .     A
C393   H407    1.081   .     S
C393   C395    1.396   .     A
C394   C404    1.383   .     A
C394   H408    1.085   .     S
C394   C396    1.398   .     A
C395   C397    1.395   .     A
C396   C398    1.393   .     A
C397   H409    1.085   .     S
C397   C399    1.386   .     A
C398   H410    1.083   .     S
C398   C400    1.384   .     A
C399   C405    1.400   .     A
C399   C401    1.413   .     A
C400   C402    1.413   .     A
C400   C406    1.399   .     A
C401   C403    1.409   .     A
C401   C1248   1.391   .     S
C402   C404    1.410   .     A
C402   C1247   1.391   1_554 S
C405   H411    1.084   .     S
C405   C1225   1.391   .     S
C406   H412    1.084   .     S
C406   C1226   1.389   1_554 S
N419   Zn429   2.049   .     S
N420   Zn430   2.049   .     S
O421   Zn429   1.973   .     S
O422   Zn430   1.973   .     S
O423   Zn429   1.994   .     S
O424   Zn430   1.994   .     S
O425   Zn429   2.022   .     S
O426   Zn430   2.022   .     S
O427   Zn429   2.002   .     S
O428   Zn430   2.002   .     S
C431   C432    1.532   .     S
C431   H439    1.102   .     S
C431   H440    1.111   .     S
C432   C433    1.526   .     S
C432   H438    1.102   .     S
C432   H437    1.107   .     S
C433   H435    1.111   .     S
C433   H436    1.110   .     S
C433   H434    1.109   .     S
C441   H449    1.085   .     S
C441   H450    1.100   .     S
C441   C442    1.537   .     S
C442   H448    1.108   .     S
C442   C443    1.527   .     S
C442   H447    1.110   .     S
C443   H444    1.110   .     S
C443   H445    1.111   .     S
C443   H446    1.110   .     S
C451   H459    1.094   .     S
C451   H460    1.105   .     S
C451   C452    1.546   .     S
C452   C453    1.527   .     S
C452   H458    1.110   .     S
C452   H457    1.111   .     S
C453   H456    1.111   .     S
H454   C735    1.110   .     S
H455   C735    1.110   .     S
C461   C462    1.535   .     S
C461   H469    1.103   .     S
C461   H470    1.110   .     S
C462   H467    1.107   .     S
C462   C463    1.527   .     S
C462   H468    1.103   .     S
C463   H464    1.109   .     S
C463   H466    1.110   .     S
C463   H465    1.111   .     S
C471   C480    1.407   .     S
C471   O518    1.301   .     A
C471   O515    1.290   .     A
C472   O516    1.295   .     A
C472   O517    1.298   .     A
C472   C479    1.411   .     S
C473   C498    1.401   .     A
C473   H507    1.084   .     S
C473   C1345   1.391   1_554 S
C474   C497    1.400   .     A
C474   H508    1.084   .     S
C474   C1346   1.389   .     S
C475   H509    1.084   .     S
C475   C480    1.389   .     A
C476   C479    1.393   .     A
C476   H510    1.084   .     S
C476   C290    1.374   1_655 S
C477   H511    1.075   .     S
C477   C479    1.395   .     A
C477   C287    1.369   1_655 S
C478   H512    1.084   .     S
C478   C480    1.398   .     A
C481   N514    1.379   .     A
C481   C525    1.517   .     S
C482   N513    1.383   .     A
C482   C535    1.520   .     S
C482   C765    1.442   .     S
C483   C545    1.522   .     S
C483   N514    1.387   .     A
C484   C555    1.518   .     S
C484   N513    1.379   .     A
C484   C763    1.424   .     S
C485   C490    1.431   .     S
C485   O522    1.297   .     A
C485   O519    1.306   .     A
C486   O521    1.300   .     A
C486   C489    1.433   .     S
C486   O520    1.304   .     A
C487   C497    1.381   .     A
C487   H501    1.081   .     S
C487   C489    1.396   .     A
C488   C498    1.383   .     A
C488   H502    1.085   .     S
C488   C490    1.398   .     A
C489   C491    1.395   .     A
C490   C492    1.393   .     A
C491   H503    1.085   .     S
C491   C493    1.386   .     A
C492   H504    1.083   .     S
C492   C494    1.384   .     A
C493   C499    1.400   .     A
C493   C495    1.413   .     A
C494   C496    1.413   .     A
C494   C500    1.399   .     A
C495   C497    1.409   .     A
C495   C1342   1.391   .     S
C496   C498    1.410   .     A
C496   C1341   1.391   1_554 S
C499   H505    1.084   .     S
C499   C1319   1.391   .     S
C500   H506    1.084   .     S
C500   C1320   1.389   1_554 S
N513   Zn523   2.049   .     S
N514   Zn524   2.049   .     S
O515   Zn523   1.973   .     S
O516   Zn524   1.973   .     S
O517   Zn523   1.994   .     S
O518   Zn524   1.994   .     S
O519   Zn523   2.022   .     S
O520   Zn524   2.022   .     S
O521   Zn523   2.002   .     S
O522   Zn524   2.002   .     S
C525   C526    1.532   .     S
C525   H533    1.102   .     S
C525   H534    1.111   .     S
C526   C527    1.526   .     S
C526   H532    1.102   .     S
C526   H531    1.107   .     S
C527   H529    1.111   .     S
C527   H530    1.110   .     S
C527   H528    1.109   .     S
C535   H543    1.085   .     S
C535   H544    1.100   .     S
C535   C536    1.537   .     S
C536   H542    1.108   .     S
C536   C537    1.527   .     S
C536   H541    1.110   .     S
C537   H538    1.110   .     S
C537   H539    1.111   .     S
C537   H540    1.110   .     S
C545   H553    1.094   .     S
C545   H554    1.105   .     S
C545   C546    1.546   .     S
C546   C547    1.527   .     S
C546   H552    1.110   .     S
C546   H551    1.111   .     S
C547   H550    1.111   .     S
H548   C829    1.110   .     S
H549   C829    1.110   .     S
C555   C556    1.535   .     S
C555   H563    1.103   .     S
C555   H564    1.110   .     S
C556   H561    1.107   .     S
C556   C557    1.527   .     S
C556   H562    1.103   .     S
C557   H558    1.109   .     S
C557   H560    1.110   .     S
C557   H559    1.111   .     S
C565   C574    1.407   .     S
C565   O612    1.301   .     A
C565   O609    1.290   .     A
C566   O610    1.295   .     A
C566   O611    1.298   .     A
C566   C573    1.411   .     S
C567   C592    1.401   .     A
C567   H601    1.084   .     S
C567   C1439   1.391   1_554 S
C568   C591    1.400   .     A
C568   H602    1.084   .     S
C568   C1440   1.389   .     S
C569   H603    1.084   .     S
C569   C574    1.389   .     A
C569   C759    1.369   1_455 S
C570   C573    1.393   .     A
C570   H604    1.084   .     S
C570   C666    1.374   .     S
C571   H605    1.075   .     S
C571   C573    1.395   .     A
C571   C663    1.369   .     S
C572   H606    1.084   .     S
C572   C574    1.398   .     A
C572   C758    1.374   1_455 S
C575   N608    1.379   .     A
C575   C619    1.517   .     S
C576   N607    1.383   .     A
C576   C629    1.520   .     S
C576   C13     1.442   1_565 S
C577   C639    1.522   .     S
C577   N608    1.387   .     A
C578   C649    1.518   .     S
C578   N607    1.379   .     A
C578   C11     1.424   1_565 S
C579   C584    1.431   .     S
C579   O616    1.297   .     A
C579   O613    1.306   .     A
C580   O615    1.300   .     A
C580   C583    1.433   .     S
C580   O614    1.304   .     A
C581   C591    1.381   .     A
C581   H595    1.081   .     S
C581   C583    1.396   .     A
C582   C592    1.383   .     A
C582   H596    1.085   .     S
C582   C584    1.398   .     A
C583   C585    1.395   .     A
C584   C586    1.393   .     A
C585   H597    1.085   .     S
C585   C587    1.386   .     A
C586   H598    1.083   .     S
C586   C588    1.384   .     A
C587   C593    1.400   .     A
C587   C589    1.413   .     A
C588   C590    1.413   .     A
C588   C594    1.399   .     A
C589   C591    1.409   .     A
C589   C1436   1.391   .     S
C590   C592    1.410   .     A
C590   C1435   1.391   1_554 S
C593   H599    1.084   .     S
C593   C1413   1.391   .     S
C594   H600    1.084   .     S
C594   C1414   1.389   1_554 S
N607   Zn617   2.049   .     S
N608   Zn618   2.049   .     S
O609   Zn617   1.973   .     S
O610   Zn618   1.973   .     S
O611   Zn617   1.994   .     S
O612   Zn618   1.994   .     S
O613   Zn617   2.022   .     S
O614   Zn618   2.022   .     S
O615   Zn617   2.002   .     S
O616   Zn618   2.002   .     S
C619   C620    1.532   .     S
C619   H627    1.102   .     S
C619   H628    1.111   .     S
C620   C621    1.526   .     S
C620   H626    1.102   .     S
C620   H625    1.107   .     S
C621   H623    1.111   .     S
C621   H624    1.110   .     S
C621   H622    1.109   .     S
C629   H637    1.085   .     S
C629   H638    1.100   .     S
C629   C630    1.537   .     S
C630   H636    1.108   .     S
C630   C631    1.527   .     S
C630   H635    1.110   .     S
C631   H632    1.110   .     S
C631   H633    1.111   .     S
C631   H634    1.110   .     S
C639   H647    1.094   .     S
C639   H648    1.105   .     S
C639   C640    1.546   .     S
C640   C641    1.527   .     S
C640   H646    1.110   .     S
C640   H645    1.111   .     S
C641   H644    1.111   .     S
H642   C77     1.110   1_565 S
H643   C77     1.110   1_565 S
C649   C650    1.535   .     S
C649   H657    1.103   .     S
C649   H658    1.110   .     S
C650   H655    1.107   .     S
C650   C651    1.527   .     S
C650   H656    1.103   .     S
C651   H652    1.109   .     S
C651   H654    1.110   .     S
C651   H653    1.111   .     S
C659   C668    1.407   .     S
C659   O706    1.301   .     A
C659   O703    1.290   .     A
C660   O704    1.295   .     A
C660   O705    1.298   .     A
C660   C667    1.411   .     S
C661   C686    1.401   .     A
C661   H695    1.084   .     S
C661   C1533   1.391   1_554 S
C662   C685    1.400   .     A
C662   H696    1.084   .     S
C662   C1534   1.389   .     S
C663   H697    1.084   .     S
C663   C668    1.389   .     A
C664   C667    1.393   .     A
C664   H698    1.084   .     S
C664   C760    1.374   .     S
C665   H699    1.075   .     S
C665   C667    1.395   .     A
C665   C757    1.369   .     S
C666   H700    1.084   .     S
C666   C668    1.398   .     A
C669   N702    1.379   .     A
C669   C713    1.517   .     S
C670   N701    1.383   .     A
C670   C723    1.520   .     S
C670   C107    1.442   1_565 S
C671   C733    1.522   .     S
C671   N702    1.387   .     A
C672   C743    1.518   .     S
C672   N701    1.379   .     A
C672   C105    1.424   1_565 S
C673   C678    1.431   .     S
C673   O710    1.297   .     A
C673   O707    1.306   .     A
C674   O709    1.300   .     A
C674   C677    1.433   .     S
C674   O708    1.304   .     A
C675   C685    1.381   .     A
C675   H689    1.081   .     S
C675   C677    1.396   .     A
C676   C686    1.383   .     A
C676   H690    1.085   .     S
C676   C678    1.398   .     A
C677   C679    1.395   .     A
C678   C680    1.393   .     A
C679   H691    1.085   .     S
C679   C681    1.386   .     A
C680   H692    1.083   .     S
C680   C682    1.384   .     A
C681   C687    1.400   .     A
C681   C683    1.413   .     A
C682   C684    1.413   .     A
C682   C688    1.399   .     A
C683   C685    1.409   .     A
C683   C1530   1.391   .     S
C684   C686    1.410   .     A
C684   C1529   1.391   1_554 S
C687   H693    1.084   .     S
C687   C1507   1.391   .     S
C688   H694    1.084   .     S
C688   C1508   1.389   1_554 S
N701   Zn711   2.049   .     S
N702   Zn712   2.049   .     S
O703   Zn711   1.973   .     S
O704   Zn712   1.973   .     S
O705   Zn711   1.994   .     S
O706   Zn712   1.994   .     S
O707   Zn711   2.022   .     S
O708   Zn712   2.022   .     S
O709   Zn711   2.002   .     S
O710   Zn712   2.002   .     S
C713   C714    1.532   .     S
C713   H721    1.102   .     S
C713   H722    1.111   .     S
C714   C715    1.526   .     S
C714   H720    1.102   .     S
C714   H719    1.107   .     S
C715   H717    1.111   .     S
C715   H718    1.110   .     S
C715   H716    1.109   .     S
C723   H731    1.085   .     S
C723   H732    1.100   .     S
C723   C724    1.537   .     S
C724   H730    1.108   .     S
C724   C725    1.527   .     S
C724   H729    1.110   .     S
C725   H726    1.110   .     S
C725   H727    1.111   .     S
C725   H728    1.110   .     S
C733   H741    1.094   .     S
C733   H742    1.105   .     S
C733   C734    1.546   .     S
C734   C735    1.527   .     S
C734   H740    1.110   .     S
C734   H739    1.111   .     S
C735   H738    1.111   .     S
H736   C171    1.110   1_565 S
H737   C171    1.110   1_565 S
C743   C744    1.535   .     S
C743   H751    1.103   .     S
C743   H752    1.110   .     S
C744   H749    1.107   .     S
C744   C745    1.527   .     S
C744   H750    1.103   .     S
C745   H746    1.109   .     S
C745   H748    1.110   .     S
C745   H747    1.111   .     S
C753   C762    1.407   .     S
C753   O800    1.301   .     A
C753   O797    1.290   .     A
C754   O798    1.295   .     A
C754   O799    1.298   .     A
C754   C761    1.411   .     S
C755   C780    1.401   .     A
C755   H789    1.084   .     S
C755   C1627   1.391   1_554 S
C756   C779    1.400   .     A
C756   H790    1.084   .     S
C756   C1628   1.389   .     S
C757   H791    1.084   .     S
C757   C762    1.389   .     A
C758   C761    1.393   .     A
C758   H792    1.084   .     S
C758   C572    1.374   1_655 S
C759   H793    1.075   .     S
C759   C761    1.395   .     A
C759   C569    1.369   1_655 S
C760   H794    1.084   .     S
C760   C762    1.398   .     A
C763   N796    1.379   .     A
C763   C807    1.517   .     S
C764   N795    1.383   .     A
C764   C817    1.520   .     S
C764   C201    1.442   1_565 S
C765   C827    1.522   .     S
C765   N796    1.387   .     A
C766   C837    1.518   .     S
C766   N795    1.379   .     A
C766   C199    1.424   1_565 S
C767   C772    1.431   .     S
C767   O804    1.297   .     A
C767   O801    1.306   .     A
C768   O803    1.300   .     A
C768   C771    1.433   .     S
C768   O802    1.304   .     A
C769   C779    1.381   .     A
C769   H783    1.081   .     S
C769   C771    1.396   .     A
C770   C780    1.383   .     A
C770   H784    1.085   .     S
C770   C772    1.398   .     A
C771   C773    1.395   .     A
C772   C774    1.393   .     A
C773   H785    1.085   .     S
C773   C775    1.386   .     A
C774   H786    1.083   .     S
C774   C776    1.384   .     A
C775   C781    1.400   .     A
C775   C777    1.413   .     A
C776   C778    1.413   .     A
C776   C782    1.399   .     A
C777   C779    1.409   .     A
C777   C1624   1.391   .     S
C778   C780    1.410   .     A
C778   C1623   1.391   1_554 S
C781   H787    1.084   .     S
C781   C1601   1.391   .     S
C782   H788    1.084   .     S
C782   C1602   1.389   1_554 S
N795   Zn805   2.049   .     S
N796   Zn806   2.049   .     S
O797   Zn805   1.973   .     S
O798   Zn806   1.973   .     S
O799   Zn805   1.994   .     S
O800   Zn806   1.994   .     S
O801   Zn805   2.022   .     S
O802   Zn806   2.022   .     S
O803   Zn805   2.002   .     S
O804   Zn806   2.002   .     S
C807   C808    1.532   .     S
C807   H815    1.102   .     S
C807   H816    1.111   .     S
C808   C809    1.526   .     S
C808   H814    1.102   .     S
C808   H813    1.107   .     S
C809   H811    1.111   .     S
C809   H812    1.110   .     S
C809   H810    1.109   .     S
C817   H825    1.085   .     S
C817   H826    1.100   .     S
C817   C818    1.537   .     S
C818   H824    1.108   .     S
C818   C819    1.527   .     S
C818   H823    1.110   .     S
C819   H820    1.110   .     S
C819   H821    1.111   .     S
C819   H822    1.110   .     S
C827   H835    1.094   .     S
C827   H836    1.105   .     S
C827   C828    1.546   .     S
C828   C829    1.527   .     S
C828   H834    1.110   .     S
C828   H833    1.111   .     S
C829   H832    1.111   .     S
H830   C265    1.110   1_565 S
H831   C265    1.110   1_565 S
C837   C838    1.535   .     S
C837   H845    1.103   .     S
C837   H846    1.110   .     S
C838   H843    1.107   .     S
C838   C839    1.527   .     S
C838   H844    1.103   .     S
C839   H840    1.109   .     S
C839   H842    1.110   .     S
C839   H841    1.111   .     S
C847   C856    1.407   .     S
C847   O894    1.301   .     A
C847   O891    1.290   .     A
C848   O892    1.295   .     A
C848   O893    1.298   .     A
C848   C855    1.411   .     S
C849   C874    1.401   .     A
C849   H883    1.084   .     S
C850   C873    1.400   .     A
C850   H884    1.084   .     S
C850   C30     1.389   1_556 S
C851   H885    1.084   .     S
C851   C856    1.389   .     A
C851   C1041   1.369   1_455 S
C852   C855    1.393   .     A
C852   H886    1.084   .     S
C852   C948    1.374   .     S
C853   H887    1.075   .     S
C853   C855    1.395   .     A
C853   C945    1.369   .     S
C854   H888    1.084   .     S
C854   C856    1.398   .     A
C854   C1040   1.374   1_455 S
C857   N890    1.379   .     A
C857   C901    1.517   .     S
C857   C1424   1.424   1_545 S
C858   N889    1.383   .     A
C858   C911    1.520   .     S
C858   C1141   1.442   .     S
C859   C921    1.522   .     S
C859   N890    1.387   .     A
C859   C1422   1.442   1_545 S
C860   C931    1.518   .     S
C860   N889    1.379   .     A
C860   C1139   1.424   .     S
C861   C866    1.431   .     S
C861   O898    1.297   .     A
C861   O895    1.306   .     A
C862   O897    1.300   .     A
C862   C865    1.433   .     S
C862   O896    1.304   .     A
C863   C873    1.381   .     A
C863   H877    1.081   .     S
C863   C865    1.396   .     A
C864   C874    1.383   .     A
C864   H878    1.085   .     S
C864   C866    1.398   .     A
C865   C867    1.395   .     A
C866   C868    1.393   .     A
C867   H879    1.085   .     S
C867   C869    1.386   .     A
C868   H880    1.083   .     S
C868   C870    1.384   .     A
C869   C875    1.400   .     A
C869   C871    1.413   .     A
C870   C872    1.413   .     A
C870   C876    1.399   .     A
C871   C873    1.409   .     A
C871   C26     1.391   1_556 S
C872   C874    1.410   .     A
C875   H881    1.084   .     S
C875   C3      1.391   1_556 S
C876   H882    1.084   .     S
N889   Zn899   2.049   .     S
N890   Zn900   2.049   .     S
O891   Zn899   1.973   .     S
O892   Zn900   1.973   .     S
O893   Zn899   1.994   .     S
O894   Zn900   1.994   .     S
O895   Zn899   2.022   .     S
O896   Zn900   2.022   .     S
O897   Zn899   2.002   .     S
O898   Zn900   2.002   .     S
C901   C902    1.532   .     S
C901   H909    1.102   .     S
C901   H910    1.111   .     S
C902   C903    1.526   .     S
C902   H908    1.102   .     S
C902   H907    1.107   .     S
C903   H905    1.111   .     S
C903   H906    1.110   .     S
C903   H904    1.109   .     S
C911   H919    1.085   .     S
C911   H920    1.100   .     S
C911   C912    1.537   .     S
C912   H918    1.108   .     S
C912   C913    1.527   .     S
C912   H917    1.110   .     S
C913   H914    1.110   .     S
C913   H915    1.111   .     S
C913   H916    1.110   .     S
C921   H929    1.094   .     S
C921   H930    1.105   .     S
C921   C922    1.546   .     S
C922   C923    1.527   .     S
C922   H928    1.110   .     S
C922   H927    1.111   .     S
C923   H926    1.111   .     S
C923   H1488   1.110   1_545 S
C923   H1489   1.110   1_545 S
H924   C1205   1.110   .     S
H925   C1205   1.110   .     S
C931   C932    1.535   .     S
C931   H939    1.103   .     S
C931   H940    1.110   .     S
C932   H937    1.107   .     S
C932   C933    1.527   .     S
C932   H938    1.103   .     S
C933   H934    1.109   .     S
C933   H936    1.110   .     S
C933   H935    1.111   .     S
C941   C950    1.407   .     S
C941   O988    1.301   .     A
C941   O985    1.290   .     A
C942   O986    1.295   .     A
C942   O987    1.298   .     A
C942   C949    1.411   .     S
C943   C968    1.401   .     A
C943   H977    1.084   .     S
C944   C967    1.400   .     A
C944   H978    1.084   .     S
C944   C124    1.389   1_556 S
C945   H979    1.084   .     S
C945   C950    1.389   .     A
C946   C949    1.393   .     A
C946   H980    1.084   .     S
C946   C1042   1.374   .     S
C947   H981    1.075   .     S
C947   C949    1.395   .     A
C947   C1039   1.369   .     S
C948   H982    1.084   .     S
C948   C950    1.398   .     A
C951   N984    1.379   .     A
C951   C995    1.517   .     S
C951   C1518   1.424   1_545 S
C952   N983    1.383   .     A
C952   C1005   1.520   .     S
C952   C1235   1.442   .     S
C953   C1015   1.522   .     S
C953   N984    1.387   .     A
C953   C1516   1.442   1_545 S
C954   C1025   1.518   .     S
C954   N983    1.379   .     A
C954   C1233   1.424   .     S
C955   C960    1.431   .     S
C955   O992    1.297   .     A
C955   O989    1.306   .     A
C956   O991    1.300   .     A
C956   C959    1.433   .     S
C956   O990    1.304   .     A
C957   C967    1.381   .     A
C957   H971    1.081   .     S
C957   C959    1.396   .     A
C958   C968    1.383   .     A
C958   H972    1.085   .     S
C958   C960    1.398   .     A
C959   C961    1.395   .     A
C960   C962    1.393   .     A
C961   H973    1.085   .     S
C961   C963    1.386   .     A
C962   H974    1.083   .     S
C962   C964    1.384   .     A
C963   C969    1.400   .     A
C963   C965    1.413   .     A
C964   C966    1.413   .     A
C964   C970    1.399   .     A
C965   C967    1.409   .     A
C965   C120    1.391   1_556 S
C966   C968    1.410   .     A
C969   H975    1.084   .     S
C969   C97     1.391   1_556 S
C970   H976    1.084   .     S
N983   Zn993   2.049   .     S
N984   Zn994   2.049   .     S
O985   Zn993   1.973   .     S
O986   Zn994   1.973   .     S
O987   Zn993   1.994   .     S
O988   Zn994   1.994   .     S
O989   Zn993   2.022   .     S
O990   Zn994   2.022   .     S
O991   Zn993   2.002   .     S
O992   Zn994   2.002   .     S
C995   C996    1.532   .     S
C995   H1003   1.102   .     S
C995   H1004   1.111   .     S
C996   C997    1.526   .     S
C996   H1002   1.102   .     S
C996   H1001   1.107   .     S
C997   H999    1.111   .     S
C997   H1000   1.110   .     S
C997   H998    1.109   .     S
C1005  H1013   1.085   .     S
C1005  H1014   1.100   .     S
C1005  C1006   1.537   .     S
C1006  H1012   1.108   .     S
C1006  C1007   1.527   .     S
C1006  H1011   1.110   .     S
C1007  H1008   1.110   .     S
C1007  H1009   1.111   .     S
C1007  H1010   1.110   .     S
C1015  H1023   1.094   .     S
C1015  H1024   1.105   .     S
C1015  C1016   1.546   .     S
C1016  C1017   1.527   .     S
C1016  H1022   1.110   .     S
C1016  H1021   1.111   .     S
C1017  H1020   1.111   .     S
C1017  H1582   1.110   1_545 S
C1017  H1583   1.110   1_545 S
H1018  C1299   1.110   .     S
H1019  C1299   1.110   .     S
C1025  C1026   1.535   .     S
C1025  H1033   1.103   .     S
C1025  H1034   1.110   .     S
C1026  H1031   1.107   .     S
C1026  C1027   1.527   .     S
C1026  H1032   1.103   .     S
C1027  H1028   1.109   .     S
C1027  H1030   1.110   .     S
C1027  H1029   1.111   .     S
C1035  C1044   1.407   .     S
C1035  O1082   1.301   .     A
C1035  O1079   1.290   .     A
C1036  O1080   1.295   .     A
C1036  O1081   1.298   .     A
C1036  C1043   1.411   .     S
C1037  C1062   1.401   .     A
C1037  H1071   1.084   .     S
C1038  C1061   1.400   .     A
C1038  H1072   1.084   .     S
C1038  C218    1.389   1_556 S
C1039  H1073   1.084   .     S
C1039  C1044   1.389   .     A
C1040  C1043   1.393   .     A
C1040  H1074   1.084   .     S
C1040  C854    1.374   1_655 S
C1041  H1075   1.075   .     S
C1041  C1043   1.395   .     A
C1041  C851    1.369   1_655 S
C1042  H1076   1.084   .     S
C1042  C1044   1.398   .     A
C1045  N1078   1.379   .     A
C1045  C1089   1.517   .     S
C1045  C1612   1.424   1_545 S
C1046  N1077   1.383   .     A
C1046  C1099   1.520   .     S
C1046  C1329   1.442   .     S
C1047  C1109   1.522   .     S
C1047  N1078   1.387   .     A
C1047  C1610   1.442   1_545 S
C1048  C1119   1.518   .     S
C1048  N1077   1.379   .     A
C1048  C1327   1.424   .     S
C1049  C1054   1.431   .     S
C1049  O1086   1.297   .     A
C1049  O1083   1.306   .     A
C1050  O1085   1.300   .     A
C1050  C1053   1.433   .     S
C1050  O1084   1.304   .     A
C1051  C1061   1.381   .     A
C1051  H1065   1.081   .     S
C1051  C1053   1.396   .     A
C1052  C1062   1.383   .     A
C1052  H1066   1.085   .     S
C1052  C1054   1.398   .     A
C1053  C1055   1.395   .     A
C1054  C1056   1.393   .     A
C1055  H1067   1.085   .     S
C1055  C1057   1.386   .     A
C1056  H1068   1.083   .     S
C1056  C1058   1.384   .     A
C1057  C1063   1.400   .     A
C1057  C1059   1.413   .     A
C1058  C1060   1.413   .     A
C1058  C1064   1.399   .     A
C1059  C1061   1.409   .     A
C1059  C214    1.391   1_556 S
C1060  C1062   1.410   .     A
C1063  H1069   1.084   .     S
C1063  C191    1.391   1_556 S
C1064  H1070   1.084   .     S
N1077  Zn1087  2.049   .     S
N1078  Zn1088  2.049   .     S
O1079  Zn1087  1.973   .     S
O1080  Zn1088  1.973   .     S
O1081  Zn1087  1.994   .     S
O1082  Zn1088  1.994   .     S
O1083  Zn1087  2.022   .     S
O1084  Zn1088  2.022   .     S
O1085  Zn1087  2.002   .     S
O1086  Zn1088  2.002   .     S
C1089  C1090   1.532   .     S
C1089  H1097   1.102   .     S
C1089  H1098   1.111   .     S
C1090  C1091   1.526   .     S
C1090  H1096   1.102   .     S
C1090  H1095   1.107   .     S
C1091  H1093   1.111   .     S
C1091  H1094   1.110   .     S
C1091  H1092   1.109   .     S
C1099  H1107   1.085   .     S
C1099  H1108   1.100   .     S
C1099  C1100   1.537   .     S
C1100  H1106   1.108   .     S
C1100  C1101   1.527   .     S
C1100  H1105   1.110   .     S
C1101  H1102   1.110   .     S
C1101  H1103   1.111   .     S
C1101  H1104   1.110   .     S
C1109  H1117   1.094   .     S
C1109  H1118   1.105   .     S
C1109  C1110   1.546   .     S
C1110  C1111   1.527   .     S
C1110  H1116   1.110   .     S
C1110  H1115   1.111   .     S
C1111  H1114   1.111   .     S
C1111  H1676   1.110   1_545 S
C1111  H1677   1.110   1_545 S
H1112  C1393   1.110   .     S
H1113  C1393   1.110   .     S
C1119  C1120   1.535   .     S
C1119  H1127   1.103   .     S
C1119  H1128   1.110   .     S
C1120  H1125   1.107   .     S
C1120  C1121   1.527   .     S
C1120  H1126   1.103   .     S
C1121  H1122   1.109   .     S
C1121  H1124   1.110   .     S
C1121  H1123   1.111   .     S
C1129  C1138   1.407   .     S
C1129  O1176   1.301   .     A
C1129  O1173   1.290   .     A
C1130  O1174   1.295   .     A
C1130  O1175   1.298   .     A
C1130  C1137   1.411   .     S
C1131  C1156   1.401   .     A
C1131  H1165   1.084   .     S
C1132  C1155   1.400   .     A
C1132  H1166   1.084   .     S
C1132  C312    1.389   1_556 S
C1133  H1167   1.084   .     S
C1133  C1138   1.389   .     A
C1133  C1323   1.369   1_455 S
C1134  C1137   1.393   .     A
C1134  H1168   1.084   .     S
C1134  C1230   1.374   .     S
C1135  H1169   1.075   .     S
C1135  C1137   1.395   .     A
C1135  C1227   1.369   .     S
C1136  H1170   1.084   .     S
C1136  C1138   1.398   .     A
C1136  C1322   1.374   1_455 S
C1139  N1172   1.379   .     A
C1139  C1183   1.517   .     S
C1140  N1171   1.383   .     A
C1140  C1193   1.520   .     S
C1140  C1423   1.442   .     S
C1141  C1203   1.522   .     S
C1141  N1172   1.387   .     A
C1142  C1213   1.518   .     S
C1142  N1171   1.379   .     A
C1142  C1421   1.424   .     S
C1143  C1148   1.431   .     S
C1143  O1180   1.297   .     A
C1143  O1177   1.306   .     A
C1144  O1179   1.300   .     A
C1144  C1147   1.433   .     S
C1144  O1178   1.304   .     A
C1145  C1155   1.381   .     A
C1145  H1159   1.081   .     S
C1145  C1147   1.396   .     A
C1146  C1156   1.383   .     A
C1146  H1160   1.085   .     S
C1146  C1148   1.398   .     A
C1147  C1149   1.395   .     A
C1148  C1150   1.393   .     A
C1149  H1161   1.085   .     S
C1149  C1151   1.386   .     A
C1150  H1162   1.083   .     S
C1150  C1152   1.384   .     A
C1151  C1157   1.400   .     A
C1151  C1153   1.413   .     A
C1152  C1154   1.413   .     A
C1152  C1158   1.399   .     A
C1153  C1155   1.409   .     A
C1153  C308    1.391   1_556 S
C1154  C1156   1.410   .     A
C1157  H1163   1.084   .     S
C1157  C285    1.391   1_556 S
C1158  H1164   1.084   .     S
N1171  Zn1181  2.049   .     S
N1172  Zn1182  2.049   .     S
O1173  Zn1181  1.973   .     S
O1174  Zn1182  1.973   .     S
O1175  Zn1181  1.994   .     S
O1176  Zn1182  1.994   .     S
O1177  Zn1181  2.022   .     S
O1178  Zn1182  2.022   .     S
O1179  Zn1181  2.002   .     S
O1180  Zn1182  2.002   .     S
C1183  C1184   1.532   .     S
C1183  H1191   1.102   .     S
C1183  H1192   1.111   .     S
C1184  C1185   1.526   .     S
C1184  H1190   1.102   .     S
C1184  H1189   1.107   .     S
C1185  H1187   1.111   .     S
C1185  H1188   1.110   .     S
C1185  H1186   1.109   .     S
C1193  H1201   1.085   .     S
C1193  H1202   1.100   .     S
C1193  C1194   1.537   .     S
C1194  H1200   1.108   .     S
C1194  C1195   1.527   .     S
C1194  H1199   1.110   .     S
C1195  H1196   1.110   .     S
C1195  H1197   1.111   .     S
C1195  H1198   1.110   .     S
C1203  H1211   1.094   .     S
C1203  H1212   1.105   .     S
C1203  C1204   1.546   .     S
C1204  C1205   1.527   .     S
C1204  H1210   1.110   .     S
C1204  H1209   1.111   .     S
C1205  H1208   1.111   .     S
H1206  C1487   1.110   .     S
H1207  C1487   1.110   .     S
C1213  C1214   1.535   .     S
C1213  H1221   1.103   .     S
C1213  H1222   1.110   .     S
C1214  H1219   1.107   .     S
C1214  C1215   1.527   .     S
C1214  H1220   1.103   .     S
C1215  H1216   1.109   .     S
C1215  H1218   1.110   .     S
C1215  H1217   1.111   .     S
C1223  C1232   1.407   .     S
C1223  O1270   1.301   .     A
C1223  O1267   1.290   .     A
C1224  O1268   1.295   .     A
C1224  O1269   1.298   .     A
C1224  C1231   1.411   .     S
C1225  C1250   1.401   .     A
C1225  H1259   1.084   .     S
C1226  C1249   1.400   .     A
C1226  H1260   1.084   .     S
C1226  C406    1.389   1_556 S
C1227  H1261   1.084   .     S
C1227  C1232   1.389   .     A
C1228  C1231   1.393   .     A
C1228  H1262   1.084   .     S
C1228  C1324   1.374   .     S
C1229  H1263   1.075   .     S
C1229  C1231   1.395   .     A
C1229  C1321   1.369   .     S
C1230  H1264   1.084   .     S
C1230  C1232   1.398   .     A
C1233  N1266   1.379   .     A
C1233  C1277   1.517   .     S
C1234  N1265   1.383   .     A
C1234  C1287   1.520   .     S
C1234  C1517   1.442   .     S
C1235  C1297   1.522   .     S
C1235  N1266   1.387   .     A
C1236  C1307   1.518   .     S
C1236  N1265   1.379   .     A
C1236  C1515   1.424   .     S
C1237  C1242   1.431   .     S
C1237  O1274   1.297   .     A
C1237  O1271   1.306   .     A
C1238  O1273   1.300   .     A
C1238  C1241   1.433   .     S
C1238  O1272   1.304   .     A
C1239  C1249   1.381   .     A
C1239  H1253   1.081   .     S
C1239  C1241   1.396   .     A
C1240  C1250   1.383   .     A
C1240  H1254   1.085   .     S
C1240  C1242   1.398   .     A
C1241  C1243   1.395   .     A
C1242  C1244   1.393   .     A
C1243  H1255   1.085   .     S
C1243  C1245   1.386   .     A
C1244  H1256   1.083   .     S
C1244  C1246   1.384   .     A
C1245  C1251   1.400   .     A
C1245  C1247   1.413   .     A
C1246  C1248   1.413   .     A
C1246  C1252   1.399   .     A
C1247  C1249   1.409   .     A
C1247  C402    1.391   1_556 S
C1248  C1250   1.410   .     A
C1251  H1257   1.084   .     S
C1251  C379    1.391   1_556 S
C1252  H1258   1.084   .     S
N1265  Zn1275  2.049   .     S
N1266  Zn1276  2.049   .     S
O1267  Zn1275  1.973   .     S
O1268  Zn1276  1.973   .     S
O1269  Zn1275  1.994   .     S
O1270  Zn1276  1.994   .     S
O1271  Zn1275  2.022   .     S
O1272  Zn1276  2.022   .     S
O1273  Zn1275  2.002   .     S
O1274  Zn1276  2.002   .     S
C1277  C1278   1.532   .     S
C1277  H1285   1.102   .     S
C1277  H1286   1.111   .     S
C1278  C1279   1.526   .     S
C1278  H1284   1.102   .     S
C1278  H1283   1.107   .     S
C1279  H1281   1.111   .     S
C1279  H1282   1.110   .     S
C1279  H1280   1.109   .     S
C1287  H1295   1.085   .     S
C1287  H1296   1.100   .     S
C1287  C1288   1.537   .     S
C1288  H1294   1.108   .     S
C1288  C1289   1.527   .     S
C1288  H1293   1.110   .     S
C1289  H1290   1.110   .     S
C1289  H1291   1.111   .     S
C1289  H1292   1.110   .     S
C1297  H1305   1.094   .     S
C1297  H1306   1.105   .     S
C1297  C1298   1.546   .     S
C1298  C1299   1.527   .     S
C1298  H1304   1.110   .     S
C1298  H1303   1.111   .     S
C1299  H1302   1.111   .     S
H1300  C1581   1.110   .     S
H1301  C1581   1.110   .     S
C1307  C1308   1.535   .     S
C1307  H1315   1.103   .     S
C1307  H1316   1.110   .     S
C1308  H1313   1.107   .     S
C1308  C1309   1.527   .     S
C1308  H1314   1.103   .     S
C1309  H1310   1.109   .     S
C1309  H1312   1.110   .     S
C1309  H1311   1.111   .     S
C1317  C1326   1.407   .     S
C1317  O1364   1.301   .     A
C1317  O1361   1.290   .     A
C1318  O1362   1.295   .     A
C1318  O1363   1.298   .     A
C1318  C1325   1.411   .     S
C1319  C1344   1.401   .     A
C1319  H1353   1.084   .     S
C1320  C1343   1.400   .     A
C1320  H1354   1.084   .     S
C1320  C500    1.389   1_556 S
C1321  H1355   1.084   .     S
C1321  C1326   1.389   .     A
C1322  C1325   1.393   .     A
C1322  H1356   1.084   .     S
C1322  C1136   1.374   1_655 S
C1323  H1357   1.075   .     S
C1323  C1325   1.395   .     A
C1323  C1133   1.369   1_655 S
C1324  H1358   1.084   .     S
C1324  C1326   1.398   .     A
C1327  N1360   1.379   .     A
C1327  C1371   1.517   .     S
C1328  N1359   1.383   .     A
C1328  C1381   1.520   .     S
C1328  C1611   1.442   .     S
C1329  C1391   1.522   .     S
C1329  N1360   1.387   .     A
C1330  C1401   1.518   .     S
C1330  N1359   1.379   .     A
C1330  C1609   1.424   .     S
C1331  C1336   1.431   .     S
C1331  O1368   1.297   .     A
C1331  O1365   1.306   .     A
C1332  O1367   1.300   .     A
C1332  C1335   1.433   .     S
C1332  O1366   1.304   .     A
C1333  C1343   1.381   .     A
C1333  H1347   1.081   .     S
C1333  C1335   1.396   .     A
C1334  C1344   1.383   .     A
C1334  H1348   1.085   .     S
C1334  C1336   1.398   .     A
C1335  C1337   1.395   .     A
C1336  C1338   1.393   .     A
C1337  H1349   1.085   .     S
C1337  C1339   1.386   .     A
C1338  H1350   1.083   .     S
C1338  C1340   1.384   .     A
C1339  C1345   1.400   .     A
C1339  C1341   1.413   .     A
C1340  C1342   1.413   .     A
C1340  C1346   1.399   .     A
C1341  C1343   1.409   .     A
C1341  C496    1.391   1_556 S
C1342  C1344   1.410   .     A
C1345  H1351   1.084   .     S
C1345  C473    1.391   1_556 S
C1346  H1352   1.084   .     S
N1359  Zn1369  2.049   .     S
N1360  Zn1370  2.049   .     S
O1361  Zn1369  1.973   .     S
O1362  Zn1370  1.973   .     S
O1363  Zn1369  1.994   .     S
O1364  Zn1370  1.994   .     S
O1365  Zn1369  2.022   .     S
O1366  Zn1370  2.022   .     S
O1367  Zn1369  2.002   .     S
O1368  Zn1370  2.002   .     S
C1371  C1372   1.532   .     S
C1371  H1379   1.102   .     S
C1371  H1380   1.111   .     S
C1372  C1373   1.526   .     S
C1372  H1378   1.102   .     S
C1372  H1377   1.107   .     S
C1373  H1375   1.111   .     S
C1373  H1376   1.110   .     S
C1373  H1374   1.109   .     S
C1381  H1389   1.085   .     S
C1381  H1390   1.100   .     S
C1381  C1382   1.537   .     S
C1382  H1388   1.108   .     S
C1382  C1383   1.527   .     S
C1382  H1387   1.110   .     S
C1383  H1384   1.110   .     S
C1383  H1385   1.111   .     S
C1383  H1386   1.110   .     S
C1391  H1399   1.094   .     S
C1391  H1400   1.105   .     S
C1391  C1392   1.546   .     S
C1392  C1393   1.527   .     S
C1392  H1398   1.110   .     S
C1392  H1397   1.111   .     S
C1393  H1396   1.111   .     S
H1394  C1675   1.110   .     S
H1395  C1675   1.110   .     S
C1401  C1402   1.535   .     S
C1401  H1409   1.103   .     S
C1401  H1410   1.110   .     S
C1402  H1407   1.107   .     S
C1402  C1403   1.527   .     S
C1402  H1408   1.103   .     S
C1403  H1404   1.109   .     S
C1403  H1406   1.110   .     S
C1403  H1405   1.111   .     S
C1411  C1420   1.407   .     S
C1411  O1458   1.301   .     A
C1411  O1455   1.290   .     A
C1412  O1456   1.295   .     A
C1412  O1457   1.298   .     A
C1412  C1419   1.411   .     S
C1413  C1438   1.401   .     A
C1413  H1447   1.084   .     S
C1414  C1437   1.400   .     A
C1414  H1448   1.084   .     S
C1414  C594    1.389   1_556 S
C1415  H1449   1.084   .     S
C1415  C1420   1.389   .     A
C1415  C1605   1.369   1_455 S
C1416  C1419   1.393   .     A
C1416  H1450   1.084   .     S
C1416  C1512   1.374   .     S
C1417  H1451   1.075   .     S
C1417  C1419   1.395   .     A
C1417  C1509   1.369   .     S
C1418  H1452   1.084   .     S
C1418  C1420   1.398   .     A
C1418  C1604   1.374   1_455 S
C1421  N1454   1.379   .     A
C1421  C1465   1.517   .     S
C1422  N1453   1.383   .     A
C1422  C1475   1.520   .     S
C1422  C859    1.442   1_565 S
C1423  C1485   1.522   .     S
C1423  N1454   1.387   .     A
C1424  C1495   1.518   .     S
C1424  N1453   1.379   .     A
C1424  C857    1.424   1_565 S
C1425  C1430   1.431   .     S
C1425  O1462   1.297   .     A
C1425  O1459   1.306   .     A
C1426  O1461   1.300   .     A
C1426  C1429   1.433   .     S
C1426  O1460   1.304   .     A
C1427  C1437   1.381   .     A
C1427  H1441   1.081   .     S
C1427  C1429   1.396   .     A
C1428  C1438   1.383   .     A
C1428  H1442   1.085   .     S
C1428  C1430   1.398   .     A
C1429  C1431   1.395   .     A
C1430  C1432   1.393   .     A
C1431  H1443   1.085   .     S
C1431  C1433   1.386   .     A
C1432  H1444   1.083   .     S
C1432  C1434   1.384   .     A
C1433  C1439   1.400   .     A
C1433  C1435   1.413   .     A
C1434  C1436   1.413   .     A
C1434  C1440   1.399   .     A
C1435  C1437   1.409   .     A
C1435  C590    1.391   1_556 S
C1436  C1438   1.410   .     A
C1439  H1445   1.084   .     S
C1439  C567    1.391   1_556 S
C1440  H1446   1.084   .     S
N1453  Zn1463  2.049   .     S
N1454  Zn1464  2.049   .     S
O1455  Zn1463  1.973   .     S
O1456  Zn1464  1.973   .     S
O1457  Zn1463  1.994   .     S
O1458  Zn1464  1.994   .     S
O1459  Zn1463  2.022   .     S
O1460  Zn1464  2.022   .     S
O1461  Zn1463  2.002   .     S
O1462  Zn1464  2.002   .     S
C1465  C1466   1.532   .     S
C1465  H1473   1.102   .     S
C1465  H1474   1.111   .     S
C1466  C1467   1.526   .     S
C1466  H1472   1.102   .     S
C1466  H1471   1.107   .     S
C1467  H1469   1.111   .     S
C1467  H1470   1.110   .     S
C1467  H1468   1.109   .     S
C1475  H1483   1.085   .     S
C1475  H1484   1.100   .     S
C1475  C1476   1.537   .     S
C1476  H1482   1.108   .     S
C1476  C1477   1.527   .     S
C1476  H1481   1.110   .     S
C1477  H1478   1.110   .     S
C1477  H1479   1.111   .     S
C1477  H1480   1.110   .     S
C1485  H1493   1.094   .     S
C1485  H1494   1.105   .     S
C1485  C1486   1.546   .     S
C1486  C1487   1.527   .     S
C1486  H1492   1.110   .     S
C1486  H1491   1.111   .     S
C1487  H1490   1.111   .     S
H1488  C923    1.110   1_565 S
H1489  C923    1.110   1_565 S
C1495  C1496   1.535   .     S
C1495  H1503   1.103   .     S
C1495  H1504   1.110   .     S
C1496  H1501   1.107   .     S
C1496  C1497   1.527   .     S
C1496  H1502   1.103   .     S
C1497  H1498   1.109   .     S
C1497  H1500   1.110   .     S
C1497  H1499   1.111   .     S
C1505  C1514   1.407   .     S
C1505  O1552   1.301   .     A
C1505  O1549   1.290   .     A
C1506  O1550   1.295   .     A
C1506  O1551   1.298   .     A
C1506  C1513   1.411   .     S
C1507  C1532   1.401   .     A
C1507  H1541   1.084   .     S
C1508  C1531   1.400   .     A
C1508  H1542   1.084   .     S
C1508  C688    1.389   1_556 S
C1509  H1543   1.084   .     S
C1509  C1514   1.389   .     A
C1510  C1513   1.393   .     A
C1510  H1544   1.084   .     S
C1510  C1606   1.374   .     S
C1511  H1545   1.075   .     S
C1511  C1513   1.395   .     A
C1511  C1603   1.369   .     S
C1512  H1546   1.084   .     S
C1512  C1514   1.398   .     A
C1515  N1548   1.379   .     A
C1515  C1559   1.517   .     S
C1516  N1547   1.383   .     A
C1516  C1569   1.520   .     S
C1516  C953    1.442   1_565 S
C1517  C1579   1.522   .     S
C1517  N1548   1.387   .     A
C1518  C1589   1.518   .     S
C1518  N1547   1.379   .     A
C1518  C951    1.424   1_565 S
C1519  C1524   1.431   .     S
C1519  O1556   1.297   .     A
C1519  O1553   1.306   .     A
C1520  O1555   1.300   .     A
C1520  C1523   1.433   .     S
C1520  O1554   1.304   .     A
C1521  C1531   1.381   .     A
C1521  H1535   1.081   .     S
C1521  C1523   1.396   .     A
C1522  C1532   1.383   .     A
C1522  H1536   1.085   .     S
C1522  C1524   1.398   .     A
C1523  C1525   1.395   .     A
C1524  C1526   1.393   .     A
C1525  H1537   1.085   .     S
C1525  C1527   1.386   .     A
C1526  H1538   1.083   .     S
C1526  C1528   1.384   .     A
C1527  C1533   1.400   .     A
C1527  C1529   1.413   .     A
C1528  C1530   1.413   .     A
C1528  C1534   1.399   .     A
C1529  C1531   1.409   .     A
C1529  C684    1.391   1_556 S
C1530  C1532   1.410   .     A
C1533  H1539   1.084   .     S
C1533  C661    1.391   1_556 S
C1534  H1540   1.084   .     S
N1547  Zn1557  2.049   .     S
N1548  Zn1558  2.049   .     S
O1549  Zn1557  1.973   .     S
O1550  Zn1558  1.973   .     S
O1551  Zn1557  1.994   .     S
O1552  Zn1558  1.994   .     S
O1553  Zn1557  2.022   .     S
O1554  Zn1558  2.022   .     S
O1555  Zn1557  2.002   .     S
O1556  Zn1558  2.002   .     S
C1559  C1560   1.532   .     S
C1559  H1567   1.102   .     S
C1559  H1568   1.111   .     S
C1560  C1561   1.526   .     S
C1560  H1566   1.102   .     S
C1560  H1565   1.107   .     S
C1561  H1563   1.111   .     S
C1561  H1564   1.110   .     S
C1561  H1562   1.109   .     S
C1569  H1577   1.085   .     S
C1569  H1578   1.100   .     S
C1569  C1570   1.537   .     S
C1570  H1576   1.108   .     S
C1570  C1571   1.527   .     S
C1570  H1575   1.110   .     S
C1571  H1572   1.110   .     S
C1571  H1573   1.111   .     S
C1571  H1574   1.110   .     S
C1579  H1587   1.094   .     S
C1579  H1588   1.105   .     S
C1579  C1580   1.546   .     S
C1580  C1581   1.527   .     S
C1580  H1586   1.110   .     S
C1580  H1585   1.111   .     S
C1581  H1584   1.111   .     S
H1582  C1017   1.110   1_565 S
H1583  C1017   1.110   1_565 S
C1589  C1590   1.535   .     S
C1589  H1597   1.103   .     S
C1589  H1598   1.110   .     S
C1590  H1595   1.107   .     S
C1590  C1591   1.527   .     S
C1590  H1596   1.103   .     S
C1591  H1592   1.109   .     S
C1591  H1594   1.110   .     S
C1591  H1593   1.111   .     S
C1599  C1608   1.407   .     S
C1599  O1646   1.301   .     A
C1599  O1643   1.290   .     A
C1600  O1644   1.295   .     A
C1600  O1645   1.298   .     A
C1600  C1607   1.411   .     S
C1601  C1626   1.401   .     A
C1601  H1635   1.084   .     S
C1602  C1625   1.400   .     A
C1602  H1636   1.084   .     S
C1602  C782    1.389   1_556 S
C1603  H1637   1.084   .     S
C1603  C1608   1.389   .     A
C1604  C1607   1.393   .     A
C1604  H1638   1.084   .     S
C1604  C1418   1.374   1_655 S
C1605  H1639   1.075   .     S
C1605  C1607   1.395   .     A
C1605  C1415   1.369   1_655 S
C1606  H1640   1.084   .     S
C1606  C1608   1.398   .     A
C1609  N1642   1.379   .     A
C1609  C1653   1.517   .     S
C1610  N1641   1.383   .     A
C1610  C1663   1.520   .     S
C1610  C1047   1.442   1_565 S
C1611  C1673   1.522   .     S
C1611  N1642   1.387   .     A
C1612  C1683   1.518   .     S
C1612  N1641   1.379   .     A
C1612  C1045   1.424   1_565 S
C1613  C1618   1.431   .     S
C1613  O1650   1.297   .     A
C1613  O1647   1.306   .     A
C1614  O1649   1.300   .     A
C1614  C1617   1.433   .     S
C1614  O1648   1.304   .     A
C1615  C1625   1.381   .     A
C1615  H1629   1.081   .     S
C1615  C1617   1.396   .     A
C1616  C1626   1.383   .     A
C1616  H1630   1.085   .     S
C1616  C1618   1.398   .     A
C1617  C1619   1.395   .     A
C1618  C1620   1.393   .     A
C1619  H1631   1.085   .     S
C1619  C1621   1.386   .     A
C1620  H1632   1.083   .     S
C1620  C1622   1.384   .     A
C1621  C1627   1.400   .     A
C1621  C1623   1.413   .     A
C1622  C1624   1.413   .     A
C1622  C1628   1.399   .     A
C1623  C1625   1.409   .     A
C1623  C778    1.391   1_556 S
C1624  C1626   1.410   .     A
C1627  H1633   1.084   .     S
C1627  C755    1.391   1_556 S
C1628  H1634   1.084   .     S
N1641  Zn1651  2.049   .     S
N1642  Zn1652  2.049   .     S
O1643  Zn1651  1.973   .     S
O1644  Zn1652  1.973   .     S
O1645  Zn1651  1.994   .     S
O1646  Zn1652  1.994   .     S
O1647  Zn1651  2.022   .     S
O1648  Zn1652  2.022   .     S
O1649  Zn1651  2.002   .     S
O1650  Zn1652  2.002   .     S
C1653  C1654   1.532   .     S
C1653  H1661   1.102   .     S
C1653  H1662   1.111   .     S
C1654  C1655   1.526   .     S
C1654  H1660   1.102   .     S
C1654  H1659   1.107   .     S
C1655  H1657   1.111   .     S
C1655  H1658   1.110   .     S
C1655  H1656   1.109   .     S
C1663  H1671   1.085   .     S
C1663  H1672   1.100   .     S
C1663  C1664   1.537   .     S
C1664  H1670   1.108   .     S
C1664  C1665   1.527   .     S
C1664  H1669   1.110   .     S
C1665  H1666   1.110   .     S
C1665  H1667   1.111   .     S
C1665  H1668   1.110   .     S
C1673  H1681   1.094   .     S
C1673  H1682   1.105   .     S
C1673  C1674   1.546   .     S
C1674  C1675   1.527   .     S
C1674  H1680   1.110   .     S
C1674  H1679   1.111   .     S
C1675  H1678   1.111   .     S
H1676  C1111   1.110   1_565 S
H1677  C1111   1.110   1_565 S
C1683  C1684   1.535   .     S
C1683  H1691   1.103   .     S
C1683  H1692   1.110   .     S
C1684  H1689   1.107   .     S
C1684  C1685   1.527   .     S
C1684  H1690   1.103   .     S
C1685  H1686   1.109   .     S
C1685  H1688   1.110   .     S
C1685  H1687   1.111   .     S
