data_str_m3_o1_o10_pcu_sym.22
_audit_creation_date              2020-01-03
_audit_creation_method            'Materials Studio'
_symmetry_space_group_name_H-M    'P1'
_symmetry_Int_Tables_number       1
_symmetry_cell_setting            triclinic
loop_
_symmetry_equiv_pos_as_xyz
  x,y,z
_cell_length_a                    25.8821
_cell_length_b                    32.0539
_cell_length_c                    29.4575
_cell_angle_alpha                 90.7692
_cell_angle_beta                  97.9089
_cell_angle_gamma                 90.5365
loop_
_atom_site_label
_atom_site_type_symbol
_atom_site_fract_x
_atom_site_fract_y
_atom_site_fract_z
_atom_site_U_iso_or_equiv
_atom_site_adp_type
_atom_site_occupancy
C1     C     0.17255   0.08685   0.16706   0.00000  Uiso   1.00
C2     C     0.19376   0.02321   0.21139   0.00000  Uiso   1.00
C3     C     0.18428   0.29094   0.17018   0.00000  Uiso   1.00
C4     C     0.18648   0.04328   0.16860   0.00000  Uiso   1.00
C5     C     0.18792   0.19912   0.02693   0.00000  Uiso   1.00
C6     C     0.14349   0.13478   0.30606   0.00000  Uiso   1.00
C7     C     0.18895   0.19878   0.31250   0.00000  Uiso   1.00
C8     C     0.14354   0.13479   0.02073   0.00000  Uiso   1.00
C9     C     0.33183   0.13408   0.07198   0.00000  Uiso   1.00
C10    C     0.32326   0.17856   0.05346   0.00000  Uiso   1.00
C11    C     0.32505   0.17998   0.00198   0.00000  Uiso   1.00
C12    C     0.17155   0.24681   0.16767   0.00000  Uiso   1.00
C13    C     0.33006   0.23869   0.21966   0.00000  Uiso   1.00
C14    C     0.03818   0.26511   0.20072   0.00000  Uiso   1.00
C15    C     0.03091   0.31155   0.20945   0.00000  Uiso   1.00
C16    C     0.26699   0.28913   0.09749   0.00000  Uiso   1.00
C17    C     0.28297   0.29304   0.04963   0.00000  Uiso   1.00
C18    C     0.00825   0.30072   0.05176   0.00000  Uiso   1.00
C19    C     0.25360   0.06469   0.25731   0.00000  Uiso   1.00
C20    C     0.29159   0.04294   0.29349   0.00000  Uiso   1.00
C21    C     0.01290   0.06223   0.29745   0.00000  Uiso   1.00
C22    C     0.06714   0.16463   0.15487   0.00000  Uiso   1.00
C23    C     0.26607   0.16727   0.17829   0.00000  Uiso   1.00
C24    C     0.01227   0.15859   0.14948   0.00000  Uiso   1.00
C25    C     0.32039   0.17401   0.18304   0.00000  Uiso   1.00
C26    C     0.19411   0.02058   0.12872   0.00000  Uiso   1.00
C27    C     0.18666   0.31368   0.21183   0.00000  Uiso   1.00
C28    C     0.19729   0.31098   0.13102   0.00000  Uiso   1.00
H29    H     0.20476   0.22488   0.04753   0.00000  Uiso   1.00
H30    H     0.03050   0.16993   0.32746   0.00000  Uiso   1.00
H31    H     0.31845   0.21237   0.32338   0.00000  Uiso   1.00
H32    H     0.32762   0.24915   0.25537   0.00000  Uiso   1.00
H33    H     0.29100   0.24448   0.19977   0.00000  Uiso   1.00
H34    H     0.07732   0.25624   0.21781   0.00000  Uiso   1.00
H35    H     0.03634   0.25899   0.16331   0.00000  Uiso   1.00
H36    H     0.32369   0.32104   0.19693   0.00000  Uiso   1.00
H37    H     0.03945   0.31848   0.24676   0.00000  Uiso   1.00
H38    H     0.05835   0.32996   0.19157   0.00000  Uiso   1.00
H39    H     0.16486   0.05153   0.07123   0.00000  Uiso   1.00
H40    H     0.12484   0.10936   0.28526   0.00000  Uiso   1.00
H41    H     0.22915   0.06305   0.09157   0.00000  Uiso   1.00
H42    H     0.21624   0.29958   0.27708   0.00000  Uiso   1.00
H43    H     0.15092   0.30696   0.26833   0.00000  Uiso   1.00
H44    H     0.28183   0.25926   0.11267   0.00000  Uiso   1.00
H45    H     0.28635   0.31526   0.11911   0.00000  Uiso   1.00
H46    H     0.27212   0.26427   0.02918   0.00000  Uiso   1.00
H47    H     0.26166   0.31929   0.03184   0.00000  Uiso   1.00
H48    H     0.01932   0.33148   0.06828   0.00000  Uiso   1.00
H49    H     0.01886   0.30067   0.01650   0.00000  Uiso   1.00
H50    H     0.03048   0.27589   0.07153   0.00000  Uiso   1.00
H51    H     0.20786   0.22400   0.29707   0.00000  Uiso   1.00
H52    H     0.24920   0.09736   0.26907   0.00000  Uiso   1.00
H53    H     0.27102   0.06639   0.22470   0.00000  Uiso   1.00
H54    H     0.27720   0.04593   0.32717   0.00000  Uiso   1.00
H55    H     0.29373   0.00935   0.28430   0.00000  Uiso   1.00
H56    H     0.02821   0.06022   0.26408   0.00000  Uiso   1.00
H57    H     0.03966   0.04533   0.32347   0.00000  Uiso   1.00
H58    H     0.01219   0.09543   0.30820   0.00000  Uiso   1.00
H59    H     0.12445   0.10964   0.03619   0.00000  Uiso   1.00
H60    H     0.30435   0.11292   0.05010   0.00000  Uiso   1.00
H61    H     0.03781   0.12218   0.06825   0.00000  Uiso   1.00
H62    H     0.28512   0.18969   0.06099   0.00000  Uiso   1.00
H63    H     0.01992   0.20053   0.07056   0.00000  Uiso   1.00
H64    H     0.29411   0.15957   0.31659   0.00000  Uiso   1.00
N65    N     0.16665   0.16666   0.28573   0.00000  Uiso   1.00
N66    N     0.16668   0.16668   0.04760   0.00000  Uiso   1.00
N67    N     0.20052   0.03961   0.08602   0.00000  Uiso   1.00
N68    N     0.18214   0.29373   0.25441   0.00000  Uiso   1.00
O69    O     0.16666   0.10558   0.20487   0.00000  Uiso   1.00
O70    O     0.01167   0.19622   0.22110   0.00000  Uiso   1.00
O71    O     0.21173   0.28896   0.09416   0.00000  Uiso   1.00
O72    O     0.20371   0.04485   0.25293   0.00000  Uiso   1.00
O73    O     0.16667   0.22775   0.12846   0.00000  Uiso   1.00
O74    O     0.16666   0.10559   0.12843   0.00000  Uiso   1.00
O75    O     0.16667   0.22774   0.20490   0.00000  Uiso   1.00
O76    O     0.09058   0.16666   0.19595   0.00000  Uiso   1.00
O77    O     0.24275   0.16667   0.13739   0.00000  Uiso   1.00
O78    O     0.09058   0.16667   0.11950   0.00000  Uiso   1.00
O79    O     0.24275   0.16666   0.21383   0.00000  Uiso   1.00
O80    O     0.32042   0.12965   0.11743   0.00000  Uiso   1.00
Zn81   Zn    0.16667   0.16666   0.21771   0.00000  Uiso   1.00
Zn82   Zn    0.16667   0.16667   0.11563   0.00000  Uiso   1.00
C83    C     0.50588   0.08685   0.16706   0.00000  Uiso   1.00
C84    C     0.52709   0.02321   0.21139   0.00000  Uiso   1.00
C85    C     0.51761   0.29094   0.17018   0.00000  Uiso   1.00
C86    C     0.51981   0.04328   0.16860   0.00000  Uiso   1.00
C87    C     0.52125   0.19912   0.02693   0.00000  Uiso   1.00
C88    C     0.47682   0.13478   0.30606   0.00000  Uiso   1.00
C89    C     0.52228   0.19878   0.31250   0.00000  Uiso   1.00
C90    C     0.47687   0.13479   0.02073   0.00000  Uiso   1.00
C91    C     0.66516   0.13408   0.07198   0.00000  Uiso   1.00
C92    C     0.65659   0.17856   0.05346   0.00000  Uiso   1.00
C93    C     0.65838   0.17998   0.00198   0.00000  Uiso   1.00
C94    C     0.50488   0.24681   0.16767   0.00000  Uiso   1.00
C95    C     0.66339   0.23869   0.21966   0.00000  Uiso   1.00
C96    C     0.37151   0.26511   0.20072   0.00000  Uiso   1.00
C97    C     0.36424   0.31155   0.20945   0.00000  Uiso   1.00
C98    C     0.60032   0.28913   0.09749   0.00000  Uiso   1.00
C99    C     0.61630   0.29304   0.04963   0.00000  Uiso   1.00
C100   C     0.34158   0.30072   0.05176   0.00000  Uiso   1.00
C101   C     0.58693   0.06469   0.25731   0.00000  Uiso   1.00
C102   C     0.62492   0.04294   0.29349   0.00000  Uiso   1.00
C103   C     0.34624   0.06223   0.29745   0.00000  Uiso   1.00
C104   C     0.40047   0.16463   0.15487   0.00000  Uiso   1.00
C105   C     0.59940   0.16727   0.17829   0.00000  Uiso   1.00
C106   C     0.34560   0.15859   0.14948   0.00000  Uiso   1.00
C107   C     0.65372   0.17401   0.18304   0.00000  Uiso   1.00
C108   C     0.52744   0.02058   0.12872   0.00000  Uiso   1.00
C109   C     0.52000   0.31368   0.21183   0.00000  Uiso   1.00
C110   C     0.53062   0.31098   0.13102   0.00000  Uiso   1.00
H111   H     0.53809   0.22488   0.04753   0.00000  Uiso   1.00
H112   H     0.36384   0.16993   0.32746   0.00000  Uiso   1.00
H113   H     0.65178   0.21237   0.32338   0.00000  Uiso   1.00
H114   H     0.66096   0.24915   0.25537   0.00000  Uiso   1.00
H115   H     0.62433   0.24448   0.19977   0.00000  Uiso   1.00
H116   H     0.41066   0.25624   0.21781   0.00000  Uiso   1.00
H117   H     0.36967   0.25899   0.16331   0.00000  Uiso   1.00
H118   H     0.65703   0.32104   0.19693   0.00000  Uiso   1.00
H119   H     0.37278   0.31848   0.24676   0.00000  Uiso   1.00
H120   H     0.39168   0.32996   0.19157   0.00000  Uiso   1.00
H121   H     0.49819   0.05153   0.07123   0.00000  Uiso   1.00
H122   H     0.45817   0.10936   0.28526   0.00000  Uiso   1.00
H123   H     0.56249   0.06305   0.09157   0.00000  Uiso   1.00
H124   H     0.54958   0.29958   0.27708   0.00000  Uiso   1.00
H125   H     0.48425   0.30696   0.26833   0.00000  Uiso   1.00
H126   H     0.61516   0.25926   0.11267   0.00000  Uiso   1.00
H127   H     0.61968   0.31526   0.11911   0.00000  Uiso   1.00
H128   H     0.60545   0.26427   0.02918   0.00000  Uiso   1.00
H129   H     0.59500   0.31929   0.03184   0.00000  Uiso   1.00
H130   H     0.35266   0.33148   0.06828   0.00000  Uiso   1.00
H131   H     0.35220   0.30067   0.01650   0.00000  Uiso   1.00
H132   H     0.36381   0.27589   0.07153   0.00000  Uiso   1.00
H133   H     0.54120   0.22400   0.29707   0.00000  Uiso   1.00
H134   H     0.58253   0.09736   0.26907   0.00000  Uiso   1.00
H135   H     0.60436   0.06639   0.22470   0.00000  Uiso   1.00
H136   H     0.61053   0.04593   0.32717   0.00000  Uiso   1.00
H137   H     0.62707   0.00935   0.28430   0.00000  Uiso   1.00
H138   H     0.36155   0.06022   0.26408   0.00000  Uiso   1.00
H139   H     0.37299   0.04533   0.32347   0.00000  Uiso   1.00
H140   H     0.34552   0.09543   0.30820   0.00000  Uiso   1.00
H141   H     0.45779   0.10964   0.03619   0.00000  Uiso   1.00
H142   H     0.63768   0.11292   0.05010   0.00000  Uiso   1.00
H143   H     0.37115   0.12218   0.06825   0.00000  Uiso   1.00
H144   H     0.61846   0.18969   0.06099   0.00000  Uiso   1.00
H145   H     0.35326   0.20053   0.07056   0.00000  Uiso   1.00
H146   H     0.62744   0.15957   0.31659   0.00000  Uiso   1.00
N147   N     0.49999   0.16666   0.28573   0.00000  Uiso   1.00
N148   N     0.50001   0.16668   0.04760   0.00000  Uiso   1.00
N149   N     0.53386   0.03961   0.08602   0.00000  Uiso   1.00
N150   N     0.51547   0.29373   0.25441   0.00000  Uiso   1.00
O151   O     0.50000   0.10558   0.20487   0.00000  Uiso   1.00
O152   O     0.34500   0.19622   0.22110   0.00000  Uiso   1.00
O153   O     0.54507   0.28896   0.09416   0.00000  Uiso   1.00
O154   O     0.53704   0.04485   0.25293   0.00000  Uiso   1.00
O155   O     0.50000   0.22775   0.12846   0.00000  Uiso   1.00
O156   O     0.50000   0.10559   0.12843   0.00000  Uiso   1.00
O157   O     0.50000   0.22774   0.20490   0.00000  Uiso   1.00
O158   O     0.42392   0.16666   0.19595   0.00000  Uiso   1.00
O159   O     0.57608   0.16667   0.13739   0.00000  Uiso   1.00
O160   O     0.42392   0.16667   0.11950   0.00000  Uiso   1.00
O161   O     0.57608   0.16666   0.21383   0.00000  Uiso   1.00
O162   O     0.65375   0.12965   0.11743   0.00000  Uiso   1.00
Zn163  Zn    0.50000   0.16666   0.21771   0.00000  Uiso   1.00
Zn164  Zn    0.50000   0.16667   0.11563   0.00000  Uiso   1.00
C165   C     0.83922   0.08685   0.16706   0.00000  Uiso   1.00
C166   C     0.86042   0.02321   0.21139   0.00000  Uiso   1.00
C167   C     0.85095   0.29094   0.17018   0.00000  Uiso   1.00
C168   C     0.85315   0.04328   0.16860   0.00000  Uiso   1.00
C169   C     0.85459   0.19912   0.02693   0.00000  Uiso   1.00
C170   C     0.81015   0.13478   0.30606   0.00000  Uiso   1.00
C171   C     0.85562   0.19878   0.31250   0.00000  Uiso   1.00
C172   C     0.81021   0.13479   0.02073   0.00000  Uiso   1.00
C173   C     0.99850   0.13408   0.07198   0.00000  Uiso   1.00
C174   C     0.98993   0.17856   0.05346   0.00000  Uiso   1.00
C175   C     0.99171   0.17998   0.00198   0.00000  Uiso   1.00
C176   C     0.83822   0.24681   0.16767   0.00000  Uiso   1.00
C177   C     0.99673   0.23869   0.21966   0.00000  Uiso   1.00
C178   C     0.70485   0.26511   0.20072   0.00000  Uiso   1.00
C179   C     0.69757   0.31155   0.20945   0.00000  Uiso   1.00
C180   C     0.93365   0.28913   0.09749   0.00000  Uiso   1.00
C181   C     0.94964   0.29304   0.04963   0.00000  Uiso   1.00
C182   C     0.67492   0.30072   0.05176   0.00000  Uiso   1.00
C183   C     0.92027   0.06469   0.25731   0.00000  Uiso   1.00
C184   C     0.95826   0.04294   0.29349   0.00000  Uiso   1.00
C185   C     0.67957   0.06223   0.29745   0.00000  Uiso   1.00
C186   C     0.73381   0.16463   0.15487   0.00000  Uiso   1.00
C187   C     0.93273   0.16727   0.17829   0.00000  Uiso   1.00
C188   C     0.67894   0.15859   0.14948   0.00000  Uiso   1.00
C189   C     0.98706   0.17401   0.18304   0.00000  Uiso   1.00
C190   C     0.86078   0.02058   0.12872   0.00000  Uiso   1.00
C191   C     0.85333   0.31368   0.21183   0.00000  Uiso   1.00
C192   C     0.86396   0.31098   0.13102   0.00000  Uiso   1.00
H193   H     0.87142   0.22488   0.04753   0.00000  Uiso   1.00
H194   H     0.69717   0.16993   0.32746   0.00000  Uiso   1.00
H195   H     0.98511   0.21237   0.32338   0.00000  Uiso   1.00
H196   H     0.99429   0.24915   0.25537   0.00000  Uiso   1.00
H197   H     0.95766   0.24448   0.19977   0.00000  Uiso   1.00
H198   H     0.74399   0.25624   0.21781   0.00000  Uiso   1.00
H199   H     0.70301   0.25899   0.16331   0.00000  Uiso   1.00
H200   H     0.99036   0.32104   0.19693   0.00000  Uiso   1.00
H201   H     0.70611   0.31848   0.24676   0.00000  Uiso   1.00
H202   H     0.72501   0.32996   0.19157   0.00000  Uiso   1.00
H203   H     0.83153   0.05153   0.07123   0.00000  Uiso   1.00
H204   H     0.79150   0.10936   0.28526   0.00000  Uiso   1.00
H205   H     0.89582   0.06305   0.09157   0.00000  Uiso   1.00
H206   H     0.88291   0.29958   0.27708   0.00000  Uiso   1.00
H207   H     0.81758   0.30696   0.26833   0.00000  Uiso   1.00
H208   H     0.94850   0.25926   0.11267   0.00000  Uiso   1.00
H209   H     0.95301   0.31526   0.11911   0.00000  Uiso   1.00
H210   H     0.93879   0.26427   0.02918   0.00000  Uiso   1.00
H211   H     0.92833   0.31929   0.03184   0.00000  Uiso   1.00
H212   H     0.68599   0.33148   0.06828   0.00000  Uiso   1.00
H213   H     0.68553   0.30067   0.01650   0.00000  Uiso   1.00
H214   H     0.69715   0.27589   0.07153   0.00000  Uiso   1.00
H215   H     0.87453   0.22400   0.29707   0.00000  Uiso   1.00
H216   H     0.91586   0.09736   0.26907   0.00000  Uiso   1.00
H217   H     0.93769   0.06639   0.22470   0.00000  Uiso   1.00
H218   H     0.94386   0.04593   0.32717   0.00000  Uiso   1.00
H219   H     0.96040   0.00935   0.28430   0.00000  Uiso   1.00
H220   H     0.69488   0.06022   0.26408   0.00000  Uiso   1.00
H221   H     0.70632   0.04533   0.32347   0.00000  Uiso   1.00
H222   H     0.67886   0.09543   0.30820   0.00000  Uiso   1.00
H223   H     0.79112   0.10964   0.03619   0.00000  Uiso   1.00
H224   H     0.97102   0.11292   0.05010   0.00000  Uiso   1.00
H225   H     0.70448   0.12218   0.06825   0.00000  Uiso   1.00
H226   H     0.95179   0.18969   0.06099   0.00000  Uiso   1.00
H227   H     0.68659   0.20053   0.07056   0.00000  Uiso   1.00
H228   H     0.96078   0.15957   0.31659   0.00000  Uiso   1.00
N229   N     0.83332   0.16666   0.28573   0.00000  Uiso   1.00
N230   N     0.83335   0.16668   0.04760   0.00000  Uiso   1.00
N231   N     0.86719   0.03961   0.08602   0.00000  Uiso   1.00
N232   N     0.84880   0.29373   0.25441   0.00000  Uiso   1.00
O233   O     0.83333   0.10558   0.20487   0.00000  Uiso   1.00
O234   O     0.67834   0.19622   0.22110   0.00000  Uiso   1.00
O235   O     0.87840   0.28896   0.09416   0.00000  Uiso   1.00
O236   O     0.87038   0.04485   0.25293   0.00000  Uiso   1.00
O237   O     0.83334   0.22775   0.12846   0.00000  Uiso   1.00
O238   O     0.83333   0.10559   0.12843   0.00000  Uiso   1.00
O239   O     0.83334   0.22774   0.20490   0.00000  Uiso   1.00
O240   O     0.75725   0.16666   0.19595   0.00000  Uiso   1.00
O241   O     0.90942   0.16667   0.13739   0.00000  Uiso   1.00
O242   O     0.75725   0.16667   0.11950   0.00000  Uiso   1.00
O243   O     0.90942   0.16666   0.21383   0.00000  Uiso   1.00
O244   O     0.98709   0.12965   0.11743   0.00000  Uiso   1.00
Zn245  Zn    0.83333   0.16666   0.21771   0.00000  Uiso   1.00
Zn246  Zn    0.83333   0.16667   0.11563   0.00000  Uiso   1.00
C247   C     0.17255   0.42018   0.16706   0.00000  Uiso   1.00
C248   C     0.19376   0.35654   0.21139   0.00000  Uiso   1.00
C249   C     0.18428   0.62427   0.17018   0.00000  Uiso   1.00
C250   C     0.18648   0.37661   0.16860   0.00000  Uiso   1.00
C251   C     0.18792   0.53245   0.02693   0.00000  Uiso   1.00
C252   C     0.14349   0.46811   0.30606   0.00000  Uiso   1.00
C253   C     0.18895   0.53212   0.31250   0.00000  Uiso   1.00
C254   C     0.14354   0.46813   0.02073   0.00000  Uiso   1.00
C255   C     0.33183   0.46741   0.07198   0.00000  Uiso   1.00
C256   C     0.32326   0.51189   0.05346   0.00000  Uiso   1.00
C257   C     0.32505   0.51331   0.00198   0.00000  Uiso   1.00
C258   C     0.17155   0.58015   0.16767   0.00000  Uiso   1.00
C259   C     0.33006   0.57202   0.21966   0.00000  Uiso   1.00
C260   C     0.03818   0.59844   0.20072   0.00000  Uiso   1.00
C261   C     0.03091   0.64489   0.20945   0.00000  Uiso   1.00
C262   C     0.26699   0.62246   0.09749   0.00000  Uiso   1.00
C263   C     0.28297   0.62637   0.04963   0.00000  Uiso   1.00
C264   C     0.00825   0.63405   0.05176   0.00000  Uiso   1.00
C265   C     0.25360   0.39802   0.25731   0.00000  Uiso   1.00
C266   C     0.29159   0.37627   0.29349   0.00000  Uiso   1.00
C267   C     0.01290   0.39556   0.29745   0.00000  Uiso   1.00
C268   C     0.06714   0.49797   0.15487   0.00000  Uiso   1.00
C269   C     0.26607   0.50060   0.17829   0.00000  Uiso   1.00
C270   C     0.01227   0.49193   0.14948   0.00000  Uiso   1.00
C271   C     0.32039   0.50735   0.18304   0.00000  Uiso   1.00
C272   C     0.19411   0.35391   0.12872   0.00000  Uiso   1.00
C273   C     0.18666   0.64701   0.21183   0.00000  Uiso   1.00
C274   C     0.19729   0.64431   0.13102   0.00000  Uiso   1.00
H275   H     0.20476   0.55821   0.04753   0.00000  Uiso   1.00
H276   H     0.03050   0.50327   0.32746   0.00000  Uiso   1.00
H277   H     0.31845   0.54570   0.32338   0.00000  Uiso   1.00
H278   H     0.32762   0.58249   0.25537   0.00000  Uiso   1.00
H279   H     0.29100   0.57781   0.19977   0.00000  Uiso   1.00
H280   H     0.07732   0.58958   0.21781   0.00000  Uiso   1.00
H281   H     0.03634   0.59233   0.16331   0.00000  Uiso   1.00
H282   H     0.32369   0.65438   0.19693   0.00000  Uiso   1.00
H283   H     0.03945   0.65181   0.24676   0.00000  Uiso   1.00
H284   H     0.05835   0.66329   0.19157   0.00000  Uiso   1.00
H285   H     0.16486   0.38486   0.07123   0.00000  Uiso   1.00
H286   H     0.12484   0.44270   0.28526   0.00000  Uiso   1.00
H287   H     0.22915   0.39638   0.09157   0.00000  Uiso   1.00
H288   H     0.21624   0.63291   0.27708   0.00000  Uiso   1.00
H289   H     0.15092   0.64030   0.26833   0.00000  Uiso   1.00
H290   H     0.28183   0.59259   0.11267   0.00000  Uiso   1.00
H291   H     0.28635   0.64859   0.11911   0.00000  Uiso   1.00
H292   H     0.27212   0.59761   0.02918   0.00000  Uiso   1.00
H293   H     0.26166   0.65262   0.03184   0.00000  Uiso   1.00
H294   H     0.01932   0.66481   0.06828   0.00000  Uiso   1.00
H295   H     0.01886   0.63400   0.01650   0.00000  Uiso   1.00
H296   H     0.03048   0.60922   0.07153   0.00000  Uiso   1.00
H297   H     0.20786   0.55734   0.29707   0.00000  Uiso   1.00
H298   H     0.24920   0.43070   0.26907   0.00000  Uiso   1.00
H299   H     0.27102   0.39973   0.22470   0.00000  Uiso   1.00
H300   H     0.27720   0.37927   0.32717   0.00000  Uiso   1.00
H301   H     0.29373   0.34268   0.28430   0.00000  Uiso   1.00
H302   H     0.02821   0.39355   0.26408   0.00000  Uiso   1.00
H303   H     0.03966   0.37866   0.32347   0.00000  Uiso   1.00
H304   H     0.01219   0.42876   0.30820   0.00000  Uiso   1.00
H305   H     0.12445   0.44297   0.03619   0.00000  Uiso   1.00
H306   H     0.30435   0.44625   0.05010   0.00000  Uiso   1.00
H307   H     0.03781   0.45552   0.06825   0.00000  Uiso   1.00
H308   H     0.28512   0.52302   0.06099   0.00000  Uiso   1.00
H309   H     0.01992   0.53386   0.07056   0.00000  Uiso   1.00
H310   H     0.29411   0.49290   0.31659   0.00000  Uiso   1.00
N311   N     0.16665   0.49999   0.28573   0.00000  Uiso   1.00
N312   N     0.16668   0.50001   0.04760   0.00000  Uiso   1.00
N313   N     0.20052   0.37294   0.08602   0.00000  Uiso   1.00
N314   N     0.18214   0.62707   0.25441   0.00000  Uiso   1.00
O315   O     0.16666   0.43892   0.20487   0.00000  Uiso   1.00
O316   O     0.01167   0.52956   0.22110   0.00000  Uiso   1.00
O317   O     0.21173   0.62229   0.09416   0.00000  Uiso   1.00
O318   O     0.20371   0.37818   0.25293   0.00000  Uiso   1.00
O319   O     0.16667   0.56108   0.12846   0.00000  Uiso   1.00
O320   O     0.16666   0.43893   0.12843   0.00000  Uiso   1.00
O321   O     0.16667   0.56107   0.20490   0.00000  Uiso   1.00
O322   O     0.09058   0.50000   0.19595   0.00000  Uiso   1.00
O323   O     0.24275   0.50000   0.13739   0.00000  Uiso   1.00
O324   O     0.09058   0.50000   0.11950   0.00000  Uiso   1.00
O325   O     0.24275   0.50000   0.21383   0.00000  Uiso   1.00
O326   O     0.32042   0.46298   0.11743   0.00000  Uiso   1.00
Zn327  Zn    0.16667   0.49999   0.21771   0.00000  Uiso   1.00
Zn328  Zn    0.16667   0.50001   0.11563   0.00000  Uiso   1.00
C329   C     0.50588   0.42018   0.16706   0.00000  Uiso   1.00
C330   C     0.52709   0.35654   0.21139   0.00000  Uiso   1.00
C331   C     0.51761   0.62427   0.17018   0.00000  Uiso   1.00
C332   C     0.51981   0.37661   0.16860   0.00000  Uiso   1.00
C333   C     0.52125   0.53245   0.02693   0.00000  Uiso   1.00
C334   C     0.47682   0.46811   0.30606   0.00000  Uiso   1.00
C335   C     0.52228   0.53212   0.31250   0.00000  Uiso   1.00
C336   C     0.47687   0.46813   0.02073   0.00000  Uiso   1.00
C337   C     0.66516   0.46741   0.07198   0.00000  Uiso   1.00
C338   C     0.65659   0.51189   0.05346   0.00000  Uiso   1.00
C339   C     0.65838   0.51331   0.00198   0.00000  Uiso   1.00
C340   C     0.50488   0.58015   0.16767   0.00000  Uiso   1.00
C341   C     0.66339   0.57202   0.21966   0.00000  Uiso   1.00
C342   C     0.37151   0.59844   0.20072   0.00000  Uiso   1.00
C343   C     0.36424   0.64489   0.20945   0.00000  Uiso   1.00
C344   C     0.60032   0.62246   0.09749   0.00000  Uiso   1.00
C345   C     0.61630   0.62637   0.04963   0.00000  Uiso   1.00
C346   C     0.34158   0.63405   0.05176   0.00000  Uiso   1.00
C347   C     0.58693   0.39802   0.25731   0.00000  Uiso   1.00
C348   C     0.62492   0.37627   0.29349   0.00000  Uiso   1.00
C349   C     0.34624   0.39556   0.29745   0.00000  Uiso   1.00
C350   C     0.40047   0.49797   0.15487   0.00000  Uiso   1.00
C351   C     0.59940   0.50060   0.17829   0.00000  Uiso   1.00
C352   C     0.34560   0.49193   0.14948   0.00000  Uiso   1.00
C353   C     0.65372   0.50735   0.18304   0.00000  Uiso   1.00
C354   C     0.52744   0.35391   0.12872   0.00000  Uiso   1.00
C355   C     0.52000   0.64701   0.21183   0.00000  Uiso   1.00
C356   C     0.53062   0.64431   0.13102   0.00000  Uiso   1.00
H357   H     0.53809   0.55821   0.04753   0.00000  Uiso   1.00
H358   H     0.36384   0.50327   0.32746   0.00000  Uiso   1.00
H359   H     0.65178   0.54570   0.32338   0.00000  Uiso   1.00
H360   H     0.66096   0.58249   0.25537   0.00000  Uiso   1.00
H361   H     0.62433   0.57781   0.19977   0.00000  Uiso   1.00
H362   H     0.41066   0.58958   0.21781   0.00000  Uiso   1.00
H363   H     0.36967   0.59233   0.16331   0.00000  Uiso   1.00
H364   H     0.65703   0.65438   0.19693   0.00000  Uiso   1.00
H365   H     0.37278   0.65181   0.24676   0.00000  Uiso   1.00
H366   H     0.39168   0.66329   0.19157   0.00000  Uiso   1.00
H367   H     0.49819   0.38486   0.07123   0.00000  Uiso   1.00
H368   H     0.45817   0.44270   0.28526   0.00000  Uiso   1.00
H369   H     0.56249   0.39638   0.09157   0.00000  Uiso   1.00
H370   H     0.54958   0.63291   0.27708   0.00000  Uiso   1.00
H371   H     0.48425   0.64030   0.26833   0.00000  Uiso   1.00
H372   H     0.61516   0.59259   0.11267   0.00000  Uiso   1.00
H373   H     0.61968   0.64859   0.11911   0.00000  Uiso   1.00
H374   H     0.60545   0.59761   0.02918   0.00000  Uiso   1.00
H375   H     0.59500   0.65262   0.03184   0.00000  Uiso   1.00
H376   H     0.35266   0.66481   0.06828   0.00000  Uiso   1.00
H377   H     0.35220   0.63400   0.01650   0.00000  Uiso   1.00
H378   H     0.36381   0.60922   0.07153   0.00000  Uiso   1.00
H379   H     0.54120   0.55734   0.29707   0.00000  Uiso   1.00
H380   H     0.58253   0.43070   0.26907   0.00000  Uiso   1.00
H381   H     0.60436   0.39973   0.22470   0.00000  Uiso   1.00
H382   H     0.61053   0.37927   0.32717   0.00000  Uiso   1.00
H383   H     0.62707   0.34268   0.28430   0.00000  Uiso   1.00
H384   H     0.36155   0.39355   0.26408   0.00000  Uiso   1.00
H385   H     0.37299   0.37866   0.32347   0.00000  Uiso   1.00
H386   H     0.34552   0.42876   0.30820   0.00000  Uiso   1.00
H387   H     0.45779   0.44297   0.03619   0.00000  Uiso   1.00
H388   H     0.63768   0.44625   0.05010   0.00000  Uiso   1.00
H389   H     0.37115   0.45552   0.06825   0.00000  Uiso   1.00
H390   H     0.61846   0.52302   0.06099   0.00000  Uiso   1.00
H391   H     0.35326   0.53386   0.07056   0.00000  Uiso   1.00
H392   H     0.62744   0.49290   0.31659   0.00000  Uiso   1.00
N393   N     0.49999   0.49999   0.28573   0.00000  Uiso   1.00
N394   N     0.50001   0.50001   0.04760   0.00000  Uiso   1.00
N395   N     0.53386   0.37294   0.08602   0.00000  Uiso   1.00
N396   N     0.51547   0.62707   0.25441   0.00000  Uiso   1.00
O397   O     0.50000   0.43892   0.20487   0.00000  Uiso   1.00
O398   O     0.34500   0.52956   0.22110   0.00000  Uiso   1.00
O399   O     0.54507   0.62229   0.09416   0.00000  Uiso   1.00
O400   O     0.53704   0.37818   0.25293   0.00000  Uiso   1.00
O401   O     0.50000   0.56108   0.12846   0.00000  Uiso   1.00
O402   O     0.50000   0.43893   0.12843   0.00000  Uiso   1.00
O403   O     0.50000   0.56107   0.20490   0.00000  Uiso   1.00
O404   O     0.42392   0.50000   0.19595   0.00000  Uiso   1.00
O405   O     0.57608   0.50000   0.13739   0.00000  Uiso   1.00
O406   O     0.42392   0.50000   0.11950   0.00000  Uiso   1.00
O407   O     0.57608   0.50000   0.21383   0.00000  Uiso   1.00
O408   O     0.65375   0.46298   0.11743   0.00000  Uiso   1.00
Zn409  Zn    0.50000   0.49999   0.21771   0.00000  Uiso   1.00
Zn410  Zn    0.50000   0.50001   0.11563   0.00000  Uiso   1.00
C411   C     0.83922   0.42018   0.16706   0.00000  Uiso   1.00
C412   C     0.86042   0.35654   0.21139   0.00000  Uiso   1.00
C413   C     0.85095   0.62427   0.17018   0.00000  Uiso   1.00
C414   C     0.85315   0.37661   0.16860   0.00000  Uiso   1.00
C415   C     0.85459   0.53245   0.02693   0.00000  Uiso   1.00
C416   C     0.81015   0.46811   0.30606   0.00000  Uiso   1.00
C417   C     0.85562   0.53212   0.31250   0.00000  Uiso   1.00
C418   C     0.81021   0.46813   0.02073   0.00000  Uiso   1.00
C419   C     0.99850   0.46741   0.07198   0.00000  Uiso   1.00
C420   C     0.98993   0.51189   0.05346   0.00000  Uiso   1.00
C421   C     0.99171   0.51331   0.00198   0.00000  Uiso   1.00
C422   C     0.83822   0.58015   0.16767   0.00000  Uiso   1.00
C423   C     0.99673   0.57202   0.21966   0.00000  Uiso   1.00
C424   C     0.70485   0.59844   0.20072   0.00000  Uiso   1.00
C425   C     0.69757   0.64489   0.20945   0.00000  Uiso   1.00
C426   C     0.93365   0.62246   0.09749   0.00000  Uiso   1.00
C427   C     0.94964   0.62637   0.04963   0.00000  Uiso   1.00
C428   C     0.67492   0.63405   0.05176   0.00000  Uiso   1.00
C429   C     0.92027   0.39802   0.25731   0.00000  Uiso   1.00
C430   C     0.95826   0.37627   0.29349   0.00000  Uiso   1.00
C431   C     0.67957   0.39556   0.29745   0.00000  Uiso   1.00
C432   C     0.73381   0.49797   0.15487   0.00000  Uiso   1.00
C433   C     0.93273   0.50060   0.17829   0.00000  Uiso   1.00
C434   C     0.67894   0.49193   0.14948   0.00000  Uiso   1.00
C435   C     0.98706   0.50735   0.18304   0.00000  Uiso   1.00
C436   C     0.86078   0.35391   0.12872   0.00000  Uiso   1.00
C437   C     0.85333   0.64701   0.21183   0.00000  Uiso   1.00
C438   C     0.86396   0.64431   0.13102   0.00000  Uiso   1.00
H439   H     0.87142   0.55821   0.04753   0.00000  Uiso   1.00
H440   H     0.69717   0.50327   0.32746   0.00000  Uiso   1.00
H441   H     0.98511   0.54570   0.32338   0.00000  Uiso   1.00
H442   H     0.99429   0.58249   0.25537   0.00000  Uiso   1.00
H443   H     0.95766   0.57781   0.19977   0.00000  Uiso   1.00
H444   H     0.74399   0.58958   0.21781   0.00000  Uiso   1.00
H445   H     0.70301   0.59233   0.16331   0.00000  Uiso   1.00
H446   H     0.99036   0.65438   0.19693   0.00000  Uiso   1.00
H447   H     0.70611   0.65181   0.24676   0.00000  Uiso   1.00
H448   H     0.72501   0.66329   0.19157   0.00000  Uiso   1.00
H449   H     0.83153   0.38486   0.07123   0.00000  Uiso   1.00
H450   H     0.79150   0.44270   0.28526   0.00000  Uiso   1.00
H451   H     0.89582   0.39638   0.09157   0.00000  Uiso   1.00
H452   H     0.88291   0.63291   0.27708   0.00000  Uiso   1.00
H453   H     0.81758   0.64030   0.26833   0.00000  Uiso   1.00
H454   H     0.94850   0.59259   0.11267   0.00000  Uiso   1.00
H455   H     0.95301   0.64859   0.11911   0.00000  Uiso   1.00
H456   H     0.93879   0.59761   0.02918   0.00000  Uiso   1.00
H457   H     0.92833   0.65262   0.03184   0.00000  Uiso   1.00
H458   H     0.68599   0.66481   0.06828   0.00000  Uiso   1.00
H459   H     0.68553   0.63400   0.01650   0.00000  Uiso   1.00
H460   H     0.69715   0.60922   0.07153   0.00000  Uiso   1.00
H461   H     0.87453   0.55734   0.29707   0.00000  Uiso   1.00
H462   H     0.91586   0.43070   0.26907   0.00000  Uiso   1.00
H463   H     0.93769   0.39973   0.22470   0.00000  Uiso   1.00
H464   H     0.94386   0.37927   0.32717   0.00000  Uiso   1.00
H465   H     0.96040   0.34268   0.28430   0.00000  Uiso   1.00
H466   H     0.69488   0.39355   0.26408   0.00000  Uiso   1.00
H467   H     0.70632   0.37866   0.32347   0.00000  Uiso   1.00
H468   H     0.67886   0.42876   0.30820   0.00000  Uiso   1.00
H469   H     0.79112   0.44297   0.03619   0.00000  Uiso   1.00
H470   H     0.97102   0.44625   0.05010   0.00000  Uiso   1.00
H471   H     0.70448   0.45552   0.06825   0.00000  Uiso   1.00
H472   H     0.95179   0.52302   0.06099   0.00000  Uiso   1.00
H473   H     0.68659   0.53386   0.07056   0.00000  Uiso   1.00
H474   H     0.96078   0.49290   0.31659   0.00000  Uiso   1.00
N475   N     0.83332   0.49999   0.28573   0.00000  Uiso   1.00
N476   N     0.83335   0.50001   0.04760   0.00000  Uiso   1.00
N477   N     0.86719   0.37294   0.08602   0.00000  Uiso   1.00
N478   N     0.84880   0.62707   0.25441   0.00000  Uiso   1.00
O479   O     0.83333   0.43892   0.20487   0.00000  Uiso   1.00
O480   O     0.67834   0.52956   0.22110   0.00000  Uiso   1.00
O481   O     0.87840   0.62229   0.09416   0.00000  Uiso   1.00
O482   O     0.87038   0.37818   0.25293   0.00000  Uiso   1.00
O483   O     0.83334   0.56108   0.12846   0.00000  Uiso   1.00
O484   O     0.83333   0.43893   0.12843   0.00000  Uiso   1.00
O485   O     0.83334   0.56107   0.20490   0.00000  Uiso   1.00
O486   O     0.75725   0.50000   0.19595   0.00000  Uiso   1.00
O487   O     0.90942   0.50000   0.13739   0.00000  Uiso   1.00
O488   O     0.75725   0.50000   0.11950   0.00000  Uiso   1.00
O489   O     0.90942   0.50000   0.21383   0.00000  Uiso   1.00
O490   O     0.98709   0.46298   0.11743   0.00000  Uiso   1.00
Zn491  Zn    0.83333   0.49999   0.21771   0.00000  Uiso   1.00
Zn492  Zn    0.83333   0.50001   0.11563   0.00000  Uiso   1.00
C493   C     0.17255   0.75351   0.16706   0.00000  Uiso   1.00
C494   C     0.19376   0.68988   0.21139   0.00000  Uiso   1.00
C495   C     0.18428   0.95761   0.17018   0.00000  Uiso   1.00
C496   C     0.18648   0.70994   0.16860   0.00000  Uiso   1.00
C497   C     0.18792   0.86578   0.02693   0.00000  Uiso   1.00
C498   C     0.14349   0.80144   0.30606   0.00000  Uiso   1.00
C499   C     0.18895   0.86545   0.31250   0.00000  Uiso   1.00
C500   C     0.14354   0.80146   0.02073   0.00000  Uiso   1.00
C501   C     0.33183   0.80075   0.07198   0.00000  Uiso   1.00
C502   C     0.32326   0.84523   0.05346   0.00000  Uiso   1.00
C503   C     0.32505   0.84664   0.00198   0.00000  Uiso   1.00
C504   C     0.17155   0.91348   0.16767   0.00000  Uiso   1.00
C505   C     0.33006   0.90535   0.21966   0.00000  Uiso   1.00
C506   C     0.03818   0.93178   0.20072   0.00000  Uiso   1.00
C507   C     0.03091   0.97822   0.20945   0.00000  Uiso   1.00
C508   C     0.26699   0.95579   0.09749   0.00000  Uiso   1.00
C509   C     0.28297   0.95970   0.04963   0.00000  Uiso   1.00
C510   C     0.00825   0.96738   0.05176   0.00000  Uiso   1.00
C511   C     0.25360   0.73136   0.25731   0.00000  Uiso   1.00
C512   C     0.29159   0.70961   0.29349   0.00000  Uiso   1.00
C513   C     0.01290   0.72890   0.29745   0.00000  Uiso   1.00
C514   C     0.06714   0.83130   0.15487   0.00000  Uiso   1.00
C515   C     0.26607   0.83394   0.17829   0.00000  Uiso   1.00
C516   C     0.01227   0.82526   0.14948   0.00000  Uiso   1.00
C517   C     0.32039   0.84068   0.18304   0.00000  Uiso   1.00
C518   C     0.19411   0.68724   0.12872   0.00000  Uiso   1.00
C519   C     0.18666   0.98035   0.21183   0.00000  Uiso   1.00
C520   C     0.19729   0.97765   0.13102   0.00000  Uiso   1.00
H521   H     0.20476   0.89154   0.04753   0.00000  Uiso   1.00
H522   H     0.03050   0.83660   0.32746   0.00000  Uiso   1.00
H523   H     0.31845   0.87903   0.32338   0.00000  Uiso   1.00
H524   H     0.32762   0.91582   0.25537   0.00000  Uiso   1.00
H525   H     0.29100   0.91115   0.19977   0.00000  Uiso   1.00
H526   H     0.07732   0.92291   0.21781   0.00000  Uiso   1.00
H527   H     0.03634   0.92566   0.16331   0.00000  Uiso   1.00
H528   H     0.32369   0.98771   0.19693   0.00000  Uiso   1.00
H529   H     0.03945   0.98515   0.24676   0.00000  Uiso   1.00
H530   H     0.05835   0.99663   0.19157   0.00000  Uiso   1.00
H531   H     0.16486   0.71819   0.07123   0.00000  Uiso   1.00
H532   H     0.12484   0.77603   0.28526   0.00000  Uiso   1.00
H533   H     0.22915   0.72972   0.09157   0.00000  Uiso   1.00
H534   H     0.21624   0.96625   0.27708   0.00000  Uiso   1.00
H535   H     0.15092   0.97363   0.26833   0.00000  Uiso   1.00
H536   H     0.28183   0.92593   0.11267   0.00000  Uiso   1.00
H537   H     0.28635   0.98193   0.11911   0.00000  Uiso   1.00
H538   H     0.27212   0.93094   0.02918   0.00000  Uiso   1.00
H539   H     0.26166   0.98596   0.03184   0.00000  Uiso   1.00
H540   H     0.01932   0.99814   0.06828   0.00000  Uiso   1.00
H541   H     0.01886   0.96733   0.01650   0.00000  Uiso   1.00
H542   H     0.03048   0.94256   0.07153   0.00000  Uiso   1.00
H543   H     0.20786   0.89067   0.29707   0.00000  Uiso   1.00
H544   H     0.24920   0.76403   0.26907   0.00000  Uiso   1.00
H545   H     0.27102   0.73306   0.22470   0.00000  Uiso   1.00
H546   H     0.27720   0.71260   0.32717   0.00000  Uiso   1.00
H547   H     0.29373   0.67602   0.28430   0.00000  Uiso   1.00
H548   H     0.02821   0.72689   0.26408   0.00000  Uiso   1.00
H549   H     0.03966   0.71200   0.32347   0.00000  Uiso   1.00
H550   H     0.01219   0.76210   0.30820   0.00000  Uiso   1.00
H551   H     0.12445   0.77631   0.03619   0.00000  Uiso   1.00
H552   H     0.30435   0.77958   0.05010   0.00000  Uiso   1.00
H553   H     0.03781   0.78885   0.06825   0.00000  Uiso   1.00
H554   H     0.28512   0.85636   0.06099   0.00000  Uiso   1.00
H555   H     0.01992   0.86720   0.07056   0.00000  Uiso   1.00
H556   H     0.29411   0.82623   0.31659   0.00000  Uiso   1.00
N557   N     0.16665   0.83332   0.28573   0.00000  Uiso   1.00
N558   N     0.16668   0.83334   0.04760   0.00000  Uiso   1.00
N559   N     0.20052   0.70627   0.08602   0.00000  Uiso   1.00
N560   N     0.18214   0.96040   0.25441   0.00000  Uiso   1.00
O561   O     0.16666   0.77225   0.20487   0.00000  Uiso   1.00
O562   O     0.01167   0.86289   0.22110   0.00000  Uiso   1.00
O563   O     0.21173   0.95563   0.09416   0.00000  Uiso   1.00
O564   O     0.20371   0.71151   0.25293   0.00000  Uiso   1.00
O565   O     0.16667   0.89442   0.12846   0.00000  Uiso   1.00
O566   O     0.16666   0.77226   0.12843   0.00000  Uiso   1.00
O567   O     0.16667   0.89441   0.20490   0.00000  Uiso   1.00
O568   O     0.09058   0.83333   0.19595   0.00000  Uiso   1.00
O569   O     0.24275   0.83334   0.13739   0.00000  Uiso   1.00
O570   O     0.09058   0.83334   0.11950   0.00000  Uiso   1.00
O571   O     0.24275   0.83333   0.21383   0.00000  Uiso   1.00
O572   O     0.32042   0.79631   0.11743   0.00000  Uiso   1.00
Zn573  Zn    0.16667   0.83333   0.21771   0.00000  Uiso   1.00
Zn574  Zn    0.16667   0.83334   0.11563   0.00000  Uiso   1.00
C575   C     0.50588   0.75351   0.16706   0.00000  Uiso   1.00
C576   C     0.52709   0.68988   0.21139   0.00000  Uiso   1.00
C577   C     0.51761   0.95761   0.17018   0.00000  Uiso   1.00
C578   C     0.51981   0.70994   0.16860   0.00000  Uiso   1.00
C579   C     0.52125   0.86578   0.02693   0.00000  Uiso   1.00
C580   C     0.47682   0.80144   0.30606   0.00000  Uiso   1.00
C581   C     0.52228   0.86545   0.31250   0.00000  Uiso   1.00
C582   C     0.47687   0.80146   0.02073   0.00000  Uiso   1.00
C583   C     0.66516   0.80075   0.07198   0.00000  Uiso   1.00
C584   C     0.65659   0.84523   0.05346   0.00000  Uiso   1.00
C585   C     0.65838   0.84664   0.00198   0.00000  Uiso   1.00
C586   C     0.50488   0.91348   0.16767   0.00000  Uiso   1.00
C587   C     0.66339   0.90535   0.21966   0.00000  Uiso   1.00
C588   C     0.37151   0.93178   0.20072   0.00000  Uiso   1.00
C589   C     0.36424   0.97822   0.20945   0.00000  Uiso   1.00
C590   C     0.60032   0.95579   0.09749   0.00000  Uiso   1.00
C591   C     0.61630   0.95970   0.04963   0.00000  Uiso   1.00
C592   C     0.34158   0.96738   0.05176   0.00000  Uiso   1.00
C593   C     0.58693   0.73136   0.25731   0.00000  Uiso   1.00
C594   C     0.62492   0.70961   0.29349   0.00000  Uiso   1.00
C595   C     0.34624   0.72890   0.29745   0.00000  Uiso   1.00
C596   C     0.40047   0.83130   0.15487   0.00000  Uiso   1.00
C597   C     0.59940   0.83394   0.17829   0.00000  Uiso   1.00
C598   C     0.34560   0.82526   0.14948   0.00000  Uiso   1.00
C599   C     0.65372   0.84068   0.18304   0.00000  Uiso   1.00
C600   C     0.52744   0.68724   0.12872   0.00000  Uiso   1.00
C601   C     0.52000   0.98035   0.21183   0.00000  Uiso   1.00
C602   C     0.53062   0.97765   0.13102   0.00000  Uiso   1.00
H603   H     0.53809   0.89154   0.04753   0.00000  Uiso   1.00
H604   H     0.36384   0.83660   0.32746   0.00000  Uiso   1.00
H605   H     0.65178   0.87903   0.32338   0.00000  Uiso   1.00
H606   H     0.66096   0.91582   0.25537   0.00000  Uiso   1.00
H607   H     0.62433   0.91115   0.19977   0.00000  Uiso   1.00
H608   H     0.41066   0.92291   0.21781   0.00000  Uiso   1.00
H609   H     0.36967   0.92566   0.16331   0.00000  Uiso   1.00
H610   H     0.65703   0.98771   0.19693   0.00000  Uiso   1.00
H611   H     0.37278   0.98515   0.24676   0.00000  Uiso   1.00
H612   H     0.39168   0.99663   0.19157   0.00000  Uiso   1.00
H613   H     0.49819   0.71819   0.07123   0.00000  Uiso   1.00
H614   H     0.45817   0.77603   0.28526   0.00000  Uiso   1.00
H615   H     0.56249   0.72972   0.09157   0.00000  Uiso   1.00
H616   H     0.54958   0.96625   0.27708   0.00000  Uiso   1.00
H617   H     0.48425   0.97363   0.26833   0.00000  Uiso   1.00
H618   H     0.61516   0.92593   0.11267   0.00000  Uiso   1.00
H619   H     0.61968   0.98193   0.11911   0.00000  Uiso   1.00
H620   H     0.60545   0.93094   0.02918   0.00000  Uiso   1.00
H621   H     0.59500   0.98596   0.03184   0.00000  Uiso   1.00
H622   H     0.35266   0.99814   0.06828   0.00000  Uiso   1.00
H623   H     0.35220   0.96733   0.01650   0.00000  Uiso   1.00
H624   H     0.36381   0.94256   0.07153   0.00000  Uiso   1.00
H625   H     0.54120   0.89067   0.29707   0.00000  Uiso   1.00
H626   H     0.58253   0.76403   0.26907   0.00000  Uiso   1.00
H627   H     0.60436   0.73306   0.22470   0.00000  Uiso   1.00
H628   H     0.61053   0.71260   0.32717   0.00000  Uiso   1.00
H629   H     0.62707   0.67602   0.28430   0.00000  Uiso   1.00
H630   H     0.36155   0.72689   0.26408   0.00000  Uiso   1.00
H631   H     0.37299   0.71200   0.32347   0.00000  Uiso   1.00
H632   H     0.34552   0.76210   0.30820   0.00000  Uiso   1.00
H633   H     0.45779   0.77631   0.03619   0.00000  Uiso   1.00
H634   H     0.63768   0.77958   0.05010   0.00000  Uiso   1.00
H635   H     0.37115   0.78885   0.06825   0.00000  Uiso   1.00
H636   H     0.61846   0.85636   0.06099   0.00000  Uiso   1.00
H637   H     0.35326   0.86720   0.07056   0.00000  Uiso   1.00
H638   H     0.62744   0.82623   0.31659   0.00000  Uiso   1.00
N639   N     0.49999   0.83332   0.28573   0.00000  Uiso   1.00
N640   N     0.50001   0.83334   0.04760   0.00000  Uiso   1.00
N641   N     0.53386   0.70627   0.08602   0.00000  Uiso   1.00
N642   N     0.51547   0.96040   0.25441   0.00000  Uiso   1.00
O643   O     0.50000   0.77225   0.20487   0.00000  Uiso   1.00
O644   O     0.34500   0.86289   0.22110   0.00000  Uiso   1.00
O645   O     0.54507   0.95563   0.09416   0.00000  Uiso   1.00
O646   O     0.53704   0.71151   0.25293   0.00000  Uiso   1.00
O647   O     0.50000   0.89442   0.12846   0.00000  Uiso   1.00
O648   O     0.50000   0.77226   0.12843   0.00000  Uiso   1.00
O649   O     0.50000   0.89441   0.20490   0.00000  Uiso   1.00
O650   O     0.42392   0.83333   0.19595   0.00000  Uiso   1.00
O651   O     0.57608   0.83334   0.13739   0.00000  Uiso   1.00
O652   O     0.42392   0.83334   0.11950   0.00000  Uiso   1.00
O653   O     0.57608   0.83333   0.21383   0.00000  Uiso   1.00
O654   O     0.65375   0.79631   0.11743   0.00000  Uiso   1.00
Zn655  Zn    0.50000   0.83333   0.21771   0.00000  Uiso   1.00
Zn656  Zn    0.50000   0.83334   0.11563   0.00000  Uiso   1.00
C657   C     0.83922   0.75351   0.16706   0.00000  Uiso   1.00
C658   C     0.86042   0.68988   0.21139   0.00000  Uiso   1.00
C659   C     0.85095   0.95761   0.17018   0.00000  Uiso   1.00
C660   C     0.85315   0.70994   0.16860   0.00000  Uiso   1.00
C661   C     0.85459   0.86578   0.02693   0.00000  Uiso   1.00
C662   C     0.81015   0.80144   0.30606   0.00000  Uiso   1.00
C663   C     0.85562   0.86545   0.31250   0.00000  Uiso   1.00
C664   C     0.81021   0.80146   0.02073   0.00000  Uiso   1.00
C665   C     0.99850   0.80075   0.07198   0.00000  Uiso   1.00
C666   C     0.98993   0.84523   0.05346   0.00000  Uiso   1.00
C667   C     0.99171   0.84664   0.00198   0.00000  Uiso   1.00
C668   C     0.83822   0.91348   0.16767   0.00000  Uiso   1.00
C669   C     0.99673   0.90535   0.21966   0.00000  Uiso   1.00
C670   C     0.70485   0.93178   0.20072   0.00000  Uiso   1.00
C671   C     0.69757   0.97822   0.20945   0.00000  Uiso   1.00
C672   C     0.93365   0.95579   0.09749   0.00000  Uiso   1.00
C673   C     0.94964   0.95970   0.04963   0.00000  Uiso   1.00
C674   C     0.67492   0.96738   0.05176   0.00000  Uiso   1.00
C675   C     0.92027   0.73136   0.25731   0.00000  Uiso   1.00
C676   C     0.95826   0.70961   0.29349   0.00000  Uiso   1.00
C677   C     0.67957   0.72890   0.29745   0.00000  Uiso   1.00
C678   C     0.73381   0.83130   0.15487   0.00000  Uiso   1.00
C679   C     0.93273   0.83394   0.17829   0.00000  Uiso   1.00
C680   C     0.67894   0.82526   0.14948   0.00000  Uiso   1.00
C681   C     0.98706   0.84068   0.18304   0.00000  Uiso   1.00
C682   C     0.86078   0.68724   0.12872   0.00000  Uiso   1.00
C683   C     0.85333   0.98035   0.21183   0.00000  Uiso   1.00
C684   C     0.86396   0.97765   0.13102   0.00000  Uiso   1.00
H685   H     0.87142   0.89154   0.04753   0.00000  Uiso   1.00
H686   H     0.69717   0.83660   0.32746   0.00000  Uiso   1.00
H687   H     0.98511   0.87903   0.32338   0.00000  Uiso   1.00
H688   H     0.99429   0.91582   0.25537   0.00000  Uiso   1.00
H689   H     0.95766   0.91115   0.19977   0.00000  Uiso   1.00
H690   H     0.74399   0.92291   0.21781   0.00000  Uiso   1.00
H691   H     0.70301   0.92566   0.16331   0.00000  Uiso   1.00
H692   H     0.99036   0.98771   0.19693   0.00000  Uiso   1.00
H693   H     0.70611   0.98515   0.24676   0.00000  Uiso   1.00
H694   H     0.72501   0.99663   0.19157   0.00000  Uiso   1.00
H695   H     0.83153   0.71819   0.07123   0.00000  Uiso   1.00
H696   H     0.79150   0.77603   0.28526   0.00000  Uiso   1.00
H697   H     0.89582   0.72972   0.09157   0.00000  Uiso   1.00
H698   H     0.88291   0.96625   0.27708   0.00000  Uiso   1.00
H699   H     0.81758   0.97363   0.26833   0.00000  Uiso   1.00
H700   H     0.94850   0.92593   0.11267   0.00000  Uiso   1.00
H701   H     0.95301   0.98193   0.11911   0.00000  Uiso   1.00
H702   H     0.93879   0.93094   0.02918   0.00000  Uiso   1.00
H703   H     0.92833   0.98596   0.03184   0.00000  Uiso   1.00
H704   H     0.68599   0.99814   0.06828   0.00000  Uiso   1.00
H705   H     0.68553   0.96733   0.01650   0.00000  Uiso   1.00
H706   H     0.69715   0.94256   0.07153   0.00000  Uiso   1.00
H707   H     0.87453   0.89067   0.29707   0.00000  Uiso   1.00
H708   H     0.91586   0.76403   0.26907   0.00000  Uiso   1.00
H709   H     0.93769   0.73306   0.22470   0.00000  Uiso   1.00
H710   H     0.94386   0.71260   0.32717   0.00000  Uiso   1.00
H711   H     0.96040   0.67602   0.28430   0.00000  Uiso   1.00
H712   H     0.69488   0.72689   0.26408   0.00000  Uiso   1.00
H713   H     0.70632   0.71200   0.32347   0.00000  Uiso   1.00
H714   H     0.67886   0.76210   0.30820   0.00000  Uiso   1.00
H715   H     0.79112   0.77631   0.03619   0.00000  Uiso   1.00
H716   H     0.97102   0.77958   0.05010   0.00000  Uiso   1.00
H717   H     0.70448   0.78885   0.06825   0.00000  Uiso   1.00
H718   H     0.95179   0.85636   0.06099   0.00000  Uiso   1.00
H719   H     0.68659   0.86720   0.07056   0.00000  Uiso   1.00
H720   H     0.96078   0.82623   0.31659   0.00000  Uiso   1.00
N721   N     0.83332   0.83332   0.28573   0.00000  Uiso   1.00
N722   N     0.83335   0.83334   0.04760   0.00000  Uiso   1.00
N723   N     0.86719   0.70627   0.08602   0.00000  Uiso   1.00
N724   N     0.84880   0.96040   0.25441   0.00000  Uiso   1.00
O725   O     0.83333   0.77225   0.20487   0.00000  Uiso   1.00
O726   O     0.67834   0.86289   0.22110   0.00000  Uiso   1.00
O727   O     0.87840   0.95563   0.09416   0.00000  Uiso   1.00
O728   O     0.87038   0.71151   0.25293   0.00000  Uiso   1.00
O729   O     0.83334   0.89442   0.12846   0.00000  Uiso   1.00
O730   O     0.83333   0.77226   0.12843   0.00000  Uiso   1.00
O731   O     0.83334   0.89441   0.20490   0.00000  Uiso   1.00
O732   O     0.75725   0.83333   0.19595   0.00000  Uiso   1.00
O733   O     0.90942   0.83334   0.13739   0.00000  Uiso   1.00
O734   O     0.75725   0.83334   0.11950   0.00000  Uiso   1.00
O735   O     0.90942   0.83333   0.21383   0.00000  Uiso   1.00
O736   O     0.98709   0.79631   0.11743   0.00000  Uiso   1.00
Zn737  Zn    0.83333   0.83333   0.21771   0.00000  Uiso   1.00
Zn738  Zn    0.83333   0.83334   0.11563   0.00000  Uiso   1.00
C739   C     0.17255   0.08685   0.50039   0.00000  Uiso   1.00
C740   C     0.19376   0.02321   0.54472   0.00000  Uiso   1.00
C741   C     0.18428   0.29094   0.50352   0.00000  Uiso   1.00
C742   C     0.18648   0.04328   0.50193   0.00000  Uiso   1.00
C743   C     0.18792   0.19912   0.36026   0.00000  Uiso   1.00
C744   C     0.14349   0.13478   0.63939   0.00000  Uiso   1.00
C745   C     0.18895   0.19878   0.64583   0.00000  Uiso   1.00
C746   C     0.14354   0.13479   0.35407   0.00000  Uiso   1.00
C747   C     0.33183   0.13408   0.40531   0.00000  Uiso   1.00
C748   C     0.32326   0.17856   0.38679   0.00000  Uiso   1.00
C749   C     0.32505   0.17998   0.33532   0.00000  Uiso   1.00
C750   C     0.17155   0.24681   0.50100   0.00000  Uiso   1.00
C751   C     0.33006   0.23869   0.55299   0.00000  Uiso   1.00
C752   C     0.03818   0.26511   0.53405   0.00000  Uiso   1.00
C753   C     0.03091   0.31155   0.54278   0.00000  Uiso   1.00
C754   C     0.26699   0.28913   0.43082   0.00000  Uiso   1.00
C755   C     0.28297   0.29304   0.38296   0.00000  Uiso   1.00
C756   C     0.00825   0.30072   0.38510   0.00000  Uiso   1.00
C757   C     0.25360   0.06469   0.59064   0.00000  Uiso   1.00
C758   C     0.29159   0.04294   0.62682   0.00000  Uiso   1.00
C759   C     0.01290   0.06223   0.63078   0.00000  Uiso   1.00
C760   C     0.06714   0.16463   0.48821   0.00000  Uiso   1.00
C761   C     0.26607   0.16727   0.51162   0.00000  Uiso   1.00
C762   C     0.01227   0.15859   0.48282   0.00000  Uiso   1.00
C763   C     0.32039   0.17401   0.51637   0.00000  Uiso   1.00
C764   C     0.19411   0.02058   0.46206   0.00000  Uiso   1.00
C765   C     0.18666   0.31368   0.54516   0.00000  Uiso   1.00
C766   C     0.19729   0.31098   0.46435   0.00000  Uiso   1.00
H767   H     0.20476   0.22488   0.38086   0.00000  Uiso   1.00
H768   H     0.03050   0.16993   0.66079   0.00000  Uiso   1.00
H769   H     0.31845   0.21237   0.65671   0.00000  Uiso   1.00
H770   H     0.32762   0.24915   0.58870   0.00000  Uiso   1.00
H771   H     0.29100   0.24448   0.53311   0.00000  Uiso   1.00
H772   H     0.07732   0.25624   0.55114   0.00000  Uiso   1.00
H773   H     0.03634   0.25899   0.49664   0.00000  Uiso   1.00
H774   H     0.32369   0.32104   0.53026   0.00000  Uiso   1.00
H775   H     0.03945   0.31848   0.58010   0.00000  Uiso   1.00
H776   H     0.05835   0.32996   0.52490   0.00000  Uiso   1.00
H777   H     0.16486   0.05153   0.40456   0.00000  Uiso   1.00
H778   H     0.12484   0.10936   0.61859   0.00000  Uiso   1.00
H779   H     0.22915   0.06305   0.42490   0.00000  Uiso   1.00
H780   H     0.21624   0.29958   0.61041   0.00000  Uiso   1.00
H781   H     0.15092   0.30696   0.60166   0.00000  Uiso   1.00
H782   H     0.28183   0.25926   0.44600   0.00000  Uiso   1.00
H783   H     0.28635   0.31526   0.45244   0.00000  Uiso   1.00
H784   H     0.27212   0.26427   0.36252   0.00000  Uiso   1.00
H785   H     0.26166   0.31929   0.36517   0.00000  Uiso   1.00
H786   H     0.01932   0.33148   0.40161   0.00000  Uiso   1.00
H787   H     0.01886   0.30067   0.34983   0.00000  Uiso   1.00
H788   H     0.03048   0.27589   0.40486   0.00000  Uiso   1.00
H789   H     0.20786   0.22400   0.63040   0.00000  Uiso   1.00
H790   H     0.24920   0.09736   0.60240   0.00000  Uiso   1.00
H791   H     0.27102   0.06639   0.55803   0.00000  Uiso   1.00
H792   H     0.27720   0.04593   0.66050   0.00000  Uiso   1.00
H793   H     0.29373   0.00935   0.61763   0.00000  Uiso   1.00
H794   H     0.02821   0.06022   0.59742   0.00000  Uiso   1.00
H795   H     0.03966   0.04533   0.65680   0.00000  Uiso   1.00
H796   H     0.01219   0.09543   0.64154   0.00000  Uiso   1.00
H797   H     0.12445   0.10964   0.36952   0.00000  Uiso   1.00
H798   H     0.30435   0.11292   0.38344   0.00000  Uiso   1.00
H799   H     0.03781   0.12218   0.40158   0.00000  Uiso   1.00
H800   H     0.28512   0.18969   0.39432   0.00000  Uiso   1.00
H801   H     0.01992   0.20053   0.40390   0.00000  Uiso   1.00
H802   H     0.29411   0.15957   0.64993   0.00000  Uiso   1.00
N803   N     0.16665   0.16666   0.61907   0.00000  Uiso   1.00
N804   N     0.16668   0.16668   0.38093   0.00000  Uiso   1.00
N805   N     0.20052   0.03961   0.41935   0.00000  Uiso   1.00
N806   N     0.18214   0.29373   0.58774   0.00000  Uiso   1.00
O807   O     0.16666   0.10558   0.53821   0.00000  Uiso   1.00
O808   O     0.01167   0.19622   0.55443   0.00000  Uiso   1.00
O809   O     0.21173   0.28896   0.42750   0.00000  Uiso   1.00
O810   O     0.20371   0.04485   0.58627   0.00000  Uiso   1.00
O811   O     0.16667   0.22775   0.46179   0.00000  Uiso   1.00
O812   O     0.16666   0.10559   0.46176   0.00000  Uiso   1.00
O813   O     0.16667   0.22774   0.53824   0.00000  Uiso   1.00
O814   O     0.09058   0.16666   0.52928   0.00000  Uiso   1.00
O815   O     0.24275   0.16667   0.47072   0.00000  Uiso   1.00
O816   O     0.09058   0.16667   0.45284   0.00000  Uiso   1.00
O817   O     0.24275   0.16666   0.54716   0.00000  Uiso   1.00
O818   O     0.32042   0.12965   0.45076   0.00000  Uiso   1.00
Zn819  Zn    0.16667   0.16666   0.55104   0.00000  Uiso   1.00
Zn820  Zn    0.16667   0.16667   0.44896   0.00000  Uiso   1.00
C821   C     0.50588   0.08685   0.50039   0.00000  Uiso   1.00
C822   C     0.52709   0.02321   0.54472   0.00000  Uiso   1.00
C823   C     0.51761   0.29094   0.50352   0.00000  Uiso   1.00
C824   C     0.51981   0.04328   0.50193   0.00000  Uiso   1.00
C825   C     0.52125   0.19912   0.36026   0.00000  Uiso   1.00
C826   C     0.47682   0.13478   0.63939   0.00000  Uiso   1.00
C827   C     0.52228   0.19878   0.64583   0.00000  Uiso   1.00
C828   C     0.47687   0.13479   0.35407   0.00000  Uiso   1.00
C829   C     0.66516   0.13408   0.40531   0.00000  Uiso   1.00
C830   C     0.65659   0.17856   0.38679   0.00000  Uiso   1.00
C831   C     0.65838   0.17998   0.33532   0.00000  Uiso   1.00
C832   C     0.50488   0.24681   0.50100   0.00000  Uiso   1.00
C833   C     0.66339   0.23869   0.55299   0.00000  Uiso   1.00
C834   C     0.37151   0.26511   0.53405   0.00000  Uiso   1.00
C835   C     0.36424   0.31155   0.54278   0.00000  Uiso   1.00
C836   C     0.60032   0.28913   0.43082   0.00000  Uiso   1.00
C837   C     0.61630   0.29304   0.38296   0.00000  Uiso   1.00
C838   C     0.34158   0.30072   0.38510   0.00000  Uiso   1.00
C839   C     0.58693   0.06469   0.59064   0.00000  Uiso   1.00
C840   C     0.62492   0.04294   0.62682   0.00000  Uiso   1.00
C841   C     0.34624   0.06223   0.63078   0.00000  Uiso   1.00
C842   C     0.40047   0.16463   0.48821   0.00000  Uiso   1.00
C843   C     0.59940   0.16727   0.51162   0.00000  Uiso   1.00
C844   C     0.34560   0.15859   0.48282   0.00000  Uiso   1.00
C845   C     0.65372   0.17401   0.51637   0.00000  Uiso   1.00
C846   C     0.52744   0.02058   0.46206   0.00000  Uiso   1.00
C847   C     0.52000   0.31368   0.54516   0.00000  Uiso   1.00
C848   C     0.53062   0.31098   0.46435   0.00000  Uiso   1.00
H849   H     0.53809   0.22488   0.38086   0.00000  Uiso   1.00
H850   H     0.36384   0.16993   0.66079   0.00000  Uiso   1.00
H851   H     0.65178   0.21237   0.65671   0.00000  Uiso   1.00
H852   H     0.66096   0.24915   0.58870   0.00000  Uiso   1.00
H853   H     0.62433   0.24448   0.53311   0.00000  Uiso   1.00
H854   H     0.41066   0.25624   0.55114   0.00000  Uiso   1.00
H855   H     0.36967   0.25899   0.49664   0.00000  Uiso   1.00
H856   H     0.65703   0.32104   0.53026   0.00000  Uiso   1.00
H857   H     0.37278   0.31848   0.58010   0.00000  Uiso   1.00
H858   H     0.39168   0.32996   0.52490   0.00000  Uiso   1.00
H859   H     0.49819   0.05153   0.40456   0.00000  Uiso   1.00
H860   H     0.45817   0.10936   0.61859   0.00000  Uiso   1.00
H861   H     0.56249   0.06305   0.42490   0.00000  Uiso   1.00
H862   H     0.54958   0.29958   0.61041   0.00000  Uiso   1.00
H863   H     0.48425   0.30696   0.60166   0.00000  Uiso   1.00
H864   H     0.61516   0.25926   0.44600   0.00000  Uiso   1.00
H865   H     0.61968   0.31526   0.45244   0.00000  Uiso   1.00
H866   H     0.60545   0.26427   0.36252   0.00000  Uiso   1.00
H867   H     0.59500   0.31929   0.36517   0.00000  Uiso   1.00
H868   H     0.35266   0.33148   0.40161   0.00000  Uiso   1.00
H869   H     0.35220   0.30067   0.34983   0.00000  Uiso   1.00
H870   H     0.36381   0.27589   0.40486   0.00000  Uiso   1.00
H871   H     0.54120   0.22400   0.63040   0.00000  Uiso   1.00
H872   H     0.58253   0.09736   0.60240   0.00000  Uiso   1.00
H873   H     0.60436   0.06639   0.55803   0.00000  Uiso   1.00
H874   H     0.61053   0.04593   0.66050   0.00000  Uiso   1.00
H875   H     0.62707   0.00935   0.61763   0.00000  Uiso   1.00
H876   H     0.36155   0.06022   0.59742   0.00000  Uiso   1.00
H877   H     0.37299   0.04533   0.65680   0.00000  Uiso   1.00
H878   H     0.34552   0.09543   0.64154   0.00000  Uiso   1.00
H879   H     0.45779   0.10964   0.36952   0.00000  Uiso   1.00
H880   H     0.63768   0.11292   0.38344   0.00000  Uiso   1.00
H881   H     0.37115   0.12218   0.40158   0.00000  Uiso   1.00
H882   H     0.61846   0.18969   0.39432   0.00000  Uiso   1.00
H883   H     0.35326   0.20053   0.40390   0.00000  Uiso   1.00
H884   H     0.62744   0.15957   0.64993   0.00000  Uiso   1.00
N885   N     0.49999   0.16666   0.61907   0.00000  Uiso   1.00
N886   N     0.50001   0.16668   0.38093   0.00000  Uiso   1.00
N887   N     0.53386   0.03961   0.41935   0.00000  Uiso   1.00
N888   N     0.51547   0.29373   0.58774   0.00000  Uiso   1.00
O889   O     0.50000   0.10558   0.53821   0.00000  Uiso   1.00
O890   O     0.34500   0.19622   0.55443   0.00000  Uiso   1.00
O891   O     0.54507   0.28896   0.42750   0.00000  Uiso   1.00
O892   O     0.53704   0.04485   0.58627   0.00000  Uiso   1.00
O893   O     0.50000   0.22775   0.46179   0.00000  Uiso   1.00
O894   O     0.50000   0.10559   0.46176   0.00000  Uiso   1.00
O895   O     0.50000   0.22774   0.53824   0.00000  Uiso   1.00
O896   O     0.42392   0.16666   0.52928   0.00000  Uiso   1.00
O897   O     0.57608   0.16667   0.47072   0.00000  Uiso   1.00
O898   O     0.42392   0.16667   0.45284   0.00000  Uiso   1.00
O899   O     0.57608   0.16666   0.54716   0.00000  Uiso   1.00
O900   O     0.65375   0.12965   0.45076   0.00000  Uiso   1.00
Zn901  Zn    0.50000   0.16666   0.55104   0.00000  Uiso   1.00
Zn902  Zn    0.50000   0.16667   0.44896   0.00000  Uiso   1.00
C903   C     0.83922   0.08685   0.50039   0.00000  Uiso   1.00
C904   C     0.86042   0.02321   0.54472   0.00000  Uiso   1.00
C905   C     0.85095   0.29094   0.50352   0.00000  Uiso   1.00
C906   C     0.85315   0.04328   0.50193   0.00000  Uiso   1.00
C907   C     0.85459   0.19912   0.36026   0.00000  Uiso   1.00
C908   C     0.81015   0.13478   0.63939   0.00000  Uiso   1.00
C909   C     0.85562   0.19878   0.64583   0.00000  Uiso   1.00
C910   C     0.81021   0.13479   0.35407   0.00000  Uiso   1.00
C911   C     0.99850   0.13408   0.40531   0.00000  Uiso   1.00
C912   C     0.98993   0.17856   0.38679   0.00000  Uiso   1.00
C913   C     0.99171   0.17998   0.33532   0.00000  Uiso   1.00
C914   C     0.83822   0.24681   0.50100   0.00000  Uiso   1.00
C915   C     0.99673   0.23869   0.55299   0.00000  Uiso   1.00
C916   C     0.70485   0.26511   0.53405   0.00000  Uiso   1.00
C917   C     0.69757   0.31155   0.54278   0.00000  Uiso   1.00
C918   C     0.93365   0.28913   0.43082   0.00000  Uiso   1.00
C919   C     0.94964   0.29304   0.38296   0.00000  Uiso   1.00
C920   C     0.67492   0.30072   0.38510   0.00000  Uiso   1.00
C921   C     0.92027   0.06469   0.59064   0.00000  Uiso   1.00
C922   C     0.95826   0.04294   0.62682   0.00000  Uiso   1.00
C923   C     0.67957   0.06223   0.63078   0.00000  Uiso   1.00
C924   C     0.73381   0.16463   0.48821   0.00000  Uiso   1.00
C925   C     0.93273   0.16727   0.51162   0.00000  Uiso   1.00
C926   C     0.67894   0.15859   0.48282   0.00000  Uiso   1.00
C927   C     0.98706   0.17401   0.51637   0.00000  Uiso   1.00
C928   C     0.86078   0.02058   0.46206   0.00000  Uiso   1.00
C929   C     0.85333   0.31368   0.54516   0.00000  Uiso   1.00
C930   C     0.86396   0.31098   0.46435   0.00000  Uiso   1.00
H931   H     0.87142   0.22488   0.38086   0.00000  Uiso   1.00
H932   H     0.69717   0.16993   0.66079   0.00000  Uiso   1.00
H933   H     0.98511   0.21237   0.65671   0.00000  Uiso   1.00
H934   H     0.99429   0.24915   0.58870   0.00000  Uiso   1.00
H935   H     0.95766   0.24448   0.53311   0.00000  Uiso   1.00
H936   H     0.74399   0.25624   0.55114   0.00000  Uiso   1.00
H937   H     0.70301   0.25899   0.49664   0.00000  Uiso   1.00
H938   H     0.99036   0.32104   0.53026   0.00000  Uiso   1.00
H939   H     0.70611   0.31848   0.58010   0.00000  Uiso   1.00
H940   H     0.72501   0.32996   0.52490   0.00000  Uiso   1.00
H941   H     0.83153   0.05153   0.40456   0.00000  Uiso   1.00
H942   H     0.79150   0.10936   0.61859   0.00000  Uiso   1.00
H943   H     0.89582   0.06305   0.42490   0.00000  Uiso   1.00
H944   H     0.88291   0.29958   0.61041   0.00000  Uiso   1.00
H945   H     0.81758   0.30696   0.60166   0.00000  Uiso   1.00
H946   H     0.94850   0.25926   0.44600   0.00000  Uiso   1.00
H947   H     0.95301   0.31526   0.45244   0.00000  Uiso   1.00
H948   H     0.93879   0.26427   0.36252   0.00000  Uiso   1.00
H949   H     0.92833   0.31929   0.36517   0.00000  Uiso   1.00
H950   H     0.68599   0.33148   0.40161   0.00000  Uiso   1.00
H951   H     0.68553   0.30067   0.34983   0.00000  Uiso   1.00
H952   H     0.69715   0.27589   0.40486   0.00000  Uiso   1.00
H953   H     0.87453   0.22400   0.63040   0.00000  Uiso   1.00
H954   H     0.91586   0.09736   0.60240   0.00000  Uiso   1.00
H955   H     0.93769   0.06639   0.55803   0.00000  Uiso   1.00
H956   H     0.94386   0.04593   0.66050   0.00000  Uiso   1.00
H957   H     0.96040   0.00935   0.61763   0.00000  Uiso   1.00
H958   H     0.69488   0.06022   0.59742   0.00000  Uiso   1.00
H959   H     0.70632   0.04533   0.65680   0.00000  Uiso   1.00
H960   H     0.67886   0.09543   0.64154   0.00000  Uiso   1.00
H961   H     0.79112   0.10964   0.36952   0.00000  Uiso   1.00
H962   H     0.97102   0.11292   0.38344   0.00000  Uiso   1.00
H963   H     0.70448   0.12218   0.40158   0.00000  Uiso   1.00
H964   H     0.95179   0.18969   0.39432   0.00000  Uiso   1.00
H965   H     0.68659   0.20053   0.40390   0.00000  Uiso   1.00
H966   H     0.96078   0.15957   0.64993   0.00000  Uiso   1.00
N967   N     0.83332   0.16666   0.61907   0.00000  Uiso   1.00
N968   N     0.83335   0.16668   0.38093   0.00000  Uiso   1.00
N969   N     0.86719   0.03961   0.41935   0.00000  Uiso   1.00
N970   N     0.84880   0.29373   0.58774   0.00000  Uiso   1.00
O971   O     0.83333   0.10558   0.53821   0.00000  Uiso   1.00
O972   O     0.67834   0.19622   0.55443   0.00000  Uiso   1.00
O973   O     0.87840   0.28896   0.42750   0.00000  Uiso   1.00
O974   O     0.87038   0.04485   0.58627   0.00000  Uiso   1.00
O975   O     0.83334   0.22775   0.46179   0.00000  Uiso   1.00
O976   O     0.83333   0.10559   0.46176   0.00000  Uiso   1.00
O977   O     0.83334   0.22774   0.53824   0.00000  Uiso   1.00
O978   O     0.75725   0.16666   0.52928   0.00000  Uiso   1.00
O979   O     0.90942   0.16667   0.47072   0.00000  Uiso   1.00
O980   O     0.75725   0.16667   0.45284   0.00000  Uiso   1.00
O981   O     0.90942   0.16666   0.54716   0.00000  Uiso   1.00
O982   O     0.98709   0.12965   0.45076   0.00000  Uiso   1.00
Zn983  Zn    0.83333   0.16666   0.55104   0.00000  Uiso   1.00
Zn984  Zn    0.83333   0.16667   0.44896   0.00000  Uiso   1.00
C985   C     0.17255   0.42018   0.50039   0.00000  Uiso   1.00
C986   C     0.19376   0.35654   0.54472   0.00000  Uiso   1.00
C987   C     0.18428   0.62427   0.50352   0.00000  Uiso   1.00
C988   C     0.18648   0.37661   0.50193   0.00000  Uiso   1.00
C989   C     0.18792   0.53245   0.36026   0.00000  Uiso   1.00
C990   C     0.14349   0.46811   0.63939   0.00000  Uiso   1.00
C991   C     0.18895   0.53212   0.64583   0.00000  Uiso   1.00
C992   C     0.14354   0.46813   0.35407   0.00000  Uiso   1.00
C993   C     0.33183   0.46741   0.40531   0.00000  Uiso   1.00
C994   C     0.32326   0.51189   0.38679   0.00000  Uiso   1.00
C995   C     0.32505   0.51331   0.33532   0.00000  Uiso   1.00
C996   C     0.17155   0.58015   0.50100   0.00000  Uiso   1.00
C997   C     0.33006   0.57202   0.55299   0.00000  Uiso   1.00
C998   C     0.03818   0.59844   0.53405   0.00000  Uiso   1.00
C999   C     0.03091   0.64489   0.54278   0.00000  Uiso   1.00
C1000  C     0.26699   0.62246   0.43082   0.00000  Uiso   1.00
C1001  C     0.28297   0.62637   0.38296   0.00000  Uiso   1.00
C1002  C     0.00825   0.63405   0.38510   0.00000  Uiso   1.00
C1003  C     0.25360   0.39802   0.59064   0.00000  Uiso   1.00
C1004  C     0.29159   0.37627   0.62682   0.00000  Uiso   1.00
C1005  C     0.01290   0.39556   0.63078   0.00000  Uiso   1.00
C1006  C     0.06714   0.49797   0.48821   0.00000  Uiso   1.00
C1007  C     0.26607   0.50060   0.51162   0.00000  Uiso   1.00
C1008  C     0.01227   0.49193   0.48282   0.00000  Uiso   1.00
C1009  C     0.32039   0.50735   0.51637   0.00000  Uiso   1.00
C1010  C     0.19411   0.35391   0.46206   0.00000  Uiso   1.00
C1011  C     0.18666   0.64701   0.54516   0.00000  Uiso   1.00
C1012  C     0.19729   0.64431   0.46435   0.00000  Uiso   1.00
H1013  H     0.20476   0.55821   0.38086   0.00000  Uiso   1.00
H1014  H     0.03050   0.50327   0.66079   0.00000  Uiso   1.00
H1015  H     0.31845   0.54570   0.65671   0.00000  Uiso   1.00
H1016  H     0.32762   0.58249   0.58870   0.00000  Uiso   1.00
H1017  H     0.29100   0.57781   0.53311   0.00000  Uiso   1.00
H1018  H     0.07732   0.58958   0.55114   0.00000  Uiso   1.00
H1019  H     0.03634   0.59233   0.49664   0.00000  Uiso   1.00
H1020  H     0.32369   0.65438   0.53026   0.00000  Uiso   1.00
H1021  H     0.03945   0.65181   0.58010   0.00000  Uiso   1.00
H1022  H     0.05835   0.66329   0.52490   0.00000  Uiso   1.00
H1023  H     0.16486   0.38486   0.40456   0.00000  Uiso   1.00
H1024  H     0.12484   0.44270   0.61859   0.00000  Uiso   1.00
H1025  H     0.22915   0.39638   0.42490   0.00000  Uiso   1.00
H1026  H     0.21624   0.63291   0.61041   0.00000  Uiso   1.00
H1027  H     0.15092   0.64030   0.60166   0.00000  Uiso   1.00
H1028  H     0.28183   0.59259   0.44600   0.00000  Uiso   1.00
H1029  H     0.28635   0.64859   0.45244   0.00000  Uiso   1.00
H1030  H     0.27212   0.59761   0.36252   0.00000  Uiso   1.00
H1031  H     0.26166   0.65262   0.36517   0.00000  Uiso   1.00
H1032  H     0.01932   0.66481   0.40161   0.00000  Uiso   1.00
H1033  H     0.01886   0.63400   0.34983   0.00000  Uiso   1.00
H1034  H     0.03048   0.60922   0.40486   0.00000  Uiso   1.00
H1035  H     0.20786   0.55734   0.63040   0.00000  Uiso   1.00
H1036  H     0.24920   0.43070   0.60240   0.00000  Uiso   1.00
H1037  H     0.27102   0.39973   0.55803   0.00000  Uiso   1.00
H1038  H     0.27720   0.37927   0.66050   0.00000  Uiso   1.00
H1039  H     0.29373   0.34268   0.61763   0.00000  Uiso   1.00
H1040  H     0.02821   0.39355   0.59742   0.00000  Uiso   1.00
H1041  H     0.03966   0.37866   0.65680   0.00000  Uiso   1.00
H1042  H     0.01219   0.42876   0.64154   0.00000  Uiso   1.00
H1043  H     0.12445   0.44297   0.36952   0.00000  Uiso   1.00
H1044  H     0.30435   0.44625   0.38344   0.00000  Uiso   1.00
H1045  H     0.03781   0.45552   0.40158   0.00000  Uiso   1.00
H1046  H     0.28512   0.52302   0.39432   0.00000  Uiso   1.00
H1047  H     0.01992   0.53386   0.40390   0.00000  Uiso   1.00
H1048  H     0.29411   0.49290   0.64993   0.00000  Uiso   1.00
N1049  N     0.16665   0.49999   0.61907   0.00000  Uiso   1.00
N1050  N     0.16668   0.50001   0.38093   0.00000  Uiso   1.00
N1051  N     0.20052   0.37294   0.41935   0.00000  Uiso   1.00
N1052  N     0.18214   0.62707   0.58774   0.00000  Uiso   1.00
O1053  O     0.16666   0.43892   0.53821   0.00000  Uiso   1.00
O1054  O     0.01167   0.52956   0.55443   0.00000  Uiso   1.00
O1055  O     0.21173   0.62229   0.42750   0.00000  Uiso   1.00
O1056  O     0.20371   0.37818   0.58627   0.00000  Uiso   1.00
O1057  O     0.16667   0.56108   0.46179   0.00000  Uiso   1.00
O1058  O     0.16666   0.43893   0.46176   0.00000  Uiso   1.00
O1059  O     0.16667   0.56107   0.53824   0.00000  Uiso   1.00
O1060  O     0.09058   0.50000   0.52928   0.00000  Uiso   1.00
O1061  O     0.24275   0.50000   0.47072   0.00000  Uiso   1.00
O1062  O     0.09058   0.50000   0.45284   0.00000  Uiso   1.00
O1063  O     0.24275   0.50000   0.54716   0.00000  Uiso   1.00
O1064  O     0.32042   0.46298   0.45076   0.00000  Uiso   1.00
Zn1065 Zn    0.16667   0.49999   0.55104   0.00000  Uiso   1.00
Zn1066 Zn    0.16667   0.50001   0.44896   0.00000  Uiso   1.00
C1067  C     0.50588   0.42018   0.50039   0.00000  Uiso   1.00
C1068  C     0.52709   0.35654   0.54472   0.00000  Uiso   1.00
C1069  C     0.51761   0.62427   0.50352   0.00000  Uiso   1.00
C1070  C     0.51981   0.37661   0.50193   0.00000  Uiso   1.00
C1071  C     0.52125   0.53245   0.36026   0.00000  Uiso   1.00
C1072  C     0.47682   0.46811   0.63939   0.00000  Uiso   1.00
C1073  C     0.52228   0.53212   0.64583   0.00000  Uiso   1.00
C1074  C     0.47687   0.46813   0.35407   0.00000  Uiso   1.00
C1075  C     0.66516   0.46741   0.40531   0.00000  Uiso   1.00
C1076  C     0.65659   0.51189   0.38679   0.00000  Uiso   1.00
C1077  C     0.65838   0.51331   0.33532   0.00000  Uiso   1.00
C1078  C     0.50488   0.58015   0.50100   0.00000  Uiso   1.00
C1079  C     0.66339   0.57202   0.55299   0.00000  Uiso   1.00
C1080  C     0.37151   0.59844   0.53405   0.00000  Uiso   1.00
C1081  C     0.36424   0.64489   0.54278   0.00000  Uiso   1.00
C1082  C     0.60032   0.62246   0.43082   0.00000  Uiso   1.00
C1083  C     0.61630   0.62637   0.38296   0.00000  Uiso   1.00
C1084  C     0.34158   0.63405   0.38510   0.00000  Uiso   1.00
C1085  C     0.58693   0.39802   0.59064   0.00000  Uiso   1.00
C1086  C     0.62492   0.37627   0.62682   0.00000  Uiso   1.00
C1087  C     0.34624   0.39556   0.63078   0.00000  Uiso   1.00
C1088  C     0.40047   0.49797   0.48821   0.00000  Uiso   1.00
C1089  C     0.59940   0.50060   0.51162   0.00000  Uiso   1.00
C1090  C     0.34560   0.49193   0.48282   0.00000  Uiso   1.00
C1091  C     0.65372   0.50735   0.51637   0.00000  Uiso   1.00
C1092  C     0.52744   0.35391   0.46206   0.00000  Uiso   1.00
C1093  C     0.52000   0.64701   0.54516   0.00000  Uiso   1.00
C1094  C     0.53062   0.64431   0.46435   0.00000  Uiso   1.00
H1095  H     0.53809   0.55821   0.38086   0.00000  Uiso   1.00
H1096  H     0.36384   0.50327   0.66079   0.00000  Uiso   1.00
H1097  H     0.65178   0.54570   0.65671   0.00000  Uiso   1.00
H1098  H     0.66096   0.58249   0.58870   0.00000  Uiso   1.00
H1099  H     0.62433   0.57781   0.53311   0.00000  Uiso   1.00
H1100  H     0.41066   0.58958   0.55114   0.00000  Uiso   1.00
H1101  H     0.36967   0.59233   0.49664   0.00000  Uiso   1.00
H1102  H     0.65703   0.65438   0.53026   0.00000  Uiso   1.00
H1103  H     0.37278   0.65181   0.58010   0.00000  Uiso   1.00
H1104  H     0.39168   0.66329   0.52490   0.00000  Uiso   1.00
H1105  H     0.49819   0.38486   0.40456   0.00000  Uiso   1.00
H1106  H     0.45817   0.44270   0.61859   0.00000  Uiso   1.00
H1107  H     0.56249   0.39638   0.42490   0.00000  Uiso   1.00
H1108  H     0.54958   0.63291   0.61041   0.00000  Uiso   1.00
H1109  H     0.48425   0.64030   0.60166   0.00000  Uiso   1.00
H1110  H     0.61516   0.59259   0.44600   0.00000  Uiso   1.00
H1111  H     0.61968   0.64859   0.45244   0.00000  Uiso   1.00
H1112  H     0.60545   0.59761   0.36252   0.00000  Uiso   1.00
H1113  H     0.59500   0.65262   0.36517   0.00000  Uiso   1.00
H1114  H     0.35266   0.66481   0.40161   0.00000  Uiso   1.00
H1115  H     0.35220   0.63400   0.34983   0.00000  Uiso   1.00
H1116  H     0.36381   0.60922   0.40486   0.00000  Uiso   1.00
H1117  H     0.54120   0.55734   0.63040   0.00000  Uiso   1.00
H1118  H     0.58253   0.43070   0.60240   0.00000  Uiso   1.00
H1119  H     0.60436   0.39973   0.55803   0.00000  Uiso   1.00
H1120  H     0.61053   0.37927   0.66050   0.00000  Uiso   1.00
H1121  H     0.62707   0.34268   0.61763   0.00000  Uiso   1.00
H1122  H     0.36155   0.39355   0.59742   0.00000  Uiso   1.00
H1123  H     0.37299   0.37866   0.65680   0.00000  Uiso   1.00
H1124  H     0.34552   0.42876   0.64154   0.00000  Uiso   1.00
H1125  H     0.45779   0.44297   0.36952   0.00000  Uiso   1.00
H1126  H     0.63768   0.44625   0.38344   0.00000  Uiso   1.00
H1127  H     0.37115   0.45552   0.40158   0.00000  Uiso   1.00
H1128  H     0.61846   0.52302   0.39432   0.00000  Uiso   1.00
H1129  H     0.35326   0.53386   0.40390   0.00000  Uiso   1.00
H1130  H     0.62744   0.49290   0.64993   0.00000  Uiso   1.00
N1131  N     0.49999   0.49999   0.61907   0.00000  Uiso   1.00
N1132  N     0.50001   0.50001   0.38093   0.00000  Uiso   1.00
N1133  N     0.53386   0.37294   0.41935   0.00000  Uiso   1.00
N1134  N     0.51547   0.62707   0.58774   0.00000  Uiso   1.00
O1135  O     0.50000   0.43892   0.53821   0.00000  Uiso   1.00
O1136  O     0.34500   0.52956   0.55443   0.00000  Uiso   1.00
O1137  O     0.54507   0.62229   0.42750   0.00000  Uiso   1.00
O1138  O     0.53704   0.37818   0.58627   0.00000  Uiso   1.00
O1139  O     0.50000   0.56108   0.46179   0.00000  Uiso   1.00
O1140  O     0.50000   0.43893   0.46176   0.00000  Uiso   1.00
O1141  O     0.50000   0.56107   0.53824   0.00000  Uiso   1.00
O1142  O     0.42392   0.50000   0.52928   0.00000  Uiso   1.00
O1143  O     0.57608   0.50000   0.47072   0.00000  Uiso   1.00
O1144  O     0.42392   0.50000   0.45284   0.00000  Uiso   1.00
O1145  O     0.57608   0.50000   0.54716   0.00000  Uiso   1.00
O1146  O     0.65375   0.46298   0.45076   0.00000  Uiso   1.00
Zn1147 Zn    0.50000   0.49999   0.55104   0.00000  Uiso   1.00
Zn1148 Zn    0.50000   0.50001   0.44896   0.00000  Uiso   1.00
C1149  C     0.83922   0.42018   0.50039   0.00000  Uiso   1.00
C1150  C     0.86042   0.35654   0.54472   0.00000  Uiso   1.00
C1151  C     0.85095   0.62427   0.50352   0.00000  Uiso   1.00
C1152  C     0.85315   0.37661   0.50193   0.00000  Uiso   1.00
C1153  C     0.85459   0.53245   0.36026   0.00000  Uiso   1.00
C1154  C     0.81015   0.46811   0.63939   0.00000  Uiso   1.00
C1155  C     0.85562   0.53212   0.64583   0.00000  Uiso   1.00
C1156  C     0.81021   0.46813   0.35407   0.00000  Uiso   1.00
C1157  C     0.99850   0.46741   0.40531   0.00000  Uiso   1.00
C1158  C     0.98993   0.51189   0.38679   0.00000  Uiso   1.00
C1159  C     0.99171   0.51331   0.33532   0.00000  Uiso   1.00
C1160  C     0.83822   0.58015   0.50100   0.00000  Uiso   1.00
C1161  C     0.99673   0.57202   0.55299   0.00000  Uiso   1.00
C1162  C     0.70485   0.59844   0.53405   0.00000  Uiso   1.00
C1163  C     0.69757   0.64489   0.54278   0.00000  Uiso   1.00
C1164  C     0.93365   0.62246   0.43082   0.00000  Uiso   1.00
C1165  C     0.94964   0.62637   0.38296   0.00000  Uiso   1.00
C1166  C     0.67492   0.63405   0.38510   0.00000  Uiso   1.00
C1167  C     0.92027   0.39802   0.59064   0.00000  Uiso   1.00
C1168  C     0.95826   0.37627   0.62682   0.00000  Uiso   1.00
C1169  C     0.67957   0.39556   0.63078   0.00000  Uiso   1.00
C1170  C     0.73381   0.49797   0.48821   0.00000  Uiso   1.00
C1171  C     0.93273   0.50060   0.51162   0.00000  Uiso   1.00
C1172  C     0.67894   0.49193   0.48282   0.00000  Uiso   1.00
C1173  C     0.98706   0.50735   0.51637   0.00000  Uiso   1.00
C1174  C     0.86078   0.35391   0.46206   0.00000  Uiso   1.00
C1175  C     0.85333   0.64701   0.54516   0.00000  Uiso   1.00
C1176  C     0.86396   0.64431   0.46435   0.00000  Uiso   1.00
H1177  H     0.87142   0.55821   0.38086   0.00000  Uiso   1.00
H1178  H     0.69717   0.50327   0.66079   0.00000  Uiso   1.00
H1179  H     0.98511   0.54570   0.65671   0.00000  Uiso   1.00
H1180  H     0.99429   0.58249   0.58870   0.00000  Uiso   1.00
H1181  H     0.95766   0.57781   0.53311   0.00000  Uiso   1.00
H1182  H     0.74399   0.58958   0.55114   0.00000  Uiso   1.00
H1183  H     0.70301   0.59233   0.49664   0.00000  Uiso   1.00
H1184  H     0.99036   0.65438   0.53026   0.00000  Uiso   1.00
H1185  H     0.70611   0.65181   0.58010   0.00000  Uiso   1.00
H1186  H     0.72501   0.66329   0.52490   0.00000  Uiso   1.00
H1187  H     0.83153   0.38486   0.40456   0.00000  Uiso   1.00
H1188  H     0.79150   0.44270   0.61859   0.00000  Uiso   1.00
H1189  H     0.89582   0.39638   0.42490   0.00000  Uiso   1.00
H1190  H     0.88291   0.63291   0.61041   0.00000  Uiso   1.00
H1191  H     0.81758   0.64030   0.60166   0.00000  Uiso   1.00
H1192  H     0.94850   0.59259   0.44600   0.00000  Uiso   1.00
H1193  H     0.95301   0.64859   0.45244   0.00000  Uiso   1.00
H1194  H     0.93879   0.59761   0.36252   0.00000  Uiso   1.00
H1195  H     0.92833   0.65262   0.36517   0.00000  Uiso   1.00
H1196  H     0.68599   0.66481   0.40161   0.00000  Uiso   1.00
H1197  H     0.68553   0.63400   0.34983   0.00000  Uiso   1.00
H1198  H     0.69715   0.60922   0.40486   0.00000  Uiso   1.00
H1199  H     0.87453   0.55734   0.63040   0.00000  Uiso   1.00
H1200  H     0.91586   0.43070   0.60240   0.00000  Uiso   1.00
H1201  H     0.93769   0.39973   0.55803   0.00000  Uiso   1.00
H1202  H     0.94386   0.37927   0.66050   0.00000  Uiso   1.00
H1203  H     0.96040   0.34268   0.61763   0.00000  Uiso   1.00
H1204  H     0.69488   0.39355   0.59742   0.00000  Uiso   1.00
H1205  H     0.70632   0.37866   0.65680   0.00000  Uiso   1.00
H1206  H     0.67886   0.42876   0.64154   0.00000  Uiso   1.00
H1207  H     0.79112   0.44297   0.36952   0.00000  Uiso   1.00
H1208  H     0.97102   0.44625   0.38344   0.00000  Uiso   1.00
H1209  H     0.70448   0.45552   0.40158   0.00000  Uiso   1.00
H1210  H     0.95179   0.52302   0.39432   0.00000  Uiso   1.00
H1211  H     0.68659   0.53386   0.40390   0.00000  Uiso   1.00
H1212  H     0.96078   0.49290   0.64993   0.00000  Uiso   1.00
N1213  N     0.83332   0.49999   0.61907   0.00000  Uiso   1.00
N1214  N     0.83335   0.50001   0.38093   0.00000  Uiso   1.00
N1215  N     0.86719   0.37294   0.41935   0.00000  Uiso   1.00
N1216  N     0.84880   0.62707   0.58774   0.00000  Uiso   1.00
O1217  O     0.83333   0.43892   0.53821   0.00000  Uiso   1.00
O1218  O     0.67834   0.52956   0.55443   0.00000  Uiso   1.00
O1219  O     0.87840   0.62229   0.42750   0.00000  Uiso   1.00
O1220  O     0.87038   0.37818   0.58627   0.00000  Uiso   1.00
O1221  O     0.83334   0.56108   0.46179   0.00000  Uiso   1.00
O1222  O     0.83333   0.43893   0.46176   0.00000  Uiso   1.00
O1223  O     0.83334   0.56107   0.53824   0.00000  Uiso   1.00
O1224  O     0.75725   0.50000   0.52928   0.00000  Uiso   1.00
O1225  O     0.90942   0.50000   0.47072   0.00000  Uiso   1.00
O1226  O     0.75725   0.50000   0.45284   0.00000  Uiso   1.00
O1227  O     0.90942   0.50000   0.54716   0.00000  Uiso   1.00
O1228  O     0.98709   0.46298   0.45076   0.00000  Uiso   1.00
Zn1229 Zn    0.83333   0.49999   0.55104   0.00000  Uiso   1.00
Zn1230 Zn    0.83333   0.50001   0.44896   0.00000  Uiso   1.00
C1231  C     0.17255   0.75351   0.50039   0.00000  Uiso   1.00
C1232  C     0.19376   0.68988   0.54472   0.00000  Uiso   1.00
C1233  C     0.18428   0.95761   0.50352   0.00000  Uiso   1.00
C1234  C     0.18648   0.70994   0.50193   0.00000  Uiso   1.00
C1235  C     0.18792   0.86578   0.36026   0.00000  Uiso   1.00
C1236  C     0.14349   0.80144   0.63939   0.00000  Uiso   1.00
C1237  C     0.18895   0.86545   0.64583   0.00000  Uiso   1.00
C1238  C     0.14354   0.80146   0.35407   0.00000  Uiso   1.00
C1239  C     0.33183   0.80075   0.40531   0.00000  Uiso   1.00
C1240  C     0.32326   0.84523   0.38679   0.00000  Uiso   1.00
C1241  C     0.32505   0.84664   0.33532   0.00000  Uiso   1.00
C1242  C     0.17155   0.91348   0.50100   0.00000  Uiso   1.00
C1243  C     0.33006   0.90535   0.55299   0.00000  Uiso   1.00
C1244  C     0.03818   0.93178   0.53405   0.00000  Uiso   1.00
C1245  C     0.03091   0.97822   0.54278   0.00000  Uiso   1.00
C1246  C     0.26699   0.95579   0.43082   0.00000  Uiso   1.00
C1247  C     0.28297   0.95970   0.38296   0.00000  Uiso   1.00
C1248  C     0.00825   0.96738   0.38510   0.00000  Uiso   1.00
C1249  C     0.25360   0.73136   0.59064   0.00000  Uiso   1.00
C1250  C     0.29159   0.70961   0.62682   0.00000  Uiso   1.00
C1251  C     0.01290   0.72890   0.63078   0.00000  Uiso   1.00
C1252  C     0.06714   0.83130   0.48821   0.00000  Uiso   1.00
C1253  C     0.26607   0.83394   0.51162   0.00000  Uiso   1.00
C1254  C     0.01227   0.82526   0.48282   0.00000  Uiso   1.00
C1255  C     0.32039   0.84068   0.51637   0.00000  Uiso   1.00
C1256  C     0.19411   0.68724   0.46206   0.00000  Uiso   1.00
C1257  C     0.18666   0.98035   0.54516   0.00000  Uiso   1.00
C1258  C     0.19729   0.97765   0.46435   0.00000  Uiso   1.00
H1259  H     0.20476   0.89154   0.38086   0.00000  Uiso   1.00
H1260  H     0.03050   0.83660   0.66079   0.00000  Uiso   1.00
H1261  H     0.31845   0.87903   0.65671   0.00000  Uiso   1.00
H1262  H     0.32762   0.91582   0.58870   0.00000  Uiso   1.00
H1263  H     0.29100   0.91115   0.53311   0.00000  Uiso   1.00
H1264  H     0.07732   0.92291   0.55114   0.00000  Uiso   1.00
H1265  H     0.03634   0.92566   0.49664   0.00000  Uiso   1.00
H1266  H     0.32369   0.98771   0.53026   0.00000  Uiso   1.00
H1267  H     0.03945   0.98515   0.58010   0.00000  Uiso   1.00
H1268  H     0.05835   0.99663   0.52490   0.00000  Uiso   1.00
H1269  H     0.16486   0.71819   0.40456   0.00000  Uiso   1.00
H1270  H     0.12484   0.77603   0.61859   0.00000  Uiso   1.00
H1271  H     0.22915   0.72972   0.42490   0.00000  Uiso   1.00
H1272  H     0.21624   0.96625   0.61041   0.00000  Uiso   1.00
H1273  H     0.15092   0.97363   0.60166   0.00000  Uiso   1.00
H1274  H     0.28183   0.92593   0.44600   0.00000  Uiso   1.00
H1275  H     0.28635   0.98193   0.45244   0.00000  Uiso   1.00
H1276  H     0.27212   0.93094   0.36252   0.00000  Uiso   1.00
H1277  H     0.26166   0.98596   0.36517   0.00000  Uiso   1.00
H1278  H     0.01932   0.99814   0.40161   0.00000  Uiso   1.00
H1279  H     0.01886   0.96733   0.34983   0.00000  Uiso   1.00
H1280  H     0.03048   0.94256   0.40486   0.00000  Uiso   1.00
H1281  H     0.20786   0.89067   0.63040   0.00000  Uiso   1.00
H1282  H     0.24920   0.76403   0.60240   0.00000  Uiso   1.00
H1283  H     0.27102   0.73306   0.55803   0.00000  Uiso   1.00
H1284  H     0.27720   0.71260   0.66050   0.00000  Uiso   1.00
H1285  H     0.29373   0.67602   0.61763   0.00000  Uiso   1.00
H1286  H     0.02821   0.72689   0.59742   0.00000  Uiso   1.00
H1287  H     0.03966   0.71200   0.65680   0.00000  Uiso   1.00
H1288  H     0.01219   0.76210   0.64154   0.00000  Uiso   1.00
H1289  H     0.12445   0.77631   0.36952   0.00000  Uiso   1.00
H1290  H     0.30435   0.77958   0.38344   0.00000  Uiso   1.00
H1291  H     0.03781   0.78885   0.40158   0.00000  Uiso   1.00
H1292  H     0.28512   0.85636   0.39432   0.00000  Uiso   1.00
H1293  H     0.01992   0.86720   0.40390   0.00000  Uiso   1.00
H1294  H     0.29411   0.82623   0.64993   0.00000  Uiso   1.00
N1295  N     0.16665   0.83332   0.61907   0.00000  Uiso   1.00
N1296  N     0.16668   0.83334   0.38093   0.00000  Uiso   1.00
N1297  N     0.20052   0.70627   0.41935   0.00000  Uiso   1.00
N1298  N     0.18214   0.96040   0.58774   0.00000  Uiso   1.00
O1299  O     0.16666   0.77225   0.53821   0.00000  Uiso   1.00
O1300  O     0.01167   0.86289   0.55443   0.00000  Uiso   1.00
O1301  O     0.21173   0.95563   0.42750   0.00000  Uiso   1.00
O1302  O     0.20371   0.71151   0.58627   0.00000  Uiso   1.00
O1303  O     0.16667   0.89442   0.46179   0.00000  Uiso   1.00
O1304  O     0.16666   0.77226   0.46176   0.00000  Uiso   1.00
O1305  O     0.16667   0.89441   0.53824   0.00000  Uiso   1.00
O1306  O     0.09058   0.83333   0.52928   0.00000  Uiso   1.00
O1307  O     0.24275   0.83334   0.47072   0.00000  Uiso   1.00
O1308  O     0.09058   0.83334   0.45284   0.00000  Uiso   1.00
O1309  O     0.24275   0.83333   0.54716   0.00000  Uiso   1.00
O1310  O     0.32042   0.79631   0.45076   0.00000  Uiso   1.00
Zn1311 Zn    0.16667   0.83333   0.55104   0.00000  Uiso   1.00
Zn1312 Zn    0.16667   0.83334   0.44896   0.00000  Uiso   1.00
C1313  C     0.50588   0.75351   0.50039   0.00000  Uiso   1.00
C1314  C     0.52709   0.68988   0.54472   0.00000  Uiso   1.00
C1315  C     0.51761   0.95761   0.50352   0.00000  Uiso   1.00
C1316  C     0.51981   0.70994   0.50193   0.00000  Uiso   1.00
C1317  C     0.52125   0.86578   0.36026   0.00000  Uiso   1.00
C1318  C     0.47682   0.80144   0.63939   0.00000  Uiso   1.00
C1319  C     0.52228   0.86545   0.64583   0.00000  Uiso   1.00
C1320  C     0.47687   0.80146   0.35407   0.00000  Uiso   1.00
C1321  C     0.66516   0.80075   0.40531   0.00000  Uiso   1.00
C1322  C     0.65659   0.84523   0.38679   0.00000  Uiso   1.00
C1323  C     0.65838   0.84664   0.33532   0.00000  Uiso   1.00
C1324  C     0.50488   0.91348   0.50100   0.00000  Uiso   1.00
C1325  C     0.66339   0.90535   0.55299   0.00000  Uiso   1.00
C1326  C     0.37151   0.93178   0.53405   0.00000  Uiso   1.00
C1327  C     0.36424   0.97822   0.54278   0.00000  Uiso   1.00
C1328  C     0.60032   0.95579   0.43082   0.00000  Uiso   1.00
C1329  C     0.61630   0.95970   0.38296   0.00000  Uiso   1.00
C1330  C     0.34158   0.96738   0.38510   0.00000  Uiso   1.00
C1331  C     0.58693   0.73136   0.59064   0.00000  Uiso   1.00
C1332  C     0.62492   0.70961   0.62682   0.00000  Uiso   1.00
C1333  C     0.34624   0.72890   0.63078   0.00000  Uiso   1.00
C1334  C     0.40047   0.83130   0.48821   0.00000  Uiso   1.00
C1335  C     0.59940   0.83394   0.51162   0.00000  Uiso   1.00
C1336  C     0.34560   0.82526   0.48282   0.00000  Uiso   1.00
C1337  C     0.65372   0.84068   0.51637   0.00000  Uiso   1.00
C1338  C     0.52744   0.68724   0.46206   0.00000  Uiso   1.00
C1339  C     0.52000   0.98035   0.54516   0.00000  Uiso   1.00
C1340  C     0.53062   0.97765   0.46435   0.00000  Uiso   1.00
H1341  H     0.53809   0.89154   0.38086   0.00000  Uiso   1.00
H1342  H     0.36384   0.83660   0.66079   0.00000  Uiso   1.00
H1343  H     0.65178   0.87903   0.65671   0.00000  Uiso   1.00
H1344  H     0.66096   0.91582   0.58870   0.00000  Uiso   1.00
H1345  H     0.62433   0.91115   0.53311   0.00000  Uiso   1.00
H1346  H     0.41066   0.92291   0.55114   0.00000  Uiso   1.00
H1347  H     0.36967   0.92566   0.49664   0.00000  Uiso   1.00
H1348  H     0.65703   0.98771   0.53026   0.00000  Uiso   1.00
H1349  H     0.37278   0.98515   0.58010   0.00000  Uiso   1.00
H1350  H     0.39168   0.99663   0.52490   0.00000  Uiso   1.00
H1351  H     0.49819   0.71819   0.40456   0.00000  Uiso   1.00
H1352  H     0.45817   0.77603   0.61859   0.00000  Uiso   1.00
H1353  H     0.56249   0.72972   0.42490   0.00000  Uiso   1.00
H1354  H     0.54958   0.96625   0.61041   0.00000  Uiso   1.00
H1355  H     0.48425   0.97363   0.60166   0.00000  Uiso   1.00
H1356  H     0.61516   0.92593   0.44600   0.00000  Uiso   1.00
H1357  H     0.61968   0.98193   0.45244   0.00000  Uiso   1.00
H1358  H     0.60545   0.93094   0.36252   0.00000  Uiso   1.00
H1359  H     0.59500   0.98596   0.36517   0.00000  Uiso   1.00
H1360  H     0.35266   0.99814   0.40161   0.00000  Uiso   1.00
H1361  H     0.35220   0.96733   0.34983   0.00000  Uiso   1.00
H1362  H     0.36381   0.94256   0.40486   0.00000  Uiso   1.00
H1363  H     0.54120   0.89067   0.63040   0.00000  Uiso   1.00
H1364  H     0.58253   0.76403   0.60240   0.00000  Uiso   1.00
H1365  H     0.60436   0.73306   0.55803   0.00000  Uiso   1.00
H1366  H     0.61053   0.71260   0.66050   0.00000  Uiso   1.00
H1367  H     0.62707   0.67602   0.61763   0.00000  Uiso   1.00
H1368  H     0.36155   0.72689   0.59742   0.00000  Uiso   1.00
H1369  H     0.37299   0.71200   0.65680   0.00000  Uiso   1.00
H1370  H     0.34552   0.76210   0.64154   0.00000  Uiso   1.00
H1371  H     0.45779   0.77631   0.36952   0.00000  Uiso   1.00
H1372  H     0.63768   0.77958   0.38344   0.00000  Uiso   1.00
H1373  H     0.37115   0.78885   0.40158   0.00000  Uiso   1.00
H1374  H     0.61846   0.85636   0.39432   0.00000  Uiso   1.00
H1375  H     0.35326   0.86720   0.40390   0.00000  Uiso   1.00
H1376  H     0.62744   0.82623   0.64993   0.00000  Uiso   1.00
N1377  N     0.49999   0.83332   0.61907   0.00000  Uiso   1.00
N1378  N     0.50001   0.83334   0.38093   0.00000  Uiso   1.00
N1379  N     0.53386   0.70627   0.41935   0.00000  Uiso   1.00
N1380  N     0.51547   0.96040   0.58774   0.00000  Uiso   1.00
O1381  O     0.50000   0.77225   0.53821   0.00000  Uiso   1.00
O1382  O     0.34500   0.86289   0.55443   0.00000  Uiso   1.00
O1383  O     0.54507   0.95563   0.42750   0.00000  Uiso   1.00
O1384  O     0.53704   0.71151   0.58627   0.00000  Uiso   1.00
O1385  O     0.50000   0.89442   0.46179   0.00000  Uiso   1.00
O1386  O     0.50000   0.77226   0.46176   0.00000  Uiso   1.00
O1387  O     0.50000   0.89441   0.53824   0.00000  Uiso   1.00
O1388  O     0.42392   0.83333   0.52928   0.00000  Uiso   1.00
O1389  O     0.57608   0.83334   0.47072   0.00000  Uiso   1.00
O1390  O     0.42392   0.83334   0.45284   0.00000  Uiso   1.00
O1391  O     0.57608   0.83333   0.54716   0.00000  Uiso   1.00
O1392  O     0.65375   0.79631   0.45076   0.00000  Uiso   1.00
Zn1393 Zn    0.50000   0.83333   0.55104   0.00000  Uiso   1.00
Zn1394 Zn    0.50000   0.83334   0.44896   0.00000  Uiso   1.00
C1395  C     0.83922   0.75351   0.50039   0.00000  Uiso   1.00
C1396  C     0.86042   0.68988   0.54472   0.00000  Uiso   1.00
C1397  C     0.85095   0.95761   0.50352   0.00000  Uiso   1.00
C1398  C     0.85315   0.70994   0.50193   0.00000  Uiso   1.00
C1399  C     0.85459   0.86578   0.36026   0.00000  Uiso   1.00
C1400  C     0.81015   0.80144   0.63939   0.00000  Uiso   1.00
C1401  C     0.85562   0.86545   0.64583   0.00000  Uiso   1.00
C1402  C     0.81021   0.80146   0.35407   0.00000  Uiso   1.00
C1403  C     0.99850   0.80075   0.40531   0.00000  Uiso   1.00
C1404  C     0.98993   0.84523   0.38679   0.00000  Uiso   1.00
C1405  C     0.99171   0.84664   0.33532   0.00000  Uiso   1.00
C1406  C     0.83822   0.91348   0.50100   0.00000  Uiso   1.00
C1407  C     0.99673   0.90535   0.55299   0.00000  Uiso   1.00
C1408  C     0.70485   0.93178   0.53405   0.00000  Uiso   1.00
C1409  C     0.69757   0.97822   0.54278   0.00000  Uiso   1.00
C1410  C     0.93365   0.95579   0.43082   0.00000  Uiso   1.00
C1411  C     0.94964   0.95970   0.38296   0.00000  Uiso   1.00
C1412  C     0.67492   0.96738   0.38510   0.00000  Uiso   1.00
C1413  C     0.92027   0.73136   0.59064   0.00000  Uiso   1.00
C1414  C     0.95826   0.70961   0.62682   0.00000  Uiso   1.00
C1415  C     0.67957   0.72890   0.63078   0.00000  Uiso   1.00
C1416  C     0.73381   0.83130   0.48821   0.00000  Uiso   1.00
C1417  C     0.93273   0.83394   0.51162   0.00000  Uiso   1.00
C1418  C     0.67894   0.82526   0.48282   0.00000  Uiso   1.00
C1419  C     0.98706   0.84068   0.51637   0.00000  Uiso   1.00
C1420  C     0.86078   0.68724   0.46206   0.00000  Uiso   1.00
C1421  C     0.85333   0.98035   0.54516   0.00000  Uiso   1.00
C1422  C     0.86396   0.97765   0.46435   0.00000  Uiso   1.00
H1423  H     0.87142   0.89154   0.38086   0.00000  Uiso   1.00
H1424  H     0.69717   0.83660   0.66079   0.00000  Uiso   1.00
H1425  H     0.98511   0.87903   0.65671   0.00000  Uiso   1.00
H1426  H     0.99429   0.91582   0.58870   0.00000  Uiso   1.00
H1427  H     0.95766   0.91115   0.53311   0.00000  Uiso   1.00
H1428  H     0.74399   0.92291   0.55114   0.00000  Uiso   1.00
H1429  H     0.70301   0.92566   0.49664   0.00000  Uiso   1.00
H1430  H     0.99036   0.98771   0.53026   0.00000  Uiso   1.00
H1431  H     0.70611   0.98515   0.58010   0.00000  Uiso   1.00
H1432  H     0.72501   0.99663   0.52490   0.00000  Uiso   1.00
H1433  H     0.83153   0.71819   0.40456   0.00000  Uiso   1.00
H1434  H     0.79150   0.77603   0.61859   0.00000  Uiso   1.00
H1435  H     0.89582   0.72972   0.42490   0.00000  Uiso   1.00
H1436  H     0.88291   0.96625   0.61041   0.00000  Uiso   1.00
H1437  H     0.81758   0.97363   0.60166   0.00000  Uiso   1.00
H1438  H     0.94850   0.92593   0.44600   0.00000  Uiso   1.00
H1439  H     0.95301   0.98193   0.45244   0.00000  Uiso   1.00
H1440  H     0.93879   0.93094   0.36252   0.00000  Uiso   1.00
H1441  H     0.92833   0.98596   0.36517   0.00000  Uiso   1.00
H1442  H     0.68599   0.99814   0.40161   0.00000  Uiso   1.00
H1443  H     0.68553   0.96733   0.34983   0.00000  Uiso   1.00
H1444  H     0.69715   0.94256   0.40486   0.00000  Uiso   1.00
H1445  H     0.87453   0.89067   0.63040   0.00000  Uiso   1.00
H1446  H     0.91586   0.76403   0.60240   0.00000  Uiso   1.00
H1447  H     0.93769   0.73306   0.55803   0.00000  Uiso   1.00
H1448  H     0.94386   0.71260   0.66050   0.00000  Uiso   1.00
H1449  H     0.96040   0.67602   0.61763   0.00000  Uiso   1.00
H1450  H     0.69488   0.72689   0.59742   0.00000  Uiso   1.00
H1451  H     0.70632   0.71200   0.65680   0.00000  Uiso   1.00
H1452  H     0.67886   0.76210   0.64154   0.00000  Uiso   1.00
H1453  H     0.79112   0.77631   0.36952   0.00000  Uiso   1.00
H1454  H     0.97102   0.77958   0.38344   0.00000  Uiso   1.00
H1455  H     0.70448   0.78885   0.40158   0.00000  Uiso   1.00
H1456  H     0.95179   0.85636   0.39432   0.00000  Uiso   1.00
H1457  H     0.68659   0.86720   0.40390   0.00000  Uiso   1.00
H1458  H     0.96078   0.82623   0.64993   0.00000  Uiso   1.00
N1459  N     0.83332   0.83332   0.61907   0.00000  Uiso   1.00
N1460  N     0.83335   0.83334   0.38093   0.00000  Uiso   1.00
N1461  N     0.86719   0.70627   0.41935   0.00000  Uiso   1.00
N1462  N     0.84880   0.96040   0.58774   0.00000  Uiso   1.00
O1463  O     0.83333   0.77225   0.53821   0.00000  Uiso   1.00
O1464  O     0.67834   0.86289   0.55443   0.00000  Uiso   1.00
O1465  O     0.87840   0.95563   0.42750   0.00000  Uiso   1.00
O1466  O     0.87038   0.71151   0.58627   0.00000  Uiso   1.00
O1467  O     0.83334   0.89442   0.46179   0.00000  Uiso   1.00
O1468  O     0.83333   0.77226   0.46176   0.00000  Uiso   1.00
O1469  O     0.83334   0.89441   0.53824   0.00000  Uiso   1.00
O1470  O     0.75725   0.83333   0.52928   0.00000  Uiso   1.00
O1471  O     0.90942   0.83334   0.47072   0.00000  Uiso   1.00
O1472  O     0.75725   0.83334   0.45284   0.00000  Uiso   1.00
O1473  O     0.90942   0.83333   0.54716   0.00000  Uiso   1.00
O1474  O     0.98709   0.79631   0.45076   0.00000  Uiso   1.00
Zn1475 Zn    0.83333   0.83333   0.55104   0.00000  Uiso   1.00
Zn1476 Zn    0.83333   0.83334   0.44896   0.00000  Uiso   1.00
C1477  C     0.17255   0.08685   0.83373   0.00000  Uiso   1.00
C1478  C     0.19376   0.02321   0.87805   0.00000  Uiso   1.00
C1479  C     0.18428   0.29094   0.83685   0.00000  Uiso   1.00
C1480  C     0.18648   0.04328   0.83527   0.00000  Uiso   1.00
C1481  C     0.18792   0.19912   0.69360   0.00000  Uiso   1.00
C1482  C     0.14349   0.13478   0.97272   0.00000  Uiso   1.00
C1483  C     0.18895   0.19878   0.97916   0.00000  Uiso   1.00
C1484  C     0.14354   0.13479   0.68740   0.00000  Uiso   1.00
C1485  C     0.33183   0.13408   0.73864   0.00000  Uiso   1.00
C1486  C     0.32326   0.17856   0.72012   0.00000  Uiso   1.00
C1487  C     0.32505   0.17998   0.66865   0.00000  Uiso   1.00
C1488  C     0.17155   0.24681   0.83434   0.00000  Uiso   1.00
C1489  C     0.33006   0.23869   0.88633   0.00000  Uiso   1.00
C1490  C     0.03818   0.26511   0.86738   0.00000  Uiso   1.00
C1491  C     0.03091   0.31155   0.87612   0.00000  Uiso   1.00
C1492  C     0.26699   0.28913   0.76416   0.00000  Uiso   1.00
C1493  C     0.28297   0.29304   0.71629   0.00000  Uiso   1.00
C1494  C     0.00825   0.30072   0.71843   0.00000  Uiso   1.00
C1495  C     0.25360   0.06469   0.92397   0.00000  Uiso   1.00
C1496  C     0.29159   0.04294   0.96016   0.00000  Uiso   1.00
C1497  C     0.01290   0.06223   0.96412   0.00000  Uiso   1.00
C1498  C     0.06714   0.16463   0.82154   0.00000  Uiso   1.00
C1499  C     0.26607   0.16727   0.84496   0.00000  Uiso   1.00
C1500  C     0.01227   0.15859   0.81615   0.00000  Uiso   1.00
C1501  C     0.32039   0.17401   0.84970   0.00000  Uiso   1.00
C1502  C     0.19411   0.02058   0.79539   0.00000  Uiso   1.00
C1503  C     0.18666   0.31368   0.87849   0.00000  Uiso   1.00
C1504  C     0.19729   0.31098   0.79769   0.00000  Uiso   1.00
H1505  H     0.20476   0.22488   0.71420   0.00000  Uiso   1.00
H1506  H     0.03050   0.16993   0.99413   0.00000  Uiso   1.00
H1507  H     0.31845   0.21237   0.99004   0.00000  Uiso   1.00
H1508  H     0.32762   0.24915   0.92203   0.00000  Uiso   1.00
H1509  H     0.29100   0.24448   0.86644   0.00000  Uiso   1.00
H1510  H     0.07732   0.25624   0.88447   0.00000  Uiso   1.00
H1511  H     0.03634   0.25899   0.82998   0.00000  Uiso   1.00
H1512  H     0.32369   0.32104   0.86360   0.00000  Uiso   1.00
H1513  H     0.03945   0.31848   0.91343   0.00000  Uiso   1.00
H1514  H     0.05835   0.32996   0.85823   0.00000  Uiso   1.00
H1515  H     0.16486   0.05153   0.73790   0.00000  Uiso   1.00
H1516  H     0.12484   0.10936   0.95193   0.00000  Uiso   1.00
H1517  H     0.22915   0.06305   0.75823   0.00000  Uiso   1.00
H1518  H     0.21624   0.29958   0.94375   0.00000  Uiso   1.00
H1519  H     0.15092   0.30696   0.93500   0.00000  Uiso   1.00
H1520  H     0.28183   0.25926   0.77934   0.00000  Uiso   1.00
H1521  H     0.28635   0.31526   0.78578   0.00000  Uiso   1.00
H1522  H     0.27212   0.26427   0.69585   0.00000  Uiso   1.00
H1523  H     0.26166   0.31929   0.69851   0.00000  Uiso   1.00
H1524  H     0.01932   0.33148   0.73495   0.00000  Uiso   1.00
H1525  H     0.01886   0.30067   0.68316   0.00000  Uiso   1.00
H1526  H     0.03048   0.27589   0.73819   0.00000  Uiso   1.00
H1527  H     0.20786   0.22400   0.96374   0.00000  Uiso   1.00
H1528  H     0.24920   0.09736   0.93574   0.00000  Uiso   1.00
H1529  H     0.27102   0.06639   0.89137   0.00000  Uiso   1.00
H1530  H     0.27720   0.04593   0.99384   0.00000  Uiso   1.00
H1531  H     0.29373   0.00935   0.95096   0.00000  Uiso   1.00
H1532  H     0.02821   0.06022   0.93075   0.00000  Uiso   1.00
H1533  H     0.03966   0.04533   0.99014   0.00000  Uiso   1.00
H1534  H     0.01219   0.09543   0.97487   0.00000  Uiso   1.00
H1535  H     0.12445   0.10964   0.70286   0.00000  Uiso   1.00
H1536  H     0.30435   0.11292   0.71677   0.00000  Uiso   1.00
H1537  H     0.03781   0.12218   0.73491   0.00000  Uiso   1.00
H1538  H     0.28512   0.18969   0.72766   0.00000  Uiso   1.00
H1539  H     0.01992   0.20053   0.73723   0.00000  Uiso   1.00
H1540  H     0.29411   0.15957   0.98326   0.00000  Uiso   1.00
N1541  N     0.16665   0.16666   0.95240   0.00000  Uiso   1.00
N1542  N     0.16668   0.16668   0.71427   0.00000  Uiso   1.00
N1543  N     0.20052   0.03961   0.75268   0.00000  Uiso   1.00
N1544  N     0.18214   0.29373   0.92108   0.00000  Uiso   1.00
O1545  O     0.16666   0.10558   0.87154   0.00000  Uiso   1.00
O1546  O     0.01167   0.19622   0.88776   0.00000  Uiso   1.00
O1547  O     0.21173   0.28896   0.76083   0.00000  Uiso   1.00
O1548  O     0.20371   0.04485   0.91960   0.00000  Uiso   1.00
O1549  O     0.16667   0.22775   0.79513   0.00000  Uiso   1.00
O1550  O     0.16666   0.10559   0.79510   0.00000  Uiso   1.00
O1551  O     0.16667   0.22774   0.87157   0.00000  Uiso   1.00
O1552  O     0.09058   0.16666   0.86261   0.00000  Uiso   1.00
O1553  O     0.24275   0.16667   0.80405   0.00000  Uiso   1.00
O1554  O     0.09058   0.16667   0.78617   0.00000  Uiso   1.00
O1555  O     0.24275   0.16666   0.88050   0.00000  Uiso   1.00
O1556  O     0.32042   0.12965   0.78410   0.00000  Uiso   1.00
Zn1557 Zn    0.16667   0.16666   0.88437   0.00000  Uiso   1.00
Zn1558 Zn    0.16667   0.16667   0.78229   0.00000  Uiso   1.00
C1559  C     0.50588   0.08685   0.83373   0.00000  Uiso   1.00
C1560  C     0.52709   0.02321   0.87805   0.00000  Uiso   1.00
C1561  C     0.51761   0.29094   0.83685   0.00000  Uiso   1.00
C1562  C     0.51981   0.04328   0.83527   0.00000  Uiso   1.00
C1563  C     0.52125   0.19912   0.69360   0.00000  Uiso   1.00
C1564  C     0.47682   0.13478   0.97272   0.00000  Uiso   1.00
C1565  C     0.52228   0.19878   0.97916   0.00000  Uiso   1.00
C1566  C     0.47687   0.13479   0.68740   0.00000  Uiso   1.00
C1567  C     0.66516   0.13408   0.73864   0.00000  Uiso   1.00
C1568  C     0.65659   0.17856   0.72012   0.00000  Uiso   1.00
C1569  C     0.65838   0.17998   0.66865   0.00000  Uiso   1.00
C1570  C     0.50488   0.24681   0.83434   0.00000  Uiso   1.00
C1571  C     0.66339   0.23869   0.88633   0.00000  Uiso   1.00
C1572  C     0.37151   0.26511   0.86738   0.00000  Uiso   1.00
C1573  C     0.36424   0.31155   0.87612   0.00000  Uiso   1.00
C1574  C     0.60032   0.28913   0.76416   0.00000  Uiso   1.00
C1575  C     0.61630   0.29304   0.71629   0.00000  Uiso   1.00
C1576  C     0.34158   0.30072   0.71843   0.00000  Uiso   1.00
C1577  C     0.58693   0.06469   0.92397   0.00000  Uiso   1.00
C1578  C     0.62492   0.04294   0.96016   0.00000  Uiso   1.00
C1579  C     0.34624   0.06223   0.96412   0.00000  Uiso   1.00
C1580  C     0.40047   0.16463   0.82154   0.00000  Uiso   1.00
C1581  C     0.59940   0.16727   0.84496   0.00000  Uiso   1.00
C1582  C     0.34560   0.15859   0.81615   0.00000  Uiso   1.00
C1583  C     0.65372   0.17401   0.84970   0.00000  Uiso   1.00
C1584  C     0.52744   0.02058   0.79539   0.00000  Uiso   1.00
C1585  C     0.52000   0.31368   0.87849   0.00000  Uiso   1.00
C1586  C     0.53062   0.31098   0.79769   0.00000  Uiso   1.00
H1587  H     0.53809   0.22488   0.71420   0.00000  Uiso   1.00
H1588  H     0.36384   0.16993   0.99413   0.00000  Uiso   1.00
H1589  H     0.65178   0.21237   0.99004   0.00000  Uiso   1.00
H1590  H     0.66096   0.24915   0.92203   0.00000  Uiso   1.00
H1591  H     0.62433   0.24448   0.86644   0.00000  Uiso   1.00
H1592  H     0.41066   0.25624   0.88447   0.00000  Uiso   1.00
H1593  H     0.36967   0.25899   0.82998   0.00000  Uiso   1.00
H1594  H     0.65703   0.32104   0.86360   0.00000  Uiso   1.00
H1595  H     0.37278   0.31848   0.91343   0.00000  Uiso   1.00
H1596  H     0.39168   0.32996   0.85823   0.00000  Uiso   1.00
H1597  H     0.49819   0.05153   0.73790   0.00000  Uiso   1.00
H1598  H     0.45817   0.10936   0.95193   0.00000  Uiso   1.00
H1599  H     0.56249   0.06305   0.75823   0.00000  Uiso   1.00
H1600  H     0.54958   0.29958   0.94375   0.00000  Uiso   1.00
H1601  H     0.48425   0.30696   0.93500   0.00000  Uiso   1.00
H1602  H     0.61516   0.25926   0.77934   0.00000  Uiso   1.00
H1603  H     0.61968   0.31526   0.78578   0.00000  Uiso   1.00
H1604  H     0.60545   0.26427   0.69585   0.00000  Uiso   1.00
H1605  H     0.59500   0.31929   0.69851   0.00000  Uiso   1.00
H1606  H     0.35266   0.33148   0.73495   0.00000  Uiso   1.00
H1607  H     0.35220   0.30067   0.68316   0.00000  Uiso   1.00
H1608  H     0.36381   0.27589   0.73819   0.00000  Uiso   1.00
H1609  H     0.54120   0.22400   0.96374   0.00000  Uiso   1.00
H1610  H     0.58253   0.09736   0.93574   0.00000  Uiso   1.00
H1611  H     0.60436   0.06639   0.89137   0.00000  Uiso   1.00
H1612  H     0.61053   0.04593   0.99384   0.00000  Uiso   1.00
H1613  H     0.62707   0.00935   0.95096   0.00000  Uiso   1.00
H1614  H     0.36155   0.06022   0.93075   0.00000  Uiso   1.00
H1615  H     0.37299   0.04533   0.99014   0.00000  Uiso   1.00
H1616  H     0.34552   0.09543   0.97487   0.00000  Uiso   1.00
H1617  H     0.45779   0.10964   0.70286   0.00000  Uiso   1.00
H1618  H     0.63768   0.11292   0.71677   0.00000  Uiso   1.00
H1619  H     0.37115   0.12218   0.73491   0.00000  Uiso   1.00
H1620  H     0.61846   0.18969   0.72766   0.00000  Uiso   1.00
H1621  H     0.35326   0.20053   0.73723   0.00000  Uiso   1.00
H1622  H     0.62744   0.15957   0.98326   0.00000  Uiso   1.00
N1623  N     0.49999   0.16666   0.95240   0.00000  Uiso   1.00
N1624  N     0.50001   0.16668   0.71427   0.00000  Uiso   1.00
N1625  N     0.53386   0.03961   0.75268   0.00000  Uiso   1.00
N1626  N     0.51547   0.29373   0.92108   0.00000  Uiso   1.00
O1627  O     0.50000   0.10558   0.87154   0.00000  Uiso   1.00
O1628  O     0.34500   0.19622   0.88776   0.00000  Uiso   1.00
O1629  O     0.54507   0.28896   0.76083   0.00000  Uiso   1.00
O1630  O     0.53704   0.04485   0.91960   0.00000  Uiso   1.00
O1631  O     0.50000   0.22775   0.79513   0.00000  Uiso   1.00
O1632  O     0.50000   0.10559   0.79510   0.00000  Uiso   1.00
O1633  O     0.50000   0.22774   0.87157   0.00000  Uiso   1.00
O1634  O     0.42392   0.16666   0.86261   0.00000  Uiso   1.00
O1635  O     0.57608   0.16667   0.80405   0.00000  Uiso   1.00
O1636  O     0.42392   0.16667   0.78617   0.00000  Uiso   1.00
O1637  O     0.57608   0.16666   0.88050   0.00000  Uiso   1.00
O1638  O     0.65375   0.12965   0.78410   0.00000  Uiso   1.00
Zn1639 Zn    0.50000   0.16666   0.88437   0.00000  Uiso   1.00
Zn1640 Zn    0.50000   0.16667   0.78229   0.00000  Uiso   1.00
C1641  C     0.83922   0.08685   0.83373   0.00000  Uiso   1.00
C1642  C     0.86042   0.02321   0.87805   0.00000  Uiso   1.00
C1643  C     0.85095   0.29094   0.83685   0.00000  Uiso   1.00
C1644  C     0.85315   0.04328   0.83527   0.00000  Uiso   1.00
C1645  C     0.85459   0.19912   0.69360   0.00000  Uiso   1.00
C1646  C     0.81015   0.13478   0.97272   0.00000  Uiso   1.00
C1647  C     0.85562   0.19878   0.97916   0.00000  Uiso   1.00
C1648  C     0.81021   0.13479   0.68740   0.00000  Uiso   1.00
C1649  C     0.99850   0.13408   0.73864   0.00000  Uiso   1.00
C1650  C     0.98993   0.17856   0.72012   0.00000  Uiso   1.00
C1651  C     0.99171   0.17998   0.66865   0.00000  Uiso   1.00
C1652  C     0.83822   0.24681   0.83434   0.00000  Uiso   1.00
C1653  C     0.99673   0.23869   0.88633   0.00000  Uiso   1.00
C1654  C     0.70485   0.26511   0.86738   0.00000  Uiso   1.00
C1655  C     0.69757   0.31155   0.87612   0.00000  Uiso   1.00
C1656  C     0.93365   0.28913   0.76416   0.00000  Uiso   1.00
C1657  C     0.94964   0.29304   0.71629   0.00000  Uiso   1.00
C1658  C     0.67492   0.30072   0.71843   0.00000  Uiso   1.00
C1659  C     0.92027   0.06469   0.92397   0.00000  Uiso   1.00
C1660  C     0.95826   0.04294   0.96016   0.00000  Uiso   1.00
C1661  C     0.67957   0.06223   0.96412   0.00000  Uiso   1.00
C1662  C     0.73381   0.16463   0.82154   0.00000  Uiso   1.00
C1663  C     0.93273   0.16727   0.84496   0.00000  Uiso   1.00
C1664  C     0.67894   0.15859   0.81615   0.00000  Uiso   1.00
C1665  C     0.98706   0.17401   0.84970   0.00000  Uiso   1.00
C1666  C     0.86078   0.02058   0.79539   0.00000  Uiso   1.00
C1667  C     0.85333   0.31368   0.87849   0.00000  Uiso   1.00
C1668  C     0.86396   0.31098   0.79769   0.00000  Uiso   1.00
H1669  H     0.87142   0.22488   0.71420   0.00000  Uiso   1.00
H1670  H     0.69717   0.16993   0.99413   0.00000  Uiso   1.00
H1671  H     0.98511   0.21237   0.99004   0.00000  Uiso   1.00
H1672  H     0.99429   0.24915   0.92203   0.00000  Uiso   1.00
H1673  H     0.95766   0.24448   0.86644   0.00000  Uiso   1.00
H1674  H     0.74399   0.25624   0.88447   0.00000  Uiso   1.00
H1675  H     0.70301   0.25899   0.82998   0.00000  Uiso   1.00
H1676  H     0.99036   0.32104   0.86360   0.00000  Uiso   1.00
H1677  H     0.70611   0.31848   0.91343   0.00000  Uiso   1.00
H1678  H     0.72501   0.32996   0.85823   0.00000  Uiso   1.00
H1679  H     0.83153   0.05153   0.73790   0.00000  Uiso   1.00
H1680  H     0.79150   0.10936   0.95193   0.00000  Uiso   1.00
H1681  H     0.89582   0.06305   0.75823   0.00000  Uiso   1.00
H1682  H     0.88291   0.29958   0.94375   0.00000  Uiso   1.00
H1683  H     0.81758   0.30696   0.93500   0.00000  Uiso   1.00
H1684  H     0.94850   0.25926   0.77934   0.00000  Uiso   1.00
H1685  H     0.95301   0.31526   0.78578   0.00000  Uiso   1.00
H1686  H     0.93879   0.26427   0.69585   0.00000  Uiso   1.00
H1687  H     0.92833   0.31929   0.69851   0.00000  Uiso   1.00
H1688  H     0.68599   0.33148   0.73495   0.00000  Uiso   1.00
H1689  H     0.68553   0.30067   0.68316   0.00000  Uiso   1.00
H1690  H     0.69715   0.27589   0.73819   0.00000  Uiso   1.00
H1691  H     0.87453   0.22400   0.96374   0.00000  Uiso   1.00
H1692  H     0.91586   0.09736   0.93574   0.00000  Uiso   1.00
H1693  H     0.93769   0.06639   0.89137   0.00000  Uiso   1.00
H1694  H     0.94386   0.04593   0.99384   0.00000  Uiso   1.00
H1695  H     0.96040   0.00935   0.95096   0.00000  Uiso   1.00
H1696  H     0.69488   0.06022   0.93075   0.00000  Uiso   1.00
H1697  H     0.70632   0.04533   0.99014   0.00000  Uiso   1.00
H1698  H     0.67886   0.09543   0.97487   0.00000  Uiso   1.00
H1699  H     0.79112   0.10964   0.70286   0.00000  Uiso   1.00
H1700  H     0.97102   0.11292   0.71677   0.00000  Uiso   1.00
H1701  H     0.70448   0.12218   0.73491   0.00000  Uiso   1.00
H1702  H     0.95179   0.18969   0.72766   0.00000  Uiso   1.00
H1703  H     0.68659   0.20053   0.73723   0.00000  Uiso   1.00
H1704  H     0.96078   0.15957   0.98326   0.00000  Uiso   1.00
N1705  N     0.83332   0.16666   0.95240   0.00000  Uiso   1.00
N1706  N     0.83335   0.16668   0.71427   0.00000  Uiso   1.00
N1707  N     0.86719   0.03961   0.75268   0.00000  Uiso   1.00
N1708  N     0.84880   0.29373   0.92108   0.00000  Uiso   1.00
O1709  O     0.83333   0.10558   0.87154   0.00000  Uiso   1.00
O1710  O     0.67834   0.19622   0.88776   0.00000  Uiso   1.00
O1711  O     0.87840   0.28896   0.76083   0.00000  Uiso   1.00
O1712  O     0.87038   0.04485   0.91960   0.00000  Uiso   1.00
O1713  O     0.83334   0.22775   0.79513   0.00000  Uiso   1.00
O1714  O     0.83333   0.10559   0.79510   0.00000  Uiso   1.00
O1715  O     0.83334   0.22774   0.87157   0.00000  Uiso   1.00
O1716  O     0.75725   0.16666   0.86261   0.00000  Uiso   1.00
O1717  O     0.90942   0.16667   0.80405   0.00000  Uiso   1.00
O1718  O     0.75725   0.16667   0.78617   0.00000  Uiso   1.00
O1719  O     0.90942   0.16666   0.88050   0.00000  Uiso   1.00
O1720  O     0.98709   0.12965   0.78410   0.00000  Uiso   1.00
Zn1721 Zn    0.83333   0.16666   0.88437   0.00000  Uiso   1.00
Zn1722 Zn    0.83333   0.16667   0.78229   0.00000  Uiso   1.00
C1723  C     0.17255   0.42018   0.83373   0.00000  Uiso   1.00
C1724  C     0.19376   0.35654   0.87805   0.00000  Uiso   1.00
C1725  C     0.18428   0.62427   0.83685   0.00000  Uiso   1.00
C1726  C     0.18648   0.37661   0.83527   0.00000  Uiso   1.00
C1727  C     0.18792   0.53245   0.69360   0.00000  Uiso   1.00
C1728  C     0.14349   0.46811   0.97272   0.00000  Uiso   1.00
C1729  C     0.18895   0.53212   0.97916   0.00000  Uiso   1.00
C1730  C     0.14354   0.46813   0.68740   0.00000  Uiso   1.00
C1731  C     0.33183   0.46741   0.73864   0.00000  Uiso   1.00
C1732  C     0.32326   0.51189   0.72012   0.00000  Uiso   1.00
C1733  C     0.32505   0.51331   0.66865   0.00000  Uiso   1.00
C1734  C     0.17155   0.58015   0.83434   0.00000  Uiso   1.00
C1735  C     0.33006   0.57202   0.88633   0.00000  Uiso   1.00
C1736  C     0.03818   0.59844   0.86738   0.00000  Uiso   1.00
C1737  C     0.03091   0.64489   0.87612   0.00000  Uiso   1.00
C1738  C     0.26699   0.62246   0.76416   0.00000  Uiso   1.00
C1739  C     0.28297   0.62637   0.71629   0.00000  Uiso   1.00
C1740  C     0.00825   0.63405   0.71843   0.00000  Uiso   1.00
C1741  C     0.25360   0.39802   0.92397   0.00000  Uiso   1.00
C1742  C     0.29159   0.37627   0.96016   0.00000  Uiso   1.00
C1743  C     0.01290   0.39556   0.96412   0.00000  Uiso   1.00
C1744  C     0.06714   0.49797   0.82154   0.00000  Uiso   1.00
C1745  C     0.26607   0.50060   0.84496   0.00000  Uiso   1.00
C1746  C     0.01227   0.49193   0.81615   0.00000  Uiso   1.00
C1747  C     0.32039   0.50735   0.84970   0.00000  Uiso   1.00
C1748  C     0.19411   0.35391   0.79539   0.00000  Uiso   1.00
C1749  C     0.18666   0.64701   0.87849   0.00000  Uiso   1.00
C1750  C     0.19729   0.64431   0.79769   0.00000  Uiso   1.00
H1751  H     0.20476   0.55821   0.71420   0.00000  Uiso   1.00
H1752  H     0.03050   0.50327   0.99413   0.00000  Uiso   1.00
H1753  H     0.31845   0.54570   0.99004   0.00000  Uiso   1.00
H1754  H     0.32762   0.58249   0.92203   0.00000  Uiso   1.00
H1755  H     0.29100   0.57781   0.86644   0.00000  Uiso   1.00
H1756  H     0.07732   0.58958   0.88447   0.00000  Uiso   1.00
H1757  H     0.03634   0.59233   0.82998   0.00000  Uiso   1.00
H1758  H     0.32369   0.65438   0.86360   0.00000  Uiso   1.00
H1759  H     0.03945   0.65181   0.91343   0.00000  Uiso   1.00
H1760  H     0.05835   0.66329   0.85823   0.00000  Uiso   1.00
H1761  H     0.16486   0.38486   0.73790   0.00000  Uiso   1.00
H1762  H     0.12484   0.44270   0.95193   0.00000  Uiso   1.00
H1763  H     0.22915   0.39638   0.75823   0.00000  Uiso   1.00
H1764  H     0.21624   0.63291   0.94375   0.00000  Uiso   1.00
H1765  H     0.15092   0.64030   0.93500   0.00000  Uiso   1.00
H1766  H     0.28183   0.59259   0.77934   0.00000  Uiso   1.00
H1767  H     0.28635   0.64859   0.78578   0.00000  Uiso   1.00
H1768  H     0.27212   0.59761   0.69585   0.00000  Uiso   1.00
H1769  H     0.26166   0.65262   0.69851   0.00000  Uiso   1.00
H1770  H     0.01932   0.66481   0.73495   0.00000  Uiso   1.00
H1771  H     0.01886   0.63400   0.68316   0.00000  Uiso   1.00
H1772  H     0.03048   0.60922   0.73819   0.00000  Uiso   1.00
H1773  H     0.20786   0.55734   0.96374   0.00000  Uiso   1.00
H1774  H     0.24920   0.43070   0.93574   0.00000  Uiso   1.00
H1775  H     0.27102   0.39973   0.89137   0.00000  Uiso   1.00
H1776  H     0.27720   0.37927   0.99384   0.00000  Uiso   1.00
H1777  H     0.29373   0.34268   0.95096   0.00000  Uiso   1.00
H1778  H     0.02821   0.39355   0.93075   0.00000  Uiso   1.00
H1779  H     0.03966   0.37866   0.99014   0.00000  Uiso   1.00
H1780  H     0.01219   0.42876   0.97487   0.00000  Uiso   1.00
H1781  H     0.12445   0.44297   0.70286   0.00000  Uiso   1.00
H1782  H     0.30435   0.44625   0.71677   0.00000  Uiso   1.00
H1783  H     0.03781   0.45552   0.73491   0.00000  Uiso   1.00
H1784  H     0.28512   0.52302   0.72766   0.00000  Uiso   1.00
H1785  H     0.01992   0.53386   0.73723   0.00000  Uiso   1.00
H1786  H     0.29411   0.49290   0.98326   0.00000  Uiso   1.00
N1787  N     0.16665   0.49999   0.95240   0.00000  Uiso   1.00
N1788  N     0.16668   0.50001   0.71427   0.00000  Uiso   1.00
N1789  N     0.20052   0.37294   0.75268   0.00000  Uiso   1.00
N1790  N     0.18214   0.62707   0.92108   0.00000  Uiso   1.00
O1791  O     0.16666   0.43892   0.87154   0.00000  Uiso   1.00
O1792  O     0.01167   0.52956   0.88776   0.00000  Uiso   1.00
O1793  O     0.21173   0.62229   0.76083   0.00000  Uiso   1.00
O1794  O     0.20371   0.37818   0.91960   0.00000  Uiso   1.00
O1795  O     0.16667   0.56108   0.79513   0.00000  Uiso   1.00
O1796  O     0.16666   0.43893   0.79510   0.00000  Uiso   1.00
O1797  O     0.16667   0.56107   0.87157   0.00000  Uiso   1.00
O1798  O     0.09058   0.50000   0.86261   0.00000  Uiso   1.00
O1799  O     0.24275   0.50000   0.80405   0.00000  Uiso   1.00
O1800  O     0.09058   0.50000   0.78617   0.00000  Uiso   1.00
O1801  O     0.24275   0.50000   0.88050   0.00000  Uiso   1.00
O1802  O     0.32042   0.46298   0.78410   0.00000  Uiso   1.00
Zn1803 Zn    0.16667   0.49999   0.88437   0.00000  Uiso   1.00
Zn1804 Zn    0.16667   0.50001   0.78229   0.00000  Uiso   1.00
C1805  C     0.50588   0.42018   0.83373   0.00000  Uiso   1.00
C1806  C     0.52709   0.35654   0.87805   0.00000  Uiso   1.00
C1807  C     0.51761   0.62427   0.83685   0.00000  Uiso   1.00
C1808  C     0.51981   0.37661   0.83527   0.00000  Uiso   1.00
C1809  C     0.52125   0.53245   0.69360   0.00000  Uiso   1.00
C1810  C     0.47682   0.46811   0.97272   0.00000  Uiso   1.00
C1811  C     0.52228   0.53212   0.97916   0.00000  Uiso   1.00
C1812  C     0.47687   0.46813   0.68740   0.00000  Uiso   1.00
C1813  C     0.66516   0.46741   0.73864   0.00000  Uiso   1.00
C1814  C     0.65659   0.51189   0.72012   0.00000  Uiso   1.00
C1815  C     0.65838   0.51331   0.66865   0.00000  Uiso   1.00
C1816  C     0.50488   0.58015   0.83434   0.00000  Uiso   1.00
C1817  C     0.66339   0.57202   0.88633   0.00000  Uiso   1.00
C1818  C     0.37151   0.59844   0.86738   0.00000  Uiso   1.00
C1819  C     0.36424   0.64489   0.87612   0.00000  Uiso   1.00
C1820  C     0.60032   0.62246   0.76416   0.00000  Uiso   1.00
C1821  C     0.61630   0.62637   0.71629   0.00000  Uiso   1.00
C1822  C     0.34158   0.63405   0.71843   0.00000  Uiso   1.00
C1823  C     0.58693   0.39802   0.92397   0.00000  Uiso   1.00
C1824  C     0.62492   0.37627   0.96016   0.00000  Uiso   1.00
C1825  C     0.34624   0.39556   0.96412   0.00000  Uiso   1.00
C1826  C     0.40047   0.49797   0.82154   0.00000  Uiso   1.00
C1827  C     0.59940   0.50060   0.84496   0.00000  Uiso   1.00
C1828  C     0.34560   0.49193   0.81615   0.00000  Uiso   1.00
C1829  C     0.65372   0.50735   0.84970   0.00000  Uiso   1.00
C1830  C     0.52744   0.35391   0.79539   0.00000  Uiso   1.00
C1831  C     0.52000   0.64701   0.87849   0.00000  Uiso   1.00
C1832  C     0.53062   0.64431   0.79769   0.00000  Uiso   1.00
H1833  H     0.53809   0.55821   0.71420   0.00000  Uiso   1.00
H1834  H     0.36384   0.50327   0.99413   0.00000  Uiso   1.00
H1835  H     0.65178   0.54570   0.99004   0.00000  Uiso   1.00
H1836  H     0.66096   0.58249   0.92203   0.00000  Uiso   1.00
H1837  H     0.62433   0.57781   0.86644   0.00000  Uiso   1.00
H1838  H     0.41066   0.58958   0.88447   0.00000  Uiso   1.00
H1839  H     0.36967   0.59233   0.82998   0.00000  Uiso   1.00
H1840  H     0.65703   0.65438   0.86360   0.00000  Uiso   1.00
H1841  H     0.37278   0.65181   0.91343   0.00000  Uiso   1.00
H1842  H     0.39168   0.66329   0.85823   0.00000  Uiso   1.00
H1843  H     0.49819   0.38486   0.73790   0.00000  Uiso   1.00
H1844  H     0.45817   0.44270   0.95193   0.00000  Uiso   1.00
H1845  H     0.56249   0.39638   0.75823   0.00000  Uiso   1.00
H1846  H     0.54958   0.63291   0.94375   0.00000  Uiso   1.00
H1847  H     0.48425   0.64030   0.93500   0.00000  Uiso   1.00
H1848  H     0.61516   0.59259   0.77934   0.00000  Uiso   1.00
H1849  H     0.61968   0.64859   0.78578   0.00000  Uiso   1.00
H1850  H     0.60545   0.59761   0.69585   0.00000  Uiso   1.00
H1851  H     0.59500   0.65262   0.69851   0.00000  Uiso   1.00
H1852  H     0.35266   0.66481   0.73495   0.00000  Uiso   1.00
H1853  H     0.35220   0.63400   0.68316   0.00000  Uiso   1.00
H1854  H     0.36381   0.60922   0.73819   0.00000  Uiso   1.00
H1855  H     0.54120   0.55734   0.96374   0.00000  Uiso   1.00
H1856  H     0.58253   0.43070   0.93574   0.00000  Uiso   1.00
H1857  H     0.60436   0.39973   0.89137   0.00000  Uiso   1.00
H1858  H     0.61053   0.37927   0.99384   0.00000  Uiso   1.00
H1859  H     0.62707   0.34268   0.95096   0.00000  Uiso   1.00
H1860  H     0.36155   0.39355   0.93075   0.00000  Uiso   1.00
H1861  H     0.37299   0.37866   0.99014   0.00000  Uiso   1.00
H1862  H     0.34552   0.42876   0.97487   0.00000  Uiso   1.00
H1863  H     0.45779   0.44297   0.70286   0.00000  Uiso   1.00
H1864  H     0.63768   0.44625   0.71677   0.00000  Uiso   1.00
H1865  H     0.37115   0.45552   0.73491   0.00000  Uiso   1.00
H1866  H     0.61846   0.52302   0.72766   0.00000  Uiso   1.00
H1867  H     0.35326   0.53386   0.73723   0.00000  Uiso   1.00
H1868  H     0.62744   0.49290   0.98326   0.00000  Uiso   1.00
N1869  N     0.49999   0.49999   0.95240   0.00000  Uiso   1.00
N1870  N     0.50001   0.50001   0.71427   0.00000  Uiso   1.00
N1871  N     0.53386   0.37294   0.75268   0.00000  Uiso   1.00
N1872  N     0.51547   0.62707   0.92108   0.00000  Uiso   1.00
O1873  O     0.50000   0.43892   0.87154   0.00000  Uiso   1.00
O1874  O     0.34500   0.52956   0.88776   0.00000  Uiso   1.00
O1875  O     0.54507   0.62229   0.76083   0.00000  Uiso   1.00
O1876  O     0.53704   0.37818   0.91960   0.00000  Uiso   1.00
O1877  O     0.50000   0.56108   0.79513   0.00000  Uiso   1.00
O1878  O     0.50000   0.43893   0.79510   0.00000  Uiso   1.00
O1879  O     0.50000   0.56107   0.87157   0.00000  Uiso   1.00
O1880  O     0.42392   0.50000   0.86261   0.00000  Uiso   1.00
O1881  O     0.57608   0.50000   0.80405   0.00000  Uiso   1.00
O1882  O     0.42392   0.50000   0.78617   0.00000  Uiso   1.00
O1883  O     0.57608   0.50000   0.88050   0.00000  Uiso   1.00
O1884  O     0.65375   0.46298   0.78410   0.00000  Uiso   1.00
Zn1885 Zn    0.50000   0.49999   0.88437   0.00000  Uiso   1.00
Zn1886 Zn    0.50000   0.50001   0.78229   0.00000  Uiso   1.00
C1887  C     0.83922   0.42018   0.83373   0.00000  Uiso   1.00
C1888  C     0.86042   0.35654   0.87805   0.00000  Uiso   1.00
C1889  C     0.85095   0.62427   0.83685   0.00000  Uiso   1.00
C1890  C     0.85315   0.37661   0.83527   0.00000  Uiso   1.00
C1891  C     0.85459   0.53245   0.69360   0.00000  Uiso   1.00
C1892  C     0.81015   0.46811   0.97272   0.00000  Uiso   1.00
C1893  C     0.85562   0.53212   0.97916   0.00000  Uiso   1.00
C1894  C     0.81021   0.46813   0.68740   0.00000  Uiso   1.00
C1895  C     0.99850   0.46741   0.73864   0.00000  Uiso   1.00
C1896  C     0.98993   0.51189   0.72012   0.00000  Uiso   1.00
C1897  C     0.99171   0.51331   0.66865   0.00000  Uiso   1.00
C1898  C     0.83822   0.58015   0.83434   0.00000  Uiso   1.00
C1899  C     0.99673   0.57202   0.88633   0.00000  Uiso   1.00
C1900  C     0.70485   0.59844   0.86738   0.00000  Uiso   1.00
C1901  C     0.69757   0.64489   0.87612   0.00000  Uiso   1.00
C1902  C     0.93365   0.62246   0.76416   0.00000  Uiso   1.00
C1903  C     0.94964   0.62637   0.71629   0.00000  Uiso   1.00
C1904  C     0.67492   0.63405   0.71843   0.00000  Uiso   1.00
C1905  C     0.92027   0.39802   0.92397   0.00000  Uiso   1.00
C1906  C     0.95826   0.37627   0.96016   0.00000  Uiso   1.00
C1907  C     0.67957   0.39556   0.96412   0.00000  Uiso   1.00
C1908  C     0.73381   0.49797   0.82154   0.00000  Uiso   1.00
C1909  C     0.93273   0.50060   0.84496   0.00000  Uiso   1.00
C1910  C     0.67894   0.49193   0.81615   0.00000  Uiso   1.00
C1911  C     0.98706   0.50735   0.84970   0.00000  Uiso   1.00
C1912  C     0.86078   0.35391   0.79539   0.00000  Uiso   1.00
C1913  C     0.85333   0.64701   0.87849   0.00000  Uiso   1.00
C1914  C     0.86396   0.64431   0.79769   0.00000  Uiso   1.00
H1915  H     0.87142   0.55821   0.71420   0.00000  Uiso   1.00
H1916  H     0.69717   0.50327   0.99413   0.00000  Uiso   1.00
H1917  H     0.98511   0.54570   0.99004   0.00000  Uiso   1.00
H1918  H     0.99429   0.58249   0.92203   0.00000  Uiso   1.00
H1919  H     0.95766   0.57781   0.86644   0.00000  Uiso   1.00
H1920  H     0.74399   0.58958   0.88447   0.00000  Uiso   1.00
H1921  H     0.70301   0.59233   0.82998   0.00000  Uiso   1.00
H1922  H     0.99036   0.65438   0.86360   0.00000  Uiso   1.00
H1923  H     0.70611   0.65181   0.91343   0.00000  Uiso   1.00
H1924  H     0.72501   0.66329   0.85823   0.00000  Uiso   1.00
H1925  H     0.83153   0.38486   0.73790   0.00000  Uiso   1.00
H1926  H     0.79150   0.44270   0.95193   0.00000  Uiso   1.00
H1927  H     0.89582   0.39638   0.75823   0.00000  Uiso   1.00
H1928  H     0.88291   0.63291   0.94375   0.00000  Uiso   1.00
H1929  H     0.81758   0.64030   0.93500   0.00000  Uiso   1.00
H1930  H     0.94850   0.59259   0.77934   0.00000  Uiso   1.00
H1931  H     0.95301   0.64859   0.78578   0.00000  Uiso   1.00
H1932  H     0.93879   0.59761   0.69585   0.00000  Uiso   1.00
H1933  H     0.92833   0.65262   0.69851   0.00000  Uiso   1.00
H1934  H     0.68599   0.66481   0.73495   0.00000  Uiso   1.00
H1935  H     0.68553   0.63400   0.68316   0.00000  Uiso   1.00
H1936  H     0.69715   0.60922   0.73819   0.00000  Uiso   1.00
H1937  H     0.87453   0.55734   0.96374   0.00000  Uiso   1.00
H1938  H     0.91586   0.43070   0.93574   0.00000  Uiso   1.00
H1939  H     0.93769   0.39973   0.89137   0.00000  Uiso   1.00
H1940  H     0.94386   0.37927   0.99384   0.00000  Uiso   1.00
H1941  H     0.96040   0.34268   0.95096   0.00000  Uiso   1.00
H1942  H     0.69488   0.39355   0.93075   0.00000  Uiso   1.00
H1943  H     0.70632   0.37866   0.99014   0.00000  Uiso   1.00
H1944  H     0.67886   0.42876   0.97487   0.00000  Uiso   1.00
H1945  H     0.79112   0.44297   0.70286   0.00000  Uiso   1.00
H1946  H     0.97102   0.44625   0.71677   0.00000  Uiso   1.00
H1947  H     0.70448   0.45552   0.73491   0.00000  Uiso   1.00
H1948  H     0.95179   0.52302   0.72766   0.00000  Uiso   1.00
H1949  H     0.68659   0.53386   0.73723   0.00000  Uiso   1.00
H1950  H     0.96078   0.49290   0.98326   0.00000  Uiso   1.00
N1951  N     0.83332   0.49999   0.95240   0.00000  Uiso   1.00
N1952  N     0.83335   0.50001   0.71427   0.00000  Uiso   1.00
N1953  N     0.86719   0.37294   0.75268   0.00000  Uiso   1.00
N1954  N     0.84880   0.62707   0.92108   0.00000  Uiso   1.00
O1955  O     0.83333   0.43892   0.87154   0.00000  Uiso   1.00
O1956  O     0.67834   0.52956   0.88776   0.00000  Uiso   1.00
O1957  O     0.87840   0.62229   0.76083   0.00000  Uiso   1.00
O1958  O     0.87038   0.37818   0.91960   0.00000  Uiso   1.00
O1959  O     0.83334   0.56108   0.79513   0.00000  Uiso   1.00
O1960  O     0.83333   0.43893   0.79510   0.00000  Uiso   1.00
O1961  O     0.83334   0.56107   0.87157   0.00000  Uiso   1.00
O1962  O     0.75725   0.50000   0.86261   0.00000  Uiso   1.00
O1963  O     0.90942   0.50000   0.80405   0.00000  Uiso   1.00
O1964  O     0.75725   0.50000   0.78617   0.00000  Uiso   1.00
O1965  O     0.90942   0.50000   0.88050   0.00000  Uiso   1.00
O1966  O     0.98709   0.46298   0.78410   0.00000  Uiso   1.00
Zn1967 Zn    0.83333   0.49999   0.88437   0.00000  Uiso   1.00
Zn1968 Zn    0.83333   0.50001   0.78229   0.00000  Uiso   1.00
C1969  C     0.17255   0.75351   0.83373   0.00000  Uiso   1.00
C1970  C     0.19376   0.68988   0.87805   0.00000  Uiso   1.00
C1971  C     0.18428   0.95761   0.83685   0.00000  Uiso   1.00
C1972  C     0.18648   0.70994   0.83527   0.00000  Uiso   1.00
C1973  C     0.18792   0.86578   0.69360   0.00000  Uiso   1.00
C1974  C     0.14349   0.80144   0.97272   0.00000  Uiso   1.00
C1975  C     0.18895   0.86545   0.97916   0.00000  Uiso   1.00
C1976  C     0.14354   0.80146   0.68740   0.00000  Uiso   1.00
C1977  C     0.33183   0.80075   0.73864   0.00000  Uiso   1.00
C1978  C     0.32326   0.84523   0.72012   0.00000  Uiso   1.00
C1979  C     0.32505   0.84664   0.66865   0.00000  Uiso   1.00
C1980  C     0.17155   0.91348   0.83434   0.00000  Uiso   1.00
C1981  C     0.33006   0.90535   0.88633   0.00000  Uiso   1.00
C1982  C     0.03818   0.93178   0.86738   0.00000  Uiso   1.00
C1983  C     0.03091   0.97822   0.87612   0.00000  Uiso   1.00
C1984  C     0.26699   0.95579   0.76416   0.00000  Uiso   1.00
C1985  C     0.28297   0.95970   0.71629   0.00000  Uiso   1.00
C1986  C     0.00825   0.96738   0.71843   0.00000  Uiso   1.00
C1987  C     0.25360   0.73136   0.92397   0.00000  Uiso   1.00
C1988  C     0.29159   0.70961   0.96016   0.00000  Uiso   1.00
C1989  C     0.01290   0.72890   0.96412   0.00000  Uiso   1.00
C1990  C     0.06714   0.83130   0.82154   0.00000  Uiso   1.00
C1991  C     0.26607   0.83394   0.84496   0.00000  Uiso   1.00
C1992  C     0.01227   0.82526   0.81615   0.00000  Uiso   1.00
C1993  C     0.32039   0.84068   0.84970   0.00000  Uiso   1.00
C1994  C     0.19411   0.68724   0.79539   0.00000  Uiso   1.00
C1995  C     0.18666   0.98035   0.87849   0.00000  Uiso   1.00
C1996  C     0.19729   0.97765   0.79769   0.00000  Uiso   1.00
H1997  H     0.20476   0.89154   0.71420   0.00000  Uiso   1.00
H1998  H     0.03050   0.83660   0.99413   0.00000  Uiso   1.00
H1999  H     0.31845   0.87903   0.99004   0.00000  Uiso   1.00
H2000  H     0.32762   0.91582   0.92203   0.00000  Uiso   1.00
H2001  H     0.29100   0.91115   0.86644   0.00000  Uiso   1.00
H2002  H     0.07732   0.92291   0.88447   0.00000  Uiso   1.00
H2003  H     0.03634   0.92566   0.82998   0.00000  Uiso   1.00
H2004  H     0.32369   0.98771   0.86360   0.00000  Uiso   1.00
H2005  H     0.03945   0.98515   0.91343   0.00000  Uiso   1.00
H2006  H     0.05835   0.99663   0.85823   0.00000  Uiso   1.00
H2007  H     0.16486   0.71819   0.73790   0.00000  Uiso   1.00
H2008  H     0.12484   0.77603   0.95193   0.00000  Uiso   1.00
H2009  H     0.22915   0.72972   0.75823   0.00000  Uiso   1.00
H2010  H     0.21624   0.96625   0.94375   0.00000  Uiso   1.00
H2011  H     0.15092   0.97363   0.93500   0.00000  Uiso   1.00
H2012  H     0.28183   0.92593   0.77934   0.00000  Uiso   1.00
H2013  H     0.28635   0.98193   0.78578   0.00000  Uiso   1.00
H2014  H     0.27212   0.93094   0.69585   0.00000  Uiso   1.00
H2015  H     0.26166   0.98596   0.69851   0.00000  Uiso   1.00
H2016  H     0.01932   0.99814   0.73495   0.00000  Uiso   1.00
H2017  H     0.01886   0.96733   0.68316   0.00000  Uiso   1.00
H2018  H     0.03048   0.94256   0.73819   0.00000  Uiso   1.00
H2019  H     0.20786   0.89067   0.96374   0.00000  Uiso   1.00
H2020  H     0.24920   0.76403   0.93574   0.00000  Uiso   1.00
H2021  H     0.27102   0.73306   0.89137   0.00000  Uiso   1.00
H2022  H     0.27720   0.71260   0.99384   0.00000  Uiso   1.00
H2023  H     0.29373   0.67602   0.95096   0.00000  Uiso   1.00
H2024  H     0.02821   0.72689   0.93075   0.00000  Uiso   1.00
H2025  H     0.03966   0.71200   0.99014   0.00000  Uiso   1.00
H2026  H     0.01219   0.76210   0.97487   0.00000  Uiso   1.00
H2027  H     0.12445   0.77631   0.70286   0.00000  Uiso   1.00
H2028  H     0.30435   0.77958   0.71677   0.00000  Uiso   1.00
H2029  H     0.03781   0.78885   0.73491   0.00000  Uiso   1.00
H2030  H     0.28512   0.85636   0.72766   0.00000  Uiso   1.00
H2031  H     0.01992   0.86720   0.73723   0.00000  Uiso   1.00
H2032  H     0.29411   0.82623   0.98326   0.00000  Uiso   1.00
N2033  N     0.16665   0.83332   0.95240   0.00000  Uiso   1.00
N2034  N     0.16668   0.83334   0.71427   0.00000  Uiso   1.00
N2035  N     0.20052   0.70627   0.75268   0.00000  Uiso   1.00
N2036  N     0.18214   0.96040   0.92108   0.00000  Uiso   1.00
O2037  O     0.16666   0.77225   0.87154   0.00000  Uiso   1.00
O2038  O     0.01167   0.86289   0.88776   0.00000  Uiso   1.00
O2039  O     0.21173   0.95563   0.76083   0.00000  Uiso   1.00
O2040  O     0.20371   0.71151   0.91960   0.00000  Uiso   1.00
O2041  O     0.16667   0.89442   0.79513   0.00000  Uiso   1.00
O2042  O     0.16666   0.77226   0.79510   0.00000  Uiso   1.00
O2043  O     0.16667   0.89441   0.87157   0.00000  Uiso   1.00
O2044  O     0.09058   0.83333   0.86261   0.00000  Uiso   1.00
O2045  O     0.24275   0.83334   0.80405   0.00000  Uiso   1.00
O2046  O     0.09058   0.83334   0.78617   0.00000  Uiso   1.00
O2047  O     0.24275   0.83333   0.88050   0.00000  Uiso   1.00
O2048  O     0.32042   0.79631   0.78410   0.00000  Uiso   1.00
Zn2049 Zn    0.16667   0.83333   0.88437   0.00000  Uiso   1.00
Zn2050 Zn    0.16667   0.83334   0.78229   0.00000  Uiso   1.00
C2051  C     0.50588   0.75351   0.83373   0.00000  Uiso   1.00
C2052  C     0.52709   0.68988   0.87805   0.00000  Uiso   1.00
C2053  C     0.51761   0.95761   0.83685   0.00000  Uiso   1.00
C2054  C     0.51981   0.70994   0.83527   0.00000  Uiso   1.00
C2055  C     0.52125   0.86578   0.69360   0.00000  Uiso   1.00
C2056  C     0.47682   0.80144   0.97272   0.00000  Uiso   1.00
C2057  C     0.52228   0.86545   0.97916   0.00000  Uiso   1.00
C2058  C     0.47687   0.80146   0.68740   0.00000  Uiso   1.00
C2059  C     0.66516   0.80075   0.73864   0.00000  Uiso   1.00
C2060  C     0.65659   0.84523   0.72012   0.00000  Uiso   1.00
C2061  C     0.65838   0.84664   0.66865   0.00000  Uiso   1.00
C2062  C     0.50488   0.91348   0.83434   0.00000  Uiso   1.00
C2063  C     0.66339   0.90535   0.88633   0.00000  Uiso   1.00
C2064  C     0.37151   0.93178   0.86738   0.00000  Uiso   1.00
C2065  C     0.36424   0.97822   0.87612   0.00000  Uiso   1.00
C2066  C     0.60032   0.95579   0.76416   0.00000  Uiso   1.00
C2067  C     0.61630   0.95970   0.71629   0.00000  Uiso   1.00
C2068  C     0.34158   0.96738   0.71843   0.00000  Uiso   1.00
C2069  C     0.58693   0.73136   0.92397   0.00000  Uiso   1.00
C2070  C     0.62492   0.70961   0.96016   0.00000  Uiso   1.00
C2071  C     0.34624   0.72890   0.96412   0.00000  Uiso   1.00
C2072  C     0.40047   0.83130   0.82154   0.00000  Uiso   1.00
C2073  C     0.59940   0.83394   0.84496   0.00000  Uiso   1.00
C2074  C     0.34560   0.82526   0.81615   0.00000  Uiso   1.00
C2075  C     0.65372   0.84068   0.84970   0.00000  Uiso   1.00
C2076  C     0.52744   0.68724   0.79539   0.00000  Uiso   1.00
C2077  C     0.52000   0.98035   0.87849   0.00000  Uiso   1.00
C2078  C     0.53062   0.97765   0.79769   0.00000  Uiso   1.00
H2079  H     0.53809   0.89154   0.71420   0.00000  Uiso   1.00
H2080  H     0.36384   0.83660   0.99413   0.00000  Uiso   1.00
H2081  H     0.65178   0.87903   0.99004   0.00000  Uiso   1.00
H2082  H     0.66096   0.91582   0.92203   0.00000  Uiso   1.00
H2083  H     0.62433   0.91115   0.86644   0.00000  Uiso   1.00
H2084  H     0.41066   0.92291   0.88447   0.00000  Uiso   1.00
H2085  H     0.36967   0.92566   0.82998   0.00000  Uiso   1.00
H2086  H     0.65703   0.98771   0.86360   0.00000  Uiso   1.00
H2087  H     0.37278   0.98515   0.91343   0.00000  Uiso   1.00
H2088  H     0.39168   0.99663   0.85823   0.00000  Uiso   1.00
H2089  H     0.49819   0.71819   0.73790   0.00000  Uiso   1.00
H2090  H     0.45817   0.77603   0.95193   0.00000  Uiso   1.00
H2091  H     0.56249   0.72972   0.75823   0.00000  Uiso   1.00
H2092  H     0.54958   0.96625   0.94375   0.00000  Uiso   1.00
H2093  H     0.48425   0.97363   0.93500   0.00000  Uiso   1.00
H2094  H     0.61516   0.92593   0.77934   0.00000  Uiso   1.00
H2095  H     0.61968   0.98193   0.78578   0.00000  Uiso   1.00
H2096  H     0.60545   0.93094   0.69585   0.00000  Uiso   1.00
H2097  H     0.59500   0.98596   0.69851   0.00000  Uiso   1.00
H2098  H     0.35266   0.99814   0.73495   0.00000  Uiso   1.00
H2099  H     0.35220   0.96733   0.68316   0.00000  Uiso   1.00
H2100  H     0.36381   0.94256   0.73819   0.00000  Uiso   1.00
H2101  H     0.54120   0.89067   0.96374   0.00000  Uiso   1.00
H2102  H     0.58253   0.76403   0.93574   0.00000  Uiso   1.00
H2103  H     0.60436   0.73306   0.89137   0.00000  Uiso   1.00
H2104  H     0.61053   0.71260   0.99384   0.00000  Uiso   1.00
H2105  H     0.62707   0.67602   0.95096   0.00000  Uiso   1.00
H2106  H     0.36155   0.72689   0.93075   0.00000  Uiso   1.00
H2107  H     0.37299   0.71200   0.99014   0.00000  Uiso   1.00
H2108  H     0.34552   0.76210   0.97487   0.00000  Uiso   1.00
H2109  H     0.45779   0.77631   0.70286   0.00000  Uiso   1.00
H2110  H     0.63768   0.77958   0.71677   0.00000  Uiso   1.00
H2111  H     0.37115   0.78885   0.73491   0.00000  Uiso   1.00
H2112  H     0.61846   0.85636   0.72766   0.00000  Uiso   1.00
H2113  H     0.35326   0.86720   0.73723   0.00000  Uiso   1.00
H2114  H     0.62744   0.82623   0.98326   0.00000  Uiso   1.00
N2115  N     0.49999   0.83332   0.95240   0.00000  Uiso   1.00
N2116  N     0.50001   0.83334   0.71427   0.00000  Uiso   1.00
N2117  N     0.53386   0.70627   0.75268   0.00000  Uiso   1.00
N2118  N     0.51547   0.96040   0.92108   0.00000  Uiso   1.00
O2119  O     0.50000   0.77225   0.87154   0.00000  Uiso   1.00
O2120  O     0.34500   0.86289   0.88776   0.00000  Uiso   1.00
O2121  O     0.54507   0.95563   0.76083   0.00000  Uiso   1.00
O2122  O     0.53704   0.71151   0.91960   0.00000  Uiso   1.00
O2123  O     0.50000   0.89442   0.79513   0.00000  Uiso   1.00
O2124  O     0.50000   0.77226   0.79510   0.00000  Uiso   1.00
O2125  O     0.50000   0.89441   0.87157   0.00000  Uiso   1.00
O2126  O     0.42392   0.83333   0.86261   0.00000  Uiso   1.00
O2127  O     0.57608   0.83334   0.80405   0.00000  Uiso   1.00
O2128  O     0.42392   0.83334   0.78617   0.00000  Uiso   1.00
O2129  O     0.57608   0.83333   0.88050   0.00000  Uiso   1.00
O2130  O     0.65375   0.79631   0.78410   0.00000  Uiso   1.00
Zn2131 Zn    0.50000   0.83333   0.88437   0.00000  Uiso   1.00
Zn2132 Zn    0.50000   0.83334   0.78229   0.00000  Uiso   1.00
C2133  C     0.83922   0.75351   0.83373   0.00000  Uiso   1.00
C2134  C     0.86042   0.68988   0.87805   0.00000  Uiso   1.00
C2135  C     0.85095   0.95761   0.83685   0.00000  Uiso   1.00
C2136  C     0.85315   0.70994   0.83527   0.00000  Uiso   1.00
C2137  C     0.85459   0.86578   0.69360   0.00000  Uiso   1.00
C2138  C     0.81015   0.80144   0.97272   0.00000  Uiso   1.00
C2139  C     0.85562   0.86545   0.97916   0.00000  Uiso   1.00
C2140  C     0.81021   0.80146   0.68740   0.00000  Uiso   1.00
C2141  C     0.99850   0.80075   0.73864   0.00000  Uiso   1.00
C2142  C     0.98993   0.84523   0.72012   0.00000  Uiso   1.00
C2143  C     0.99171   0.84664   0.66865   0.00000  Uiso   1.00
C2144  C     0.83822   0.91348   0.83434   0.00000  Uiso   1.00
C2145  C     0.99673   0.90535   0.88633   0.00000  Uiso   1.00
C2146  C     0.70485   0.93178   0.86738   0.00000  Uiso   1.00
C2147  C     0.69757   0.97822   0.87612   0.00000  Uiso   1.00
C2148  C     0.93365   0.95579   0.76416   0.00000  Uiso   1.00
C2149  C     0.94964   0.95970   0.71629   0.00000  Uiso   1.00
C2150  C     0.67492   0.96738   0.71843   0.00000  Uiso   1.00
C2151  C     0.92027   0.73136   0.92397   0.00000  Uiso   1.00
C2152  C     0.95826   0.70961   0.96016   0.00000  Uiso   1.00
C2153  C     0.67957   0.72890   0.96412   0.00000  Uiso   1.00
C2154  C     0.73381   0.83130   0.82154   0.00000  Uiso   1.00
C2155  C     0.93273   0.83394   0.84496   0.00000  Uiso   1.00
C2156  C     0.67894   0.82526   0.81615   0.00000  Uiso   1.00
C2157  C     0.98706   0.84068   0.84970   0.00000  Uiso   1.00
C2158  C     0.86078   0.68724   0.79539   0.00000  Uiso   1.00
C2159  C     0.85333   0.98035   0.87849   0.00000  Uiso   1.00
C2160  C     0.86396   0.97765   0.79769   0.00000  Uiso   1.00
H2161  H     0.87142   0.89154   0.71420   0.00000  Uiso   1.00
H2162  H     0.69717   0.83660   0.99413   0.00000  Uiso   1.00
H2163  H     0.98511   0.87903   0.99004   0.00000  Uiso   1.00
H2164  H     0.99429   0.91582   0.92203   0.00000  Uiso   1.00
H2165  H     0.95766   0.91115   0.86644   0.00000  Uiso   1.00
H2166  H     0.74399   0.92291   0.88447   0.00000  Uiso   1.00
H2167  H     0.70301   0.92566   0.82998   0.00000  Uiso   1.00
H2168  H     0.99036   0.98771   0.86360   0.00000  Uiso   1.00
H2169  H     0.70611   0.98515   0.91343   0.00000  Uiso   1.00
H2170  H     0.72501   0.99663   0.85823   0.00000  Uiso   1.00
H2171  H     0.83153   0.71819   0.73790   0.00000  Uiso   1.00
H2172  H     0.79150   0.77603   0.95193   0.00000  Uiso   1.00
H2173  H     0.89582   0.72972   0.75823   0.00000  Uiso   1.00
H2174  H     0.88291   0.96625   0.94375   0.00000  Uiso   1.00
H2175  H     0.81758   0.97363   0.93500   0.00000  Uiso   1.00
H2176  H     0.94850   0.92593   0.77934   0.00000  Uiso   1.00
H2177  H     0.95301   0.98193   0.78578   0.00000  Uiso   1.00
H2178  H     0.93879   0.93094   0.69585   0.00000  Uiso   1.00
H2179  H     0.92833   0.98596   0.69851   0.00000  Uiso   1.00
H2180  H     0.68599   0.99814   0.73495   0.00000  Uiso   1.00
H2181  H     0.68553   0.96733   0.68316   0.00000  Uiso   1.00
H2182  H     0.69715   0.94256   0.73819   0.00000  Uiso   1.00
H2183  H     0.87453   0.89067   0.96374   0.00000  Uiso   1.00
H2184  H     0.91586   0.76403   0.93574   0.00000  Uiso   1.00
H2185  H     0.93769   0.73306   0.89137   0.00000  Uiso   1.00
H2186  H     0.94386   0.71260   0.99384   0.00000  Uiso   1.00
H2187  H     0.96040   0.67602   0.95096   0.00000  Uiso   1.00
H2188  H     0.69488   0.72689   0.93075   0.00000  Uiso   1.00
H2189  H     0.70632   0.71200   0.99014   0.00000  Uiso   1.00
H2190  H     0.67886   0.76210   0.97487   0.00000  Uiso   1.00
H2191  H     0.79112   0.77631   0.70286   0.00000  Uiso   1.00
H2192  H     0.97102   0.77958   0.71677   0.00000  Uiso   1.00
H2193  H     0.70448   0.78885   0.73491   0.00000  Uiso   1.00
H2194  H     0.95179   0.85636   0.72766   0.00000  Uiso   1.00
H2195  H     0.68659   0.86720   0.73723   0.00000  Uiso   1.00
H2196  H     0.96078   0.82623   0.98326   0.00000  Uiso   1.00
N2197  N     0.83332   0.83332   0.95240   0.00000  Uiso   1.00
N2198  N     0.83335   0.83334   0.71427   0.00000  Uiso   1.00
N2199  N     0.86719   0.70627   0.75268   0.00000  Uiso   1.00
N2200  N     0.84880   0.96040   0.92108   0.00000  Uiso   1.00
O2201  O     0.83333   0.77225   0.87154   0.00000  Uiso   1.00
O2202  O     0.67834   0.86289   0.88776   0.00000  Uiso   1.00
O2203  O     0.87840   0.95563   0.76083   0.00000  Uiso   1.00
O2204  O     0.87038   0.71151   0.91960   0.00000  Uiso   1.00
O2205  O     0.83334   0.89442   0.79513   0.00000  Uiso   1.00
O2206  O     0.83333   0.77226   0.79510   0.00000  Uiso   1.00
O2207  O     0.83334   0.89441   0.87157   0.00000  Uiso   1.00
O2208  O     0.75725   0.83333   0.86261   0.00000  Uiso   1.00
O2209  O     0.90942   0.83334   0.80405   0.00000  Uiso   1.00
O2210  O     0.75725   0.83334   0.78617   0.00000  Uiso   1.00
O2211  O     0.90942   0.83333   0.88050   0.00000  Uiso   1.00
O2212  O     0.98709   0.79631   0.78410   0.00000  Uiso   1.00
Zn2213 Zn    0.83333   0.83333   0.88437   0.00000  Uiso   1.00
Zn2214 Zn    0.83333   0.83334   0.78229   0.00000  Uiso   1.00
loop_
_geom_bond_atom_site_label_1
_geom_bond_atom_site_label_2
_geom_bond_distance
_geom_bond_site_symmetry_2
_ccdc_geom_bond_type
C1     O74     1.285   .     A
C1     O69     1.287   .     A
C1     C4      1.445   .     S
C2     O72     1.390   .     S
C2     C4      1.413   .     A
C2     C519    1.385   1_545 S
C3     C28     1.407   .     A
C3     C12     1.448   .     S
C3     C27     1.412   .     A
C4     C26     1.411   .     A
C5     H29     1.071   .     S
C5     N66     1.361   .     A
C5     C1483   1.411   1_554 S
C6     N65     1.366   .     A
C6     H40     1.082   .     S
C6     C746    1.414   .     S
C7     N65     1.363   .     A
C7     H51     1.079   .     S
C7     C743    1.411   .     S
C8     N66     1.366   .     A
C8     H59     1.080   .     S
C8     C1482   1.414   1_554 S
C9     C10     1.540   .     S
C9     O80     1.419   .     S
C9     H60     1.111   .     S
C9     H143    1.109   .     S
C10    H62     1.103   .     S
C10    C11     1.525   .     S
C10    H145    1.107   .     S
C11    H1588   1.111   1_554 S
C11    H1507   1.108   1_554 S
C11    H1540   1.110   1_554 S
C12    O75     1.283   .     A
C12    O73     1.290   .     A
C13    H32     1.110   .     S
C13    H33     1.115   .     S
C13    C96     1.530   .     S
C13    O152    1.418   .     S
C14    H35     1.111   .     S
C14    H34     1.109   .     S
C14    C15     1.525   .     S
C14    C177    1.530   1_455 S
C15    H37     1.110   .     S
C15    H38     1.111   .     S
C15    H200    1.110   1_455 S
C16    C17     1.529   .     S
C16    H44     1.111   .     S
C16    O71     1.420   .     S
C16    H45     1.117   .     S
C17    H46     1.107   .     S
C17    H47     1.108   .     S
C17    C100    1.527   .     S
C18    H50     1.110   .     S
C18    H48     1.111   .     S
C18    H49     1.110   .     S
C18    C181    1.527   1_455 S
C19    H52     1.111   .     S
C19    C20     1.528   .     S
C19    H53     1.118   .     S
C19    O72     1.423   .     S
C20    H55     1.110   .     S
C20    H54     1.110   .     S
C20    C103    1.527   .     S
C21    H57     1.110   .     S
C21    H56     1.110   .     S
C21    H58     1.107   .     S
C21    C184    1.527   1_455 S
C22    O76     1.277   .     A
C22    O78     1.278   .     A
C22    C24     1.418   .     S
C23    O77     1.271   .     A
C23    C25     1.408   .     S
C23    O79     1.279   .     A
C24    C189    1.348   1_455 S
C24    O244    1.405   1_455 S
C25    C106    1.348   .     S
C25    O152    1.394   .     S
C26    N67     1.435   .     S
C26    C520    1.381   1_545 S
C27    N68     1.434   .     S
C27    C248    1.385   .     S
C28    O71     1.383   .     S
C28    C272    1.381   .     S
H30    C913    1.111   1_455 S
H31    C749    1.108   .     S
H36    C97     1.110   .     S
H39    N67     1.043   .     S
H41    N67     1.046   .     S
H42    N68     1.045   .     S
H43    N68     1.046   .     S
H61    C173    1.109   1_455 S
H63    C174    1.107   1_455 S
H64    C749    1.110   .     S
N65    Zn81    2.004   .     S
N66    Zn82    2.004   .     S
O69    Zn81    1.989   .     S
O70    C177    1.418   1_455 S
O70    C189    1.394   1_455 S
O73    Zn82    1.989   .     S
O74    Zn82    1.999   .     S
O75    Zn81    1.999   .     S
O76    Zn81    1.985   .     S
O77    Zn82    1.985   .     S
O78    Zn82    1.988   .     S
O79    Zn81    1.988   .     S
O80    C106    1.405   .     S
C83    O156    1.285   .     A
C83    O151    1.287   .     A
C83    C86     1.445   .     S
C84    O154    1.390   .     S
C84    C86     1.413   .     A
C84    C601    1.385   1_545 S
C85    C110    1.407   .     A
C85    C94     1.448   .     S
C85    C109    1.412   .     A
C86    C108    1.411   .     A
C87    H111    1.071   .     S
C87    N148    1.361   .     A
C87    C1565   1.411   1_554 S
C88    N147    1.366   .     A
C88    H122    1.082   .     S
C88    C828    1.414   .     S
C89    N147    1.363   .     A
C89    H133    1.079   .     S
C89    C825    1.411   .     S
C90    N148    1.366   .     A
C90    H141    1.080   .     S
C90    C1564   1.414   1_554 S
C91    C92     1.540   .     S
C91    O162    1.419   .     S
C91    H142    1.111   .     S
C91    H225    1.109   .     S
C92    H144    1.103   .     S
C92    C93     1.525   .     S
C92    H227    1.107   .     S
C93    H1670   1.111   1_554 S
C93    H1589   1.108   1_554 S
C93    H1622   1.110   1_554 S
C94    O157    1.283   .     A
C94    O155    1.290   .     A
C95    H114    1.110   .     S
C95    H115    1.115   .     S
C95    C178    1.530   .     S
C95    O234    1.418   .     S
C96    H117    1.111   .     S
C96    H116    1.109   .     S
C96    C97     1.525   .     S
C97    H119    1.110   .     S
C97    H120    1.111   .     S
C98    C99     1.529   .     S
C98    H126    1.111   .     S
C98    O153    1.420   .     S
C98    H127    1.117   .     S
C99    H128    1.107   .     S
C99    H129    1.108   .     S
C99    C182    1.527   .     S
C100   H132    1.110   .     S
C100   H130    1.111   .     S
C100   H131    1.110   .     S
C101   H134    1.111   .     S
C101   C102    1.528   .     S
C101   H135    1.118   .     S
C101   O154    1.423   .     S
C102   H137    1.110   .     S
C102   H136    1.110   .     S
C102   C185    1.527   .     S
C103   H139    1.110   .     S
C103   H138    1.110   .     S
C103   H140    1.107   .     S
C104   O158    1.277   .     A
C104   O160    1.278   .     A
C104   C106    1.418   .     S
C105   O159    1.271   .     A
C105   C107    1.408   .     S
C105   O161    1.279   .     A
C107   C188    1.348   .     S
C107   O234    1.394   .     S
C108   N149    1.435   .     S
C108   C602    1.381   1_545 S
C109   N150    1.434   .     S
C109   C330    1.385   .     S
C110   O153    1.383   .     S
C110   C354    1.381   .     S
H112   C749    1.111   .     S
H113   C831    1.108   .     S
H118   C179    1.110   .     S
H121   N149    1.043   .     S
H123   N149    1.046   .     S
H124   N150    1.045   .     S
H125   N150    1.046   .     S
H146   C831    1.110   .     S
N147   Zn163   2.004   .     S
N148   Zn164   2.004   .     S
O151   Zn163   1.989   .     S
O155   Zn164   1.989   .     S
O156   Zn164   1.999   .     S
O157   Zn163   1.999   .     S
O158   Zn163   1.985   .     S
O159   Zn164   1.985   .     S
O160   Zn164   1.988   .     S
O161   Zn163   1.988   .     S
O162   C188    1.405   .     S
C165   O238    1.285   .     A
C165   O233    1.287   .     A
C165   C168    1.445   .     S
C166   O236    1.390   .     S
C166   C168    1.413   .     A
C166   C683    1.385   1_545 S
C167   C192    1.407   .     A
C167   C176    1.448   .     S
C167   C191    1.412   .     A
C168   C190    1.411   .     A
C169   H193    1.071   .     S
C169   N230    1.361   .     A
C169   C1647   1.411   1_554 S
C170   N229    1.366   .     A
C170   H204    1.082   .     S
C170   C910    1.414   .     S
C171   N229    1.363   .     A
C171   H215    1.079   .     S
C171   C907    1.411   .     S
C172   N230    1.366   .     A
C172   H223    1.080   .     S
C172   C1646   1.414   1_554 S
C173   C174    1.540   .     S
C173   O244    1.419   .     S
C173   H224    1.111   .     S
C173   H61     1.109   1_655 S
C174   H226    1.103   .     S
C174   C175    1.525   .     S
C174   H63     1.107   1_655 S
C175   H1506   1.111   1_654 S
C175   H1671   1.108   1_554 S
C175   H1704   1.110   1_554 S
C176   O239    1.283   .     A
C176   O237    1.290   .     A
C177   H196    1.110   .     S
C177   H197    1.115   .     S
C177   C14     1.530   1_655 S
C177   O70     1.418   1_655 S
C178   H199    1.111   .     S
C178   H198    1.109   .     S
C178   C179    1.525   .     S
C179   H201    1.110   .     S
C179   H202    1.111   .     S
C180   C181    1.529   .     S
C180   H208    1.111   .     S
C180   O235    1.420   .     S
C180   H209    1.117   .     S
C181   H210    1.107   .     S
C181   H211    1.108   .     S
C181   C18     1.527   1_655 S
C182   H214    1.110   .     S
C182   H212    1.111   .     S
C182   H213    1.110   .     S
C183   H216    1.111   .     S
C183   C184    1.528   .     S
C183   H217    1.118   .     S
C183   O236    1.423   .     S
C184   H219    1.110   .     S
C184   H218    1.110   .     S
C184   C21     1.527   1_655 S
C185   H221    1.110   .     S
C185   H220    1.110   .     S
C185   H222    1.107   .     S
C186   O240    1.277   .     A
C186   O242    1.278   .     A
C186   C188    1.418   .     S
C187   O241    1.271   .     A
C187   C189    1.408   .     S
C187   O243    1.279   .     A
C189   C24     1.348   1_655 S
C189   O70     1.394   1_655 S
C190   N231    1.435   .     S
C190   C684    1.381   1_545 S
C191   N232    1.434   .     S
C191   C412    1.385   .     S
C192   O235    1.383   .     S
C192   C436    1.381   .     S
H194   C831    1.111   .     S
H195   C913    1.108   .     S
H200   C15     1.110   1_655 S
H203   N231    1.043   .     S
H205   N231    1.046   .     S
H206   N232    1.045   .     S
H207   N232    1.046   .     S
H228   C913    1.110   .     S
N229   Zn245   2.004   .     S
N230   Zn246   2.004   .     S
O233   Zn245   1.989   .     S
O237   Zn246   1.989   .     S
O238   Zn246   1.999   .     S
O239   Zn245   1.999   .     S
O240   Zn245   1.985   .     S
O241   Zn246   1.985   .     S
O242   Zn246   1.988   .     S
O243   Zn245   1.988   .     S
O244   C24     1.405   1_655 S
C247   O320    1.285   .     A
C247   O315    1.287   .     A
C247   C250    1.445   .     S
C248   O318    1.390   .     S
C248   C250    1.413   .     A
C249   C274    1.407   .     A
C249   C258    1.448   .     S
C249   C273    1.412   .     A
C250   C272    1.411   .     A
C251   H275    1.071   .     S
C251   N312    1.361   .     A
C251   C1729   1.411   1_554 S
C252   N311    1.366   .     A
C252   H286    1.082   .     S
C252   C992    1.414   .     S
C253   N311    1.363   .     A
C253   H297    1.079   .     S
C253   C989    1.411   .     S
C254   N312    1.366   .     A
C254   H305    1.080   .     S
C254   C1728   1.414   1_554 S
C255   C256    1.540   .     S
C255   O326    1.419   .     S
C255   H306    1.111   .     S
C255   H389    1.109   .     S
C256   H308    1.103   .     S
C256   C257    1.525   .     S
C256   H391    1.107   .     S
C257   H1834   1.111   1_554 S
C257   H1753   1.108   1_554 S
C257   H1786   1.110   1_554 S
C258   O321    1.283   .     A
C258   O319    1.290   .     A
C259   H278    1.110   .     S
C259   H279    1.115   .     S
C259   C342    1.530   .     S
C259   O398    1.418   .     S
C260   H281    1.111   .     S
C260   H280    1.109   .     S
C260   C261    1.525   .     S
C260   C423    1.530   1_455 S
C261   H283    1.110   .     S
C261   H284    1.111   .     S
C261   H446    1.110   1_455 S
C262   C263    1.529   .     S
C262   H290    1.111   .     S
C262   O317    1.420   .     S
C262   H291    1.117   .     S
C263   H292    1.107   .     S
C263   H293    1.108   .     S
C263   C346    1.527   .     S
C264   H296    1.110   .     S
C264   H294    1.111   .     S
C264   H295    1.110   .     S
C264   C427    1.527   1_455 S
C265   H298    1.111   .     S
C265   C266    1.528   .     S
C265   H299    1.118   .     S
C265   O318    1.423   .     S
C266   H301    1.110   .     S
C266   H300    1.110   .     S
C266   C349    1.527   .     S
C267   H303    1.110   .     S
C267   H302    1.110   .     S
C267   H304    1.107   .     S
C267   C430    1.527   1_455 S
C268   O322    1.277   .     A
C268   O324    1.278   .     A
C268   C270    1.418   .     S
C269   O323    1.271   .     A
C269   C271    1.408   .     S
C269   O325    1.279   .     A
C270   C435    1.348   1_455 S
C270   O490    1.405   1_455 S
C271   C352    1.348   .     S
C271   O398    1.394   .     S
C272   N313    1.435   .     S
C273   N314    1.434   .     S
C273   C494    1.385   .     S
C274   O317    1.383   .     S
C274   C518    1.381   .     S
H276   C1159   1.111   1_455 S
H277   C995    1.108   .     S
H282   C343    1.110   .     S
H285   N313    1.043   .     S
H287   N313    1.046   .     S
H288   N314    1.045   .     S
H289   N314    1.046   .     S
H307   C419    1.109   1_455 S
H309   C420    1.107   1_455 S
H310   C995    1.110   .     S
N311   Zn327   2.004   .     S
N312   Zn328   2.004   .     S
O315   Zn327   1.989   .     S
O316   C423    1.418   1_455 S
O316   C435    1.394   1_455 S
O319   Zn328   1.989   .     S
O320   Zn328   1.999   .     S
O321   Zn327   1.999   .     S
O322   Zn327   1.985   .     S
O323   Zn328   1.985   .     S
O324   Zn328   1.988   .     S
O325   Zn327   1.988   .     S
O326   C352    1.405   .     S
C329   O402    1.285   .     A
C329   O397    1.287   .     A
C329   C332    1.445   .     S
C330   O400    1.390   .     S
C330   C332    1.413   .     A
C331   C356    1.407   .     A
C331   C340    1.448   .     S
C331   C355    1.412   .     A
C332   C354    1.411   .     A
C333   H357    1.071   .     S
C333   N394    1.361   .     A
C333   C1811   1.411   1_554 S
C334   N393    1.366   .     A
C334   H368    1.082   .     S
C334   C1074   1.414   .     S
C335   N393    1.363   .     A
C335   H379    1.079   .     S
C335   C1071   1.411   .     S
C336   N394    1.366   .     A
C336   H387    1.080   .     S
C336   C1810   1.414   1_554 S
C337   C338    1.540   .     S
C337   O408    1.419   .     S
C337   H388    1.111   .     S
C337   H471    1.109   .     S
C338   H390    1.103   .     S
C338   C339    1.525   .     S
C338   H473    1.107   .     S
C339   H1916   1.111   1_554 S
C339   H1835   1.108   1_554 S
C339   H1868   1.110   1_554 S
C340   O403    1.283   .     A
C340   O401    1.290   .     A
C341   H360    1.110   .     S
C341   H361    1.115   .     S
C341   C424    1.530   .     S
C341   O480    1.418   .     S
C342   H363    1.111   .     S
C342   H362    1.109   .     S
C342   C343    1.525   .     S
C343   H365    1.110   .     S
C343   H366    1.111   .     S
C344   C345    1.529   .     S
C344   H372    1.111   .     S
C344   O399    1.420   .     S
C344   H373    1.117   .     S
C345   H374    1.107   .     S
C345   H375    1.108   .     S
C345   C428    1.527   .     S
C346   H378    1.110   .     S
C346   H376    1.111   .     S
C346   H377    1.110   .     S
C347   H380    1.111   .     S
C347   C348    1.528   .     S
C347   H381    1.118   .     S
C347   O400    1.423   .     S
C348   H383    1.110   .     S
C348   H382    1.110   .     S
C348   C431    1.527   .     S
C349   H385    1.110   .     S
C349   H384    1.110   .     S
C349   H386    1.107   .     S
C350   O404    1.277   .     A
C350   O406    1.278   .     A
C350   C352    1.418   .     S
C351   O405    1.271   .     A
C351   C353    1.408   .     S
C351   O407    1.279   .     A
C353   C434    1.348   .     S
C353   O480    1.394   .     S
C354   N395    1.435   .     S
C355   N396    1.434   .     S
C355   C576    1.385   .     S
C356   O399    1.383   .     S
C356   C600    1.381   .     S
H358   C995    1.111   .     S
H359   C1077   1.108   .     S
H364   C425    1.110   .     S
H367   N395    1.043   .     S
H369   N395    1.046   .     S
H370   N396    1.045   .     S
H371   N396    1.046   .     S
H392   C1077   1.110   .     S
N393   Zn409   2.004   .     S
N394   Zn410   2.004   .     S
O397   Zn409   1.989   .     S
O401   Zn410   1.989   .     S
O402   Zn410   1.999   .     S
O403   Zn409   1.999   .     S
O404   Zn409   1.985   .     S
O405   Zn410   1.985   .     S
O406   Zn410   1.988   .     S
O407   Zn409   1.988   .     S
O408   C434    1.405   .     S
C411   O484    1.285   .     A
C411   O479    1.287   .     A
C411   C414    1.445   .     S
C412   O482    1.390   .     S
C412   C414    1.413   .     A
C413   C438    1.407   .     A
C413   C422    1.448   .     S
C413   C437    1.412   .     A
C414   C436    1.411   .     A
C415   H439    1.071   .     S
C415   N476    1.361   .     A
C415   C1893   1.411   1_554 S
C416   N475    1.366   .     A
C416   H450    1.082   .     S
C416   C1156   1.414   .     S
C417   N475    1.363   .     A
C417   H461    1.079   .     S
C417   C1153   1.411   .     S
C418   N476    1.366   .     A
C418   H469    1.080   .     S
C418   C1892   1.414   1_554 S
C419   C420    1.540   .     S
C419   O490    1.419   .     S
C419   H470    1.111   .     S
C419   H307    1.109   1_655 S
C420   H472    1.103   .     S
C420   C421    1.525   .     S
C420   H309    1.107   1_655 S
C421   H1752   1.111   1_654 S
C421   H1917   1.108   1_554 S
C421   H1950   1.110   1_554 S
C422   O485    1.283   .     A
C422   O483    1.290   .     A
C423   H442    1.110   .     S
C423   H443    1.115   .     S
C423   C260    1.530   1_655 S
C423   O316    1.418   1_655 S
C424   H445    1.111   .     S
C424   H444    1.109   .     S
C424   C425    1.525   .     S
C425   H447    1.110   .     S
C425   H448    1.111   .     S
C426   C427    1.529   .     S
C426   H454    1.111   .     S
C426   O481    1.420   .     S
C426   H455    1.117   .     S
C427   H456    1.107   .     S
C427   H457    1.108   .     S
C427   C264    1.527   1_655 S
C428   H460    1.110   .     S
C428   H458    1.111   .     S
C428   H459    1.110   .     S
C429   H462    1.111   .     S
C429   C430    1.528   .     S
C429   H463    1.118   .     S
C429   O482    1.423   .     S
C430   H465    1.110   .     S
C430   H464    1.110   .     S
C430   C267    1.527   1_655 S
C431   H467    1.110   .     S
C431   H466    1.110   .     S
C431   H468    1.107   .     S
C432   O486    1.277   .     A
C432   O488    1.278   .     A
C432   C434    1.418   .     S
C433   O487    1.271   .     A
C433   C435    1.408   .     S
C433   O489    1.279   .     A
C435   C270    1.348   1_655 S
C435   O316    1.394   1_655 S
C436   N477    1.435   .     S
C437   N478    1.434   .     S
C437   C658    1.385   .     S
C438   O481    1.383   .     S
C438   C682    1.381   .     S
H440   C1077   1.111   .     S
H441   C1159   1.108   .     S
H446   C261    1.110   1_655 S
H449   N477    1.043   .     S
H451   N477    1.046   .     S
H452   N478    1.045   .     S
H453   N478    1.046   .     S
H474   C1159   1.110   .     S
N475   Zn491   2.004   .     S
N476   Zn492   2.004   .     S
O479   Zn491   1.989   .     S
O483   Zn492   1.989   .     S
O484   Zn492   1.999   .     S
O485   Zn491   1.999   .     S
O486   Zn491   1.985   .     S
O487   Zn492   1.985   .     S
O488   Zn492   1.988   .     S
O489   Zn491   1.988   .     S
O490   C270    1.405   1_655 S
C493   O566    1.285   .     A
C493   O561    1.287   .     A
C493   C496    1.445   .     S
C494   O564    1.390   .     S
C494   C496    1.413   .     A
C495   C520    1.407   .     A
C495   C504    1.448   .     S
C495   C519    1.412   .     A
C496   C518    1.411   .     A
C497   H521    1.071   .     S
C497   N558    1.361   .     A
C497   C1975   1.411   1_554 S
C498   N557    1.366   .     A
C498   H532    1.082   .     S
C498   C1238   1.414   .     S
C499   N557    1.363   .     A
C499   H543    1.079   .     S
C499   C1235   1.411   .     S
C500   N558    1.366   .     A
C500   H551    1.080   .     S
C500   C1974   1.414   1_554 S
C501   C502    1.540   .     S
C501   O572    1.419   .     S
C501   H552    1.111   .     S
C501   H635    1.109   .     S
C502   H554    1.103   .     S
C502   C503    1.525   .     S
C502   H637    1.107   .     S
C503   H2080   1.111   1_554 S
C503   H1999   1.108   1_554 S
C503   H2032   1.110   1_554 S
C504   O567    1.283   .     A
C504   O565    1.290   .     A
C505   H524    1.110   .     S
C505   H525    1.115   .     S
C505   C588    1.530   .     S
C505   O644    1.418   .     S
C506   H527    1.111   .     S
C506   H526    1.109   .     S
C506   C507    1.525   .     S
C506   C669    1.530   1_455 S
C507   H529    1.110   .     S
C507   H530    1.111   .     S
C507   H692    1.110   1_455 S
C508   C509    1.529   .     S
C508   H536    1.111   .     S
C508   O563    1.420   .     S
C508   H537    1.117   .     S
C509   H538    1.107   .     S
C509   H539    1.108   .     S
C509   C592    1.527   .     S
C510   H542    1.110   .     S
C510   H540    1.111   .     S
C510   H541    1.110   .     S
C510   C673    1.527   1_455 S
C511   H544    1.111   .     S
C511   C512    1.528   .     S
C511   H545    1.118   .     S
C511   O564    1.423   .     S
C512   H547    1.110   .     S
C512   H546    1.110   .     S
C512   C595    1.527   .     S
C513   H549    1.110   .     S
C513   H548    1.110   .     S
C513   H550    1.107   .     S
C513   C676    1.527   1_455 S
C514   O568    1.277   .     A
C514   O570    1.278   .     A
C514   C516    1.418   .     S
C515   O569    1.271   .     A
C515   C517    1.408   .     S
C515   O571    1.279   .     A
C516   C681    1.348   1_455 S
C516   O736    1.405   1_455 S
C517   C598    1.348   .     S
C517   O644    1.394   .     S
C518   N559    1.435   .     S
C519   N560    1.434   .     S
C519   C2      1.385   1_565 S
C520   O563    1.383   .     S
C520   C26     1.381   1_565 S
H522   C1405   1.111   1_455 S
H523   C1241   1.108   .     S
H528   C589    1.110   .     S
H531   N559    1.043   .     S
H533   N559    1.046   .     S
H534   N560    1.045   .     S
H535   N560    1.046   .     S
H553   C665    1.109   1_455 S
H555   C666    1.107   1_455 S
H556   C1241   1.110   .     S
N557   Zn573   2.004   .     S
N558   Zn574   2.004   .     S
O561   Zn573   1.989   .     S
O562   C669    1.418   1_455 S
O562   C681    1.394   1_455 S
O565   Zn574   1.989   .     S
O566   Zn574   1.999   .     S
O567   Zn573   1.999   .     S
O568   Zn573   1.985   .     S
O569   Zn574   1.985   .     S
O570   Zn574   1.988   .     S
O571   Zn573   1.988   .     S
O572   C598    1.405   .     S
C575   O648    1.285   .     A
C575   O643    1.287   .     A
C575   C578    1.445   .     S
C576   O646    1.390   .     S
C576   C578    1.413   .     A
C577   C602    1.407   .     A
C577   C586    1.448   .     S
C577   C601    1.412   .     A
C578   C600    1.411   .     A
C579   H603    1.071   .     S
C579   N640    1.361   .     A
C579   C2057   1.411   1_554 S
C580   N639    1.366   .     A
C580   H614    1.082   .     S
C580   C1320   1.414   .     S
C581   N639    1.363   .     A
C581   H625    1.079   .     S
C581   C1317   1.411   .     S
C582   N640    1.366   .     A
C582   H633    1.080   .     S
C582   C2056   1.414   1_554 S
C583   C584    1.540   .     S
C583   O654    1.419   .     S
C583   H634    1.111   .     S
C583   H717    1.109   .     S
C584   H636    1.103   .     S
C584   C585    1.525   .     S
C584   H719    1.107   .     S
C585   H2162   1.111   1_554 S
C585   H2081   1.108   1_554 S
C585   H2114   1.110   1_554 S
C586   O649    1.283   .     A
C586   O647    1.290   .     A
C587   H606    1.110   .     S
C587   H607    1.115   .     S
C587   C670    1.530   .     S
C587   O726    1.418   .     S
C588   H609    1.111   .     S
C588   H608    1.109   .     S
C588   C589    1.525   .     S
C589   H611    1.110   .     S
C589   H612    1.111   .     S
C590   C591    1.529   .     S
C590   H618    1.111   .     S
C590   O645    1.420   .     S
C590   H619    1.117   .     S
C591   H620    1.107   .     S
C591   H621    1.108   .     S
C591   C674    1.527   .     S
C592   H624    1.110   .     S
C592   H622    1.111   .     S
C592   H623    1.110   .     S
C593   H626    1.111   .     S
C593   C594    1.528   .     S
C593   H627    1.118   .     S
C593   O646    1.423   .     S
C594   H629    1.110   .     S
C594   H628    1.110   .     S
C594   C677    1.527   .     S
C595   H631    1.110   .     S
C595   H630    1.110   .     S
C595   H632    1.107   .     S
C596   O650    1.277   .     A
C596   O652    1.278   .     A
C596   C598    1.418   .     S
C597   O651    1.271   .     A
C597   C599    1.408   .     S
C597   O653    1.279   .     A
C599   C680    1.348   .     S
C599   O726    1.394   .     S
C600   N641    1.435   .     S
C601   N642    1.434   .     S
C601   C84     1.385   1_565 S
C602   O645    1.383   .     S
C602   C108    1.381   1_565 S
H604   C1241   1.111   .     S
H605   C1323   1.108   .     S
H610   C671    1.110   .     S
H613   N641    1.043   .     S
H615   N641    1.046   .     S
H616   N642    1.045   .     S
H617   N642    1.046   .     S
H638   C1323   1.110   .     S
N639   Zn655   2.004   .     S
N640   Zn656   2.004   .     S
O643   Zn655   1.989   .     S
O647   Zn656   1.989   .     S
O648   Zn656   1.999   .     S
O649   Zn655   1.999   .     S
O650   Zn655   1.985   .     S
O651   Zn656   1.985   .     S
O652   Zn656   1.988   .     S
O653   Zn655   1.988   .     S
O654   C680    1.405   .     S
C657   O730    1.285   .     A
C657   O725    1.287   .     A
C657   C660    1.445   .     S
C658   O728    1.390   .     S
C658   C660    1.413   .     A
C659   C684    1.407   .     A
C659   C668    1.448   .     S
C659   C683    1.412   .     A
C660   C682    1.411   .     A
C661   H685    1.071   .     S
C661   N722    1.361   .     A
C661   C2139   1.411   1_554 S
C662   N721    1.366   .     A
C662   H696    1.082   .     S
C662   C1402   1.414   .     S
C663   N721    1.363   .     A
C663   H707    1.079   .     S
C663   C1399   1.411   .     S
C664   N722    1.366   .     A
C664   H715    1.080   .     S
C664   C2138   1.414   1_554 S
C665   C666    1.540   .     S
C665   O736    1.419   .     S
C665   H716    1.111   .     S
C665   H553    1.109   1_655 S
C666   H718    1.103   .     S
C666   C667    1.525   .     S
C666   H555    1.107   1_655 S
C667   H1998   1.111   1_654 S
C667   H2163   1.108   1_554 S
C667   H2196   1.110   1_554 S
C668   O731    1.283   .     A
C668   O729    1.290   .     A
C669   H688    1.110   .     S
C669   H689    1.115   .     S
C669   C506    1.530   1_655 S
C669   O562    1.418   1_655 S
C670   H691    1.111   .     S
C670   H690    1.109   .     S
C670   C671    1.525   .     S
C671   H693    1.110   .     S
C671   H694    1.111   .     S
C672   C673    1.529   .     S
C672   H700    1.111   .     S
C672   O727    1.420   .     S
C672   H701    1.117   .     S
C673   H702    1.107   .     S
C673   H703    1.108   .     S
C673   C510    1.527   1_655 S
C674   H706    1.110   .     S
C674   H704    1.111   .     S
C674   H705    1.110   .     S
C675   H708    1.111   .     S
C675   C676    1.528   .     S
C675   H709    1.118   .     S
C675   O728    1.423   .     S
C676   H711    1.110   .     S
C676   H710    1.110   .     S
C676   C513    1.527   1_655 S
C677   H713    1.110   .     S
C677   H712    1.110   .     S
C677   H714    1.107   .     S
C678   O732    1.277   .     A
C678   O734    1.278   .     A
C678   C680    1.418   .     S
C679   O733    1.271   .     A
C679   C681    1.408   .     S
C679   O735    1.279   .     A
C681   C516    1.348   1_655 S
C681   O562    1.394   1_655 S
C682   N723    1.435   .     S
C683   N724    1.434   .     S
C683   C166    1.385   1_565 S
C684   O727    1.383   .     S
C684   C190    1.381   1_565 S
H686   C1323   1.111   .     S
H687   C1405   1.108   .     S
H692   C507    1.110   1_655 S
H695   N723    1.043   .     S
H697   N723    1.046   .     S
H698   N724    1.045   .     S
H699   N724    1.046   .     S
H720   C1405   1.110   .     S
N721   Zn737   2.004   .     S
N722   Zn738   2.004   .     S
O725   Zn737   1.989   .     S
O729   Zn738   1.989   .     S
O730   Zn738   1.999   .     S
O731   Zn737   1.999   .     S
O732   Zn737   1.985   .     S
O733   Zn738   1.985   .     S
O734   Zn738   1.988   .     S
O735   Zn737   1.988   .     S
O736   C516    1.405   1_655 S
C739   O812    1.285   .     A
C739   O807    1.287   .     A
C739   C742    1.445   .     S
C740   O810    1.390   .     S
C740   C742    1.413   .     A
C740   C1257   1.385   1_545 S
C741   C766    1.407   .     A
C741   C750    1.448   .     S
C741   C765    1.412   .     A
C742   C764    1.411   .     A
C743   H767    1.071   .     S
C743   N804    1.361   .     A
C744   N803    1.366   .     A
C744   H778    1.082   .     S
C744   C1484   1.414   .     S
C745   N803    1.363   .     A
C745   H789    1.079   .     S
C745   C1481   1.411   .     S
C746   N804    1.366   .     A
C746   H797    1.080   .     S
C747   C748    1.540   .     S
C747   O818    1.419   .     S
C747   H798    1.111   .     S
C747   H881    1.109   .     S
C748   H800    1.103   .     S
C748   C749    1.525   .     S
C748   H883    1.107   .     S
C750   O813    1.283   .     A
C750   O811    1.290   .     A
C751   H770    1.110   .     S
C751   H771    1.115   .     S
C751   C834    1.530   .     S
C751   O890    1.418   .     S
C752   H773    1.111   .     S
C752   H772    1.109   .     S
C752   C753    1.525   .     S
C752   C915    1.530   1_455 S
C753   H775    1.110   .     S
C753   H776    1.111   .     S
C753   H938    1.110   1_455 S
C754   C755    1.529   .     S
C754   H782    1.111   .     S
C754   O809    1.420   .     S
C754   H783    1.117   .     S
C755   H784    1.107   .     S
C755   H785    1.108   .     S
C755   C838    1.527   .     S
C756   H788    1.110   .     S
C756   H786    1.111   .     S
C756   H787    1.110   .     S
C756   C919    1.527   1_455 S
C757   H790    1.111   .     S
C757   C758    1.528   .     S
C757   H791    1.118   .     S
C757   O810    1.423   .     S
C758   H793    1.110   .     S
C758   H792    1.110   .     S
C758   C841    1.527   .     S
C759   H795    1.110   .     S
C759   H794    1.110   .     S
C759   H796    1.107   .     S
C759   C922    1.527   1_455 S
C760   O814    1.277   .     A
C760   O816    1.278   .     A
C760   C762    1.418   .     S
C761   O815    1.271   .     A
C761   C763    1.408   .     S
C761   O817    1.279   .     A
C762   C927    1.348   1_455 S
C762   O982    1.405   1_455 S
C763   C844    1.348   .     S
C763   O890    1.394   .     S
C764   N805    1.435   .     S
C764   C1258   1.381   1_545 S
C765   N806    1.434   .     S
C765   C986    1.385   .     S
C766   O809    1.383   .     S
C766   C1010   1.381   .     S
H768   C1651   1.111   1_455 S
H769   C1487   1.108   .     S
H774   C835    1.110   .     S
H777   N805    1.043   .     S
H779   N805    1.046   .     S
H780   N806    1.045   .     S
H781   N806    1.046   .     S
H799   C911    1.109   1_455 S
H801   C912    1.107   1_455 S
H802   C1487   1.110   .     S
N803   Zn819   2.004   .     S
N804   Zn820   2.004   .     S
O807   Zn819   1.989   .     S
O808   C915    1.418   1_455 S
O808   C927    1.394   1_455 S
O811   Zn820   1.989   .     S
O812   Zn820   1.999   .     S
O813   Zn819   1.999   .     S
O814   Zn819   1.985   .     S
O815   Zn820   1.985   .     S
O816   Zn820   1.988   .     S
O817   Zn819   1.988   .     S
O818   C844    1.405   .     S
C821   O894    1.285   .     A
C821   O889    1.287   .     A
C821   C824    1.445   .     S
C822   O892    1.390   .     S
C822   C824    1.413   .     A
C822   C1339   1.385   1_545 S
C823   C848    1.407   .     A
C823   C832    1.448   .     S
C823   C847    1.412   .     A
C824   C846    1.411   .     A
C825   H849    1.071   .     S
C825   N886    1.361   .     A
C826   N885    1.366   .     A
C826   H860    1.082   .     S
C826   C1566   1.414   .     S
C827   N885    1.363   .     A
C827   H871    1.079   .     S
C827   C1563   1.411   .     S
C828   N886    1.366   .     A
C828   H879    1.080   .     S
C829   C830    1.540   .     S
C829   O900    1.419   .     S
C829   H880    1.111   .     S
C829   H963    1.109   .     S
C830   H882    1.103   .     S
C830   C831    1.525   .     S
C830   H965    1.107   .     S
C832   O895    1.283   .     A
C832   O893    1.290   .     A
C833   H852    1.110   .     S
C833   H853    1.115   .     S
C833   C916    1.530   .     S
C833   O972    1.418   .     S
C834   H855    1.111   .     S
C834   H854    1.109   .     S
C834   C835    1.525   .     S
C835   H857    1.110   .     S
C835   H858    1.111   .     S
C836   C837    1.529   .     S
C836   H864    1.111   .     S
C836   O891    1.420   .     S
C836   H865    1.117   .     S
C837   H866    1.107   .     S
C837   H867    1.108   .     S
C837   C920    1.527   .     S
C838   H870    1.110   .     S
C838   H868    1.111   .     S
C838   H869    1.110   .     S
C839   H872    1.111   .     S
C839   C840    1.528   .     S
C839   H873    1.118   .     S
C839   O892    1.423   .     S
C840   H875    1.110   .     S
C840   H874    1.110   .     S
C840   C923    1.527   .     S
C841   H877    1.110   .     S
C841   H876    1.110   .     S
C841   H878    1.107   .     S
C842   O896    1.277   .     A
C842   O898    1.278   .     A
C842   C844    1.418   .     S
C843   O897    1.271   .     A
C843   C845    1.408   .     S
C843   O899    1.279   .     A
C845   C926    1.348   .     S
C845   O972    1.394   .     S
C846   N887    1.435   .     S
C846   C1340   1.381   1_545 S
C847   N888    1.434   .     S
C847   C1068   1.385   .     S
C848   O891    1.383   .     S
C848   C1092   1.381   .     S
H850   C1487   1.111   .     S
H851   C1569   1.108   .     S
H856   C917    1.110   .     S
H859   N887    1.043   .     S
H861   N887    1.046   .     S
H862   N888    1.045   .     S
H863   N888    1.046   .     S
H884   C1569   1.110   .     S
N885   Zn901   2.004   .     S
N886   Zn902   2.004   .     S
O889   Zn901   1.989   .     S
O893   Zn902   1.989   .     S
O894   Zn902   1.999   .     S
O895   Zn901   1.999   .     S
O896   Zn901   1.985   .     S
O897   Zn902   1.985   .     S
O898   Zn902   1.988   .     S
O899   Zn901   1.988   .     S
O900   C926    1.405   .     S
C903   O976    1.285   .     A
C903   O971    1.287   .     A
C903   C906    1.445   .     S
C904   O974    1.390   .     S
C904   C906    1.413   .     A
C904   C1421   1.385   1_545 S
C905   C930    1.407   .     A
C905   C914    1.448   .     S
C905   C929    1.412   .     A
C906   C928    1.411   .     A
C907   H931    1.071   .     S
C907   N968    1.361   .     A
C908   N967    1.366   .     A
C908   H942    1.082   .     S
C908   C1648   1.414   .     S
C909   N967    1.363   .     A
C909   H953    1.079   .     S
C909   C1645   1.411   .     S
C910   N968    1.366   .     A
C910   H961    1.080   .     S
C911   C912    1.540   .     S
C911   O982    1.419   .     S
C911   H962    1.111   .     S
C911   H799    1.109   1_655 S
C912   H964    1.103   .     S
C912   C913    1.525   .     S
C912   H801    1.107   1_655 S
C913   H30     1.111   1_655 S
C914   O977    1.283   .     A
C914   O975    1.290   .     A
C915   H934    1.110   .     S
C915   H935    1.115   .     S
C915   C752    1.530   1_655 S
C915   O808    1.418   1_655 S
C916   H937    1.111   .     S
C916   H936    1.109   .     S
C916   C917    1.525   .     S
C917   H939    1.110   .     S
C917   H940    1.111   .     S
C918   C919    1.529   .     S
C918   H946    1.111   .     S
C918   O973    1.420   .     S
C918   H947    1.117   .     S
C919   H948    1.107   .     S
C919   H949    1.108   .     S
C919   C756    1.527   1_655 S
C920   H952    1.110   .     S
C920   H950    1.111   .     S
C920   H951    1.110   .     S
C921   H954    1.111   .     S
C921   C922    1.528   .     S
C921   H955    1.118   .     S
C921   O974    1.423   .     S
C922   H957    1.110   .     S
C922   H956    1.110   .     S
C922   C759    1.527   1_655 S
C923   H959    1.110   .     S
C923   H958    1.110   .     S
C923   H960    1.107   .     S
C924   O978    1.277   .     A
C924   O980    1.278   .     A
C924   C926    1.418   .     S
C925   O979    1.271   .     A
C925   C927    1.408   .     S
C925   O981    1.279   .     A
C927   C762    1.348   1_655 S
C927   O808    1.394   1_655 S
C928   N969    1.435   .     S
C928   C1422   1.381   1_545 S
C929   N970    1.434   .     S
C929   C1150   1.385   .     S
C930   O973    1.383   .     S
C930   C1174   1.381   .     S
H932   C1569   1.111   .     S
H933   C1651   1.108   .     S
H938   C753    1.110   1_655 S
H941   N969    1.043   .     S
H943   N969    1.046   .     S
H944   N970    1.045   .     S
H945   N970    1.046   .     S
H966   C1651   1.110   .     S
N967   Zn983   2.004   .     S
N968   Zn984   2.004   .     S
O971   Zn983   1.989   .     S
O975   Zn984   1.989   .     S
O976   Zn984   1.999   .     S
O977   Zn983   1.999   .     S
O978   Zn983   1.985   .     S
O979   Zn984   1.985   .     S
O980   Zn984   1.988   .     S
O981   Zn983   1.988   .     S
O982   C762    1.405   1_655 S
C985   O1058   1.285   .     A
C985   O1053   1.287   .     A
C985   C988    1.445   .     S
C986   O1056   1.390   .     S
C986   C988    1.413   .     A
C987   C1012   1.407   .     A
C987   C996    1.448   .     S
C987   C1011   1.412   .     A
C988   C1010   1.411   .     A
C989   H1013   1.071   .     S
C989   N1050   1.361   .     A
C990   N1049   1.366   .     A
C990   H1024   1.082   .     S
C990   C1730   1.414   .     S
C991   N1049   1.363   .     A
C991   H1035   1.079   .     S
C991   C1727   1.411   .     S
C992   N1050   1.366   .     A
C992   H1043   1.080   .     S
C993   C994    1.540   .     S
C993   O1064   1.419   .     S
C993   H1044   1.111   .     S
C993   H1127   1.109   .     S
C994   H1046   1.103   .     S
C994   C995    1.525   .     S
C994   H1129   1.107   .     S
C996   O1059   1.283   .     A
C996   O1057   1.290   .     A
C997   H1016   1.110   .     S
C997   H1017   1.115   .     S
C997   C1080   1.530   .     S
C997   O1136   1.418   .     S
C998   H1019   1.111   .     S
C998   H1018   1.109   .     S
C998   C999    1.525   .     S
C998   C1161   1.530   1_455 S
C999   H1021   1.110   .     S
C999   H1022   1.111   .     S
C999   H1184   1.110   1_455 S
C1000  C1001   1.529   .     S
C1000  H1028   1.111   .     S
C1000  O1055   1.420   .     S
C1000  H1029   1.117   .     S
C1001  H1030   1.107   .     S
C1001  H1031   1.108   .     S
C1001  C1084   1.527   .     S
C1002  H1034   1.110   .     S
C1002  H1032   1.111   .     S
C1002  H1033   1.110   .     S
C1002  C1165   1.527   1_455 S
C1003  H1036   1.111   .     S
C1003  C1004   1.528   .     S
C1003  H1037   1.118   .     S
C1003  O1056   1.423   .     S
C1004  H1039   1.110   .     S
C1004  H1038   1.110   .     S
C1004  C1087   1.527   .     S
C1005  H1041   1.110   .     S
C1005  H1040   1.110   .     S
C1005  H1042   1.107   .     S
C1005  C1168   1.527   1_455 S
C1006  O1060   1.277   .     A
C1006  O1062   1.278   .     A
C1006  C1008   1.418   .     S
C1007  O1061   1.271   .     A
C1007  C1009   1.408   .     S
C1007  O1063   1.279   .     A
C1008  C1173   1.348   1_455 S
C1008  O1228   1.405   1_455 S
C1009  C1090   1.348   .     S
C1009  O1136   1.394   .     S
C1010  N1051   1.435   .     S
C1011  N1052   1.434   .     S
C1011  C1232   1.385   .     S
C1012  O1055   1.383   .     S
C1012  C1256   1.381   .     S
H1014  C1897   1.111   1_455 S
H1015  C1733   1.108   .     S
H1020  C1081   1.110   .     S
H1023  N1051   1.043   .     S
H1025  N1051   1.046   .     S
H1026  N1052   1.045   .     S
H1027  N1052   1.046   .     S
H1045  C1157   1.109   1_455 S
H1047  C1158   1.107   1_455 S
H1048  C1733   1.110   .     S
N1049  Zn1065  2.004   .     S
N1050  Zn1066  2.004   .     S
O1053  Zn1065  1.989   .     S
O1054  C1161   1.418   1_455 S
O1054  C1173   1.394   1_455 S
O1057  Zn1066  1.989   .     S
O1058  Zn1066  1.999   .     S
O1059  Zn1065  1.999   .     S
O1060  Zn1065  1.985   .     S
O1061  Zn1066  1.985   .     S
O1062  Zn1066  1.988   .     S
O1063  Zn1065  1.988   .     S
O1064  C1090   1.405   .     S
C1067  O1140   1.285   .     A
C1067  O1135   1.287   .     A
C1067  C1070   1.445   .     S
C1068  O1138   1.390   .     S
C1068  C1070   1.413   .     A
C1069  C1094   1.407   .     A
C1069  C1078   1.448   .     S
C1069  C1093   1.412   .     A
C1070  C1092   1.411   .     A
C1071  H1095   1.071   .     S
C1071  N1132   1.361   .     A
C1072  N1131   1.366   .     A
C1072  H1106   1.082   .     S
C1072  C1812   1.414   .     S
C1073  N1131   1.363   .     A
C1073  H1117   1.079   .     S
C1073  C1809   1.411   .     S
C1074  N1132   1.366   .     A
C1074  H1125   1.080   .     S
C1075  C1076   1.540   .     S
C1075  O1146   1.419   .     S
C1075  H1126   1.111   .     S
C1075  H1209   1.109   .     S
C1076  H1128   1.103   .     S
C1076  C1077   1.525   .     S
C1076  H1211   1.107   .     S
C1078  O1141   1.283   .     A
C1078  O1139   1.290   .     A
C1079  H1098   1.110   .     S
C1079  H1099   1.115   .     S
C1079  C1162   1.530   .     S
C1079  O1218   1.418   .     S
C1080  H1101   1.111   .     S
C1080  H1100   1.109   .     S
C1080  C1081   1.525   .     S
C1081  H1103   1.110   .     S
C1081  H1104   1.111   .     S
C1082  C1083   1.529   .     S
C1082  H1110   1.111   .     S
C1082  O1137   1.420   .     S
C1082  H1111   1.117   .     S
C1083  H1112   1.107   .     S
C1083  H1113   1.108   .     S
C1083  C1166   1.527   .     S
C1084  H1116   1.110   .     S
C1084  H1114   1.111   .     S
C1084  H1115   1.110   .     S
C1085  H1118   1.111   .     S
C1085  C1086   1.528   .     S
C1085  H1119   1.118   .     S
C1085  O1138   1.423   .     S
C1086  H1121   1.110   .     S
C1086  H1120   1.110   .     S
C1086  C1169   1.527   .     S
C1087  H1123   1.110   .     S
C1087  H1122   1.110   .     S
C1087  H1124   1.107   .     S
C1088  O1142   1.277   .     A
C1088  O1144   1.278   .     A
C1088  C1090   1.418   .     S
C1089  O1143   1.271   .     A
C1089  C1091   1.408   .     S
C1089  O1145   1.279   .     A
C1091  C1172   1.348   .     S
C1091  O1218   1.394   .     S
C1092  N1133   1.435   .     S
C1093  N1134   1.434   .     S
C1093  C1314   1.385   .     S
C1094  O1137   1.383   .     S
C1094  C1338   1.381   .     S
H1096  C1733   1.111   .     S
H1097  C1815   1.108   .     S
H1102  C1163   1.110   .     S
H1105  N1133   1.043   .     S
H1107  N1133   1.046   .     S
H1108  N1134   1.045   .     S
H1109  N1134   1.046   .     S
H1130  C1815   1.110   .     S
N1131  Zn1147  2.004   .     S
N1132  Zn1148  2.004   .     S
O1135  Zn1147  1.989   .     S
O1139  Zn1148  1.989   .     S
O1140  Zn1148  1.999   .     S
O1141  Zn1147  1.999   .     S
O1142  Zn1147  1.985   .     S
O1143  Zn1148  1.985   .     S
O1144  Zn1148  1.988   .     S
O1145  Zn1147  1.988   .     S
O1146  C1172   1.405   .     S
C1149  O1222   1.285   .     A
C1149  O1217   1.287   .     A
C1149  C1152   1.445   .     S
C1150  O1220   1.390   .     S
C1150  C1152   1.413   .     A
C1151  C1176   1.407   .     A
C1151  C1160   1.448   .     S
C1151  C1175   1.412   .     A
C1152  C1174   1.411   .     A
C1153  H1177   1.071   .     S
C1153  N1214   1.361   .     A
C1154  N1213   1.366   .     A
C1154  H1188   1.082   .     S
C1154  C1894   1.414   .     S
C1155  N1213   1.363   .     A
C1155  H1199   1.079   .     S
C1155  C1891   1.411   .     S
C1156  N1214   1.366   .     A
C1156  H1207   1.080   .     S
C1157  C1158   1.540   .     S
C1157  O1228   1.419   .     S
C1157  H1208   1.111   .     S
C1157  H1045   1.109   1_655 S
C1158  H1210   1.103   .     S
C1158  C1159   1.525   .     S
C1158  H1047   1.107   1_655 S
C1159  H276    1.111   1_655 S
C1160  O1223   1.283   .     A
C1160  O1221   1.290   .     A
C1161  H1180   1.110   .     S
C1161  H1181   1.115   .     S
C1161  C998    1.530   1_655 S
C1161  O1054   1.418   1_655 S
C1162  H1183   1.111   .     S
C1162  H1182   1.109   .     S
C1162  C1163   1.525   .     S
C1163  H1185   1.110   .     S
C1163  H1186   1.111   .     S
C1164  C1165   1.529   .     S
C1164  H1192   1.111   .     S
C1164  O1219   1.420   .     S
C1164  H1193   1.117   .     S
C1165  H1194   1.107   .     S
C1165  H1195   1.108   .     S
C1165  C1002   1.527   1_655 S
C1166  H1198   1.110   .     S
C1166  H1196   1.111   .     S
C1166  H1197   1.110   .     S
C1167  H1200   1.111   .     S
C1167  C1168   1.528   .     S
C1167  H1201   1.118   .     S
C1167  O1220   1.423   .     S
C1168  H1203   1.110   .     S
C1168  H1202   1.110   .     S
C1168  C1005   1.527   1_655 S
C1169  H1205   1.110   .     S
C1169  H1204   1.110   .     S
C1169  H1206   1.107   .     S
C1170  O1224   1.277   .     A
C1170  O1226   1.278   .     A
C1170  C1172   1.418   .     S
C1171  O1225   1.271   .     A
C1171  C1173   1.408   .     S
C1171  O1227   1.279   .     A
C1173  C1008   1.348   1_655 S
C1173  O1054   1.394   1_655 S
C1174  N1215   1.435   .     S
C1175  N1216   1.434   .     S
C1175  C1396   1.385   .     S
C1176  O1219   1.383   .     S
C1176  C1420   1.381   .     S
H1178  C1815   1.111   .     S
H1179  C1897   1.108   .     S
H1184  C999    1.110   1_655 S
H1187  N1215   1.043   .     S
H1189  N1215   1.046   .     S
H1190  N1216   1.045   .     S
H1191  N1216   1.046   .     S
H1212  C1897   1.110   .     S
N1213  Zn1229  2.004   .     S
N1214  Zn1230  2.004   .     S
O1217  Zn1229  1.989   .     S
O1221  Zn1230  1.989   .     S
O1222  Zn1230  1.999   .     S
O1223  Zn1229  1.999   .     S
O1224  Zn1229  1.985   .     S
O1225  Zn1230  1.985   .     S
O1226  Zn1230  1.988   .     S
O1227  Zn1229  1.988   .     S
O1228  C1008   1.405   1_655 S
C1231  O1304   1.285   .     A
C1231  O1299   1.287   .     A
C1231  C1234   1.445   .     S
C1232  O1302   1.390   .     S
C1232  C1234   1.413   .     A
C1233  C1258   1.407   .     A
C1233  C1242   1.448   .     S
C1233  C1257   1.412   .     A
C1234  C1256   1.411   .     A
C1235  H1259   1.071   .     S
C1235  N1296   1.361   .     A
C1236  N1295   1.366   .     A
C1236  H1270   1.082   .     S
C1236  C1976   1.414   .     S
C1237  N1295   1.363   .     A
C1237  H1281   1.079   .     S
C1237  C1973   1.411   .     S
C1238  N1296   1.366   .     A
C1238  H1289   1.080   .     S
C1239  C1240   1.540   .     S
C1239  O1310   1.419   .     S
C1239  H1290   1.111   .     S
C1239  H1373   1.109   .     S
C1240  H1292   1.103   .     S
C1240  C1241   1.525   .     S
C1240  H1375   1.107   .     S
C1242  O1305   1.283   .     A
C1242  O1303   1.290   .     A
C1243  H1262   1.110   .     S
C1243  H1263   1.115   .     S
C1243  C1326   1.530   .     S
C1243  O1382   1.418   .     S
C1244  H1265   1.111   .     S
C1244  H1264   1.109   .     S
C1244  C1245   1.525   .     S
C1244  C1407   1.530   1_455 S
C1245  H1267   1.110   .     S
C1245  H1268   1.111   .     S
C1245  H1430   1.110   1_455 S
C1246  C1247   1.529   .     S
C1246  H1274   1.111   .     S
C1246  O1301   1.420   .     S
C1246  H1275   1.117   .     S
C1247  H1276   1.107   .     S
C1247  H1277   1.108   .     S
C1247  C1330   1.527   .     S
C1248  H1280   1.110   .     S
C1248  H1278   1.111   .     S
C1248  H1279   1.110   .     S
C1248  C1411   1.527   1_455 S
C1249  H1282   1.111   .     S
C1249  C1250   1.528   .     S
C1249  H1283   1.118   .     S
C1249  O1302   1.423   .     S
C1250  H1285   1.110   .     S
C1250  H1284   1.110   .     S
C1250  C1333   1.527   .     S
C1251  H1287   1.110   .     S
C1251  H1286   1.110   .     S
C1251  H1288   1.107   .     S
C1251  C1414   1.527   1_455 S
C1252  O1306   1.277   .     A
C1252  O1308   1.278   .     A
C1252  C1254   1.418   .     S
C1253  O1307   1.271   .     A
C1253  C1255   1.408   .     S
C1253  O1309   1.279   .     A
C1254  C1419   1.348   1_455 S
C1254  O1474   1.405   1_455 S
C1255  C1336   1.348   .     S
C1255  O1382   1.394   .     S
C1256  N1297   1.435   .     S
C1257  N1298   1.434   .     S
C1257  C740    1.385   1_565 S
C1258  O1301   1.383   .     S
C1258  C764    1.381   1_565 S
H1260  C2143   1.111   1_455 S
H1261  C1979   1.108   .     S
H1266  C1327   1.110   .     S
H1269  N1297   1.043   .     S
H1271  N1297   1.046   .     S
H1272  N1298   1.045   .     S
H1273  N1298   1.046   .     S
H1291  C1403   1.109   1_455 S
H1293  C1404   1.107   1_455 S
H1294  C1979   1.110   .     S
N1295  Zn1311  2.004   .     S
N1296  Zn1312  2.004   .     S
O1299  Zn1311  1.989   .     S
O1300  C1407   1.418   1_455 S
O1300  C1419   1.394   1_455 S
O1303  Zn1312  1.989   .     S
O1304  Zn1312  1.999   .     S
O1305  Zn1311  1.999   .     S
O1306  Zn1311  1.985   .     S
O1307  Zn1312  1.985   .     S
O1308  Zn1312  1.988   .     S
O1309  Zn1311  1.988   .     S
O1310  C1336   1.405   .     S
C1313  O1386   1.285   .     A
C1313  O1381   1.287   .     A
C1313  C1316   1.445   .     S
C1314  O1384   1.390   .     S
C1314  C1316   1.413   .     A
C1315  C1340   1.407   .     A
C1315  C1324   1.448   .     S
C1315  C1339   1.412   .     A
C1316  C1338   1.411   .     A
C1317  H1341   1.071   .     S
C1317  N1378   1.361   .     A
C1318  N1377   1.366   .     A
C1318  H1352   1.082   .     S
C1318  C2058   1.414   .     S
C1319  N1377   1.363   .     A
C1319  H1363   1.079   .     S
C1319  C2055   1.411   .     S
C1320  N1378   1.366   .     A
C1320  H1371   1.080   .     S
C1321  C1322   1.540   .     S
C1321  O1392   1.419   .     S
C1321  H1372   1.111   .     S
C1321  H1455   1.109   .     S
C1322  H1374   1.103   .     S
C1322  C1323   1.525   .     S
C1322  H1457   1.107   .     S
C1324  O1387   1.283   .     A
C1324  O1385   1.290   .     A
C1325  H1344   1.110   .     S
C1325  H1345   1.115   .     S
C1325  C1408   1.530   .     S
C1325  O1464   1.418   .     S
C1326  H1347   1.111   .     S
C1326  H1346   1.109   .     S
C1326  C1327   1.525   .     S
C1327  H1349   1.110   .     S
C1327  H1350   1.111   .     S
C1328  C1329   1.529   .     S
C1328  H1356   1.111   .     S
C1328  O1383   1.420   .     S
C1328  H1357   1.117   .     S
C1329  H1358   1.107   .     S
C1329  H1359   1.108   .     S
C1329  C1412   1.527   .     S
C1330  H1362   1.110   .     S
C1330  H1360   1.111   .     S
C1330  H1361   1.110   .     S
C1331  H1364   1.111   .     S
C1331  C1332   1.528   .     S
C1331  H1365   1.118   .     S
C1331  O1384   1.423   .     S
C1332  H1367   1.110   .     S
C1332  H1366   1.110   .     S
C1332  C1415   1.527   .     S
C1333  H1369   1.110   .     S
C1333  H1368   1.110   .     S
C1333  H1370   1.107   .     S
C1334  O1388   1.277   .     A
C1334  O1390   1.278   .     A
C1334  C1336   1.418   .     S
C1335  O1389   1.271   .     A
C1335  C1337   1.408   .     S
C1335  O1391   1.279   .     A
C1337  C1418   1.348   .     S
C1337  O1464   1.394   .     S
C1338  N1379   1.435   .     S
C1339  N1380   1.434   .     S
C1339  C822    1.385   1_565 S
C1340  O1383   1.383   .     S
C1340  C846    1.381   1_565 S
H1342  C1979   1.111   .     S
H1343  C2061   1.108   .     S
H1348  C1409   1.110   .     S
H1351  N1379   1.043   .     S
H1353  N1379   1.046   .     S
H1354  N1380   1.045   .     S
H1355  N1380   1.046   .     S
H1376  C2061   1.110   .     S
N1377  Zn1393  2.004   .     S
N1378  Zn1394  2.004   .     S
O1381  Zn1393  1.989   .     S
O1385  Zn1394  1.989   .     S
O1386  Zn1394  1.999   .     S
O1387  Zn1393  1.999   .     S
O1388  Zn1393  1.985   .     S
O1389  Zn1394  1.985   .     S
O1390  Zn1394  1.988   .     S
O1391  Zn1393  1.988   .     S
O1392  C1418   1.405   .     S
C1395  O1468   1.285   .     A
C1395  O1463   1.287   .     A
C1395  C1398   1.445   .     S
C1396  O1466   1.390   .     S
C1396  C1398   1.413   .     A
C1397  C1422   1.407   .     A
C1397  C1406   1.448   .     S
C1397  C1421   1.412   .     A
C1398  C1420   1.411   .     A
C1399  H1423   1.071   .     S
C1399  N1460   1.361   .     A
C1400  N1459   1.366   .     A
C1400  H1434   1.082   .     S
C1400  C2140   1.414   .     S
C1401  N1459   1.363   .     A
C1401  H1445   1.079   .     S
C1401  C2137   1.411   .     S
C1402  N1460   1.366   .     A
C1402  H1453   1.080   .     S
C1403  C1404   1.540   .     S
C1403  O1474   1.419   .     S
C1403  H1454   1.111   .     S
C1403  H1291   1.109   1_655 S
C1404  H1456   1.103   .     S
C1404  C1405   1.525   .     S
C1404  H1293   1.107   1_655 S
C1405  H522    1.111   1_655 S
C1406  O1469   1.283   .     A
C1406  O1467   1.290   .     A
C1407  H1426   1.110   .     S
C1407  H1427   1.115   .     S
C1407  C1244   1.530   1_655 S
C1407  O1300   1.418   1_655 S
C1408  H1429   1.111   .     S
C1408  H1428   1.109   .     S
C1408  C1409   1.525   .     S
C1409  H1431   1.110   .     S
C1409  H1432   1.111   .     S
C1410  C1411   1.529   .     S
C1410  H1438   1.111   .     S
C1410  O1465   1.420   .     S
C1410  H1439   1.117   .     S
C1411  H1440   1.107   .     S
C1411  H1441   1.108   .     S
C1411  C1248   1.527   1_655 S
C1412  H1444   1.110   .     S
C1412  H1442   1.111   .     S
C1412  H1443   1.110   .     S
C1413  H1446   1.111   .     S
C1413  C1414   1.528   .     S
C1413  H1447   1.118   .     S
C1413  O1466   1.423   .     S
C1414  H1449   1.110   .     S
C1414  H1448   1.110   .     S
C1414  C1251   1.527   1_655 S
C1415  H1451   1.110   .     S
C1415  H1450   1.110   .     S
C1415  H1452   1.107   .     S
C1416  O1470   1.277   .     A
C1416  O1472   1.278   .     A
C1416  C1418   1.418   .     S
C1417  O1471   1.271   .     A
C1417  C1419   1.408   .     S
C1417  O1473   1.279   .     A
C1419  C1254   1.348   1_655 S
C1419  O1300   1.394   1_655 S
C1420  N1461   1.435   .     S
C1421  N1462   1.434   .     S
C1421  C904    1.385   1_565 S
C1422  O1465   1.383   .     S
C1422  C928    1.381   1_565 S
H1424  C2061   1.111   .     S
H1425  C2143   1.108   .     S
H1430  C1245   1.110   1_655 S
H1433  N1461   1.043   .     S
H1435  N1461   1.046   .     S
H1436  N1462   1.045   .     S
H1437  N1462   1.046   .     S
H1458  C2143   1.110   .     S
N1459  Zn1475  2.004   .     S
N1460  Zn1476  2.004   .     S
O1463  Zn1475  1.989   .     S
O1467  Zn1476  1.989   .     S
O1468  Zn1476  1.999   .     S
O1469  Zn1475  1.999   .     S
O1470  Zn1475  1.985   .     S
O1471  Zn1476  1.985   .     S
O1472  Zn1476  1.988   .     S
O1473  Zn1475  1.988   .     S
O1474  C1254   1.405   1_655 S
C1477  O1550   1.285   .     A
C1477  O1545   1.287   .     A
C1477  C1480   1.445   .     S
C1478  O1548   1.390   .     S
C1478  C1480   1.413   .     A
C1478  C1995   1.385   1_545 S
C1479  C1504   1.407   .     A
C1479  C1488   1.448   .     S
C1479  C1503   1.412   .     A
C1480  C1502   1.411   .     A
C1481  H1505   1.071   .     S
C1481  N1542   1.361   .     A
C1482  N1541   1.366   .     A
C1482  H1516   1.082   .     S
C1482  C8      1.414   1_556 S
C1483  N1541   1.363   .     A
C1483  H1527   1.079   .     S
C1483  C5      1.411   1_556 S
C1484  N1542   1.366   .     A
C1484  H1535   1.080   .     S
C1485  C1486   1.540   .     S
C1485  O1556   1.419   .     S
C1485  H1536   1.111   .     S
C1485  H1619   1.109   .     S
C1486  H1538   1.103   .     S
C1486  C1487   1.525   .     S
C1486  H1621   1.107   .     S
C1488  O1551   1.283   .     A
C1488  O1549   1.290   .     A
C1489  H1508   1.110   .     S
C1489  H1509   1.115   .     S
C1489  C1572   1.530   .     S
C1489  O1628   1.418   .     S
C1490  H1511   1.111   .     S
C1490  H1510   1.109   .     S
C1490  C1491   1.525   .     S
C1490  C1653   1.530   1_455 S
C1491  H1513   1.110   .     S
C1491  H1514   1.111   .     S
C1491  H1676   1.110   1_455 S
C1492  C1493   1.529   .     S
C1492  H1520   1.111   .     S
C1492  O1547   1.420   .     S
C1492  H1521   1.117   .     S
C1493  H1522   1.107   .     S
C1493  H1523   1.108   .     S
C1493  C1576   1.527   .     S
C1494  H1526   1.110   .     S
C1494  H1524   1.111   .     S
C1494  H1525   1.110   .     S
C1494  C1657   1.527   1_455 S
C1495  H1528   1.111   .     S
C1495  C1496   1.528   .     S
C1495  H1529   1.118   .     S
C1495  O1548   1.423   .     S
C1496  H1531   1.110   .     S
C1496  H1530   1.110   .     S
C1496  C1579   1.527   .     S
C1497  H1533   1.110   .     S
C1497  H1532   1.110   .     S
C1497  H1534   1.107   .     S
C1497  C1660   1.527   1_455 S
C1498  O1552   1.277   .     A
C1498  O1554   1.278   .     A
C1498  C1500   1.418   .     S
C1499  O1553   1.271   .     A
C1499  C1501   1.408   .     S
C1499  O1555   1.279   .     A
C1500  C1665   1.348   1_455 S
C1500  O1720   1.405   1_455 S
C1501  C1582   1.348   .     S
C1501  O1628   1.394   .     S
C1502  N1543   1.435   .     S
C1502  C1996   1.381   1_545 S
C1503  N1544   1.434   .     S
C1503  C1724   1.385   .     S
C1504  O1547   1.383   .     S
C1504  C1748   1.381   .     S
H1506  C175    1.111   1_456 S
H1507  C11     1.108   1_556 S
H1512  C1573   1.110   .     S
H1515  N1543   1.043   .     S
H1517  N1543   1.046   .     S
H1518  N1544   1.045   .     S
H1519  N1544   1.046   .     S
H1537  C1649   1.109   1_455 S
H1539  C1650   1.107   1_455 S
H1540  C11     1.110   1_556 S
N1541  Zn1557  2.004   .     S
N1542  Zn1558  2.004   .     S
O1545  Zn1557  1.989   .     S
O1546  C1653   1.418   1_455 S
O1546  C1665   1.394   1_455 S
O1549  Zn1558  1.989   .     S
O1550  Zn1558  1.999   .     S
O1551  Zn1557  1.999   .     S
O1552  Zn1557  1.985   .     S
O1553  Zn1558  1.985   .     S
O1554  Zn1558  1.988   .     S
O1555  Zn1557  1.988   .     S
O1556  C1582   1.405   .     S
C1559  O1632   1.285   .     A
C1559  O1627   1.287   .     A
C1559  C1562   1.445   .     S
C1560  O1630   1.390   .     S
C1560  C1562   1.413   .     A
C1560  C2077   1.385   1_545 S
C1561  C1586   1.407   .     A
C1561  C1570   1.448   .     S
C1561  C1585   1.412   .     A
C1562  C1584   1.411   .     A
C1563  H1587   1.071   .     S
C1563  N1624   1.361   .     A
C1564  N1623   1.366   .     A
C1564  H1598   1.082   .     S
C1564  C90     1.414   1_556 S
C1565  N1623   1.363   .     A
C1565  H1609   1.079   .     S
C1565  C87     1.411   1_556 S
C1566  N1624   1.366   .     A
C1566  H1617   1.080   .     S
C1567  C1568   1.540   .     S
C1567  O1638   1.419   .     S
C1567  H1618   1.111   .     S
C1567  H1701   1.109   .     S
C1568  H1620   1.103   .     S
C1568  C1569   1.525   .     S
C1568  H1703   1.107   .     S
C1570  O1633   1.283   .     A
C1570  O1631   1.290   .     A
C1571  H1590   1.110   .     S
C1571  H1591   1.115   .     S
C1571  C1654   1.530   .     S
C1571  O1710   1.418   .     S
C1572  H1593   1.111   .     S
C1572  H1592   1.109   .     S
C1572  C1573   1.525   .     S
C1573  H1595   1.110   .     S
C1573  H1596   1.111   .     S
C1574  C1575   1.529   .     S
C1574  H1602   1.111   .     S
C1574  O1629   1.420   .     S
C1574  H1603   1.117   .     S
C1575  H1604   1.107   .     S
C1575  H1605   1.108   .     S
C1575  C1658   1.527   .     S
C1576  H1608   1.110   .     S
C1576  H1606   1.111   .     S
C1576  H1607   1.110   .     S
C1577  H1610   1.111   .     S
C1577  C1578   1.528   .     S
C1577  H1611   1.118   .     S
C1577  O1630   1.423   .     S
C1578  H1613   1.110   .     S
C1578  H1612   1.110   .     S
C1578  C1661   1.527   .     S
C1579  H1615   1.110   .     S
C1579  H1614   1.110   .     S
C1579  H1616   1.107   .     S
C1580  O1634   1.277   .     A
C1580  O1636   1.278   .     A
C1580  C1582   1.418   .     S
C1581  O1635   1.271   .     A
C1581  C1583   1.408   .     S
C1581  O1637   1.279   .     A
C1583  C1664   1.348   .     S
C1583  O1710   1.394   .     S
C1584  N1625   1.435   .     S
C1584  C2078   1.381   1_545 S
C1585  N1626   1.434   .     S
C1585  C1806   1.385   .     S
C1586  O1629   1.383   .     S
C1586  C1830   1.381   .     S
H1588  C11     1.111   1_556 S
H1589  C93     1.108   1_556 S
H1594  C1655   1.110   .     S
H1597  N1625   1.043   .     S
H1599  N1625   1.046   .     S
H1600  N1626   1.045   .     S
H1601  N1626   1.046   .     S
H1622  C93     1.110   1_556 S
N1623  Zn1639  2.004   .     S
N1624  Zn1640  2.004   .     S
O1627  Zn1639  1.989   .     S
O1631  Zn1640  1.989   .     S
O1632  Zn1640  1.999   .     S
O1633  Zn1639  1.999   .     S
O1634  Zn1639  1.985   .     S
O1635  Zn1640  1.985   .     S
O1636  Zn1640  1.988   .     S
O1637  Zn1639  1.988   .     S
O1638  C1664   1.405   .     S
C1641  O1714   1.285   .     A
C1641  O1709   1.287   .     A
C1641  C1644   1.445   .     S
C1642  O1712   1.390   .     S
C1642  C1644   1.413   .     A
C1642  C2159   1.385   1_545 S
C1643  C1668   1.407   .     A
C1643  C1652   1.448   .     S
C1643  C1667   1.412   .     A
C1644  C1666   1.411   .     A
C1645  H1669   1.071   .     S
C1645  N1706   1.361   .     A
C1646  N1705   1.366   .     A
C1646  H1680   1.082   .     S
C1646  C172    1.414   1_556 S
C1647  N1705   1.363   .     A
C1647  H1691   1.079   .     S
C1647  C169    1.411   1_556 S
C1648  N1706   1.366   .     A
C1648  H1699   1.080   .     S
C1649  C1650   1.540   .     S
C1649  O1720   1.419   .     S
C1649  H1700   1.111   .     S
C1649  H1537   1.109   1_655 S
C1650  H1702   1.103   .     S
C1650  C1651   1.525   .     S
C1650  H1539   1.107   1_655 S
C1651  H768    1.111   1_655 S
C1652  O1715   1.283   .     A
C1652  O1713   1.290   .     A
C1653  H1672   1.110   .     S
C1653  H1673   1.115   .     S
C1653  C1490   1.530   1_655 S
C1653  O1546   1.418   1_655 S
C1654  H1675   1.111   .     S
C1654  H1674   1.109   .     S
C1654  C1655   1.525   .     S
C1655  H1677   1.110   .     S
C1655  H1678   1.111   .     S
C1656  C1657   1.529   .     S
C1656  H1684   1.111   .     S
C1656  O1711   1.420   .     S
C1656  H1685   1.117   .     S
C1657  H1686   1.107   .     S
C1657  H1687   1.108   .     S
C1657  C1494   1.527   1_655 S
C1658  H1690   1.110   .     S
C1658  H1688   1.111   .     S
C1658  H1689   1.110   .     S
C1659  H1692   1.111   .     S
C1659  C1660   1.528   .     S
C1659  H1693   1.118   .     S
C1659  O1712   1.423   .     S
C1660  H1695   1.110   .     S
C1660  H1694   1.110   .     S
C1660  C1497   1.527   1_655 S
C1661  H1697   1.110   .     S
C1661  H1696   1.110   .     S
C1661  H1698   1.107   .     S
C1662  O1716   1.277   .     A
C1662  O1718   1.278   .     A
C1662  C1664   1.418   .     S
C1663  O1717   1.271   .     A
C1663  C1665   1.408   .     S
C1663  O1719   1.279   .     A
C1665  C1500   1.348   1_655 S
C1665  O1546   1.394   1_655 S
C1666  N1707   1.435   .     S
C1666  C2160   1.381   1_545 S
C1667  N1708   1.434   .     S
C1667  C1888   1.385   .     S
C1668  O1711   1.383   .     S
C1668  C1912   1.381   .     S
H1670  C93     1.111   1_556 S
H1671  C175    1.108   1_556 S
H1676  C1491   1.110   1_655 S
H1679  N1707   1.043   .     S
H1681  N1707   1.046   .     S
H1682  N1708   1.045   .     S
H1683  N1708   1.046   .     S
H1704  C175    1.110   1_556 S
N1705  Zn1721  2.004   .     S
N1706  Zn1722  2.004   .     S
O1709  Zn1721  1.989   .     S
O1713  Zn1722  1.989   .     S
O1714  Zn1722  1.999   .     S
O1715  Zn1721  1.999   .     S
O1716  Zn1721  1.985   .     S
O1717  Zn1722  1.985   .     S
O1718  Zn1722  1.988   .     S
O1719  Zn1721  1.988   .     S
O1720  C1500   1.405   1_655 S
C1723  O1796   1.285   .     A
C1723  O1791   1.287   .     A
C1723  C1726   1.445   .     S
C1724  O1794   1.390   .     S
C1724  C1726   1.413   .     A
C1725  C1750   1.407   .     A
C1725  C1734   1.448   .     S
C1725  C1749   1.412   .     A
C1726  C1748   1.411   .     A
C1727  H1751   1.071   .     S
C1727  N1788   1.361   .     A
C1728  N1787   1.366   .     A
C1728  H1762   1.082   .     S
C1728  C254    1.414   1_556 S
C1729  N1787   1.363   .     A
C1729  H1773   1.079   .     S
C1729  C251    1.411   1_556 S
C1730  N1788   1.366   .     A
C1730  H1781   1.080   .     S
C1731  C1732   1.540   .     S
C1731  O1802   1.419   .     S
C1731  H1782   1.111   .     S
C1731  H1865   1.109   .     S
C1732  H1784   1.103   .     S
C1732  C1733   1.525   .     S
C1732  H1867   1.107   .     S
C1734  O1797   1.283   .     A
C1734  O1795   1.290   .     A
C1735  H1754   1.110   .     S
C1735  H1755   1.115   .     S
C1735  C1818   1.530   .     S
C1735  O1874   1.418   .     S
C1736  H1757   1.111   .     S
C1736  H1756   1.109   .     S
C1736  C1737   1.525   .     S
C1736  C1899   1.530   1_455 S
C1737  H1759   1.110   .     S
C1737  H1760   1.111   .     S
C1737  H1922   1.110   1_455 S
C1738  C1739   1.529   .     S
C1738  H1766   1.111   .     S
C1738  O1793   1.420   .     S
C1738  H1767   1.117   .     S
C1739  H1768   1.107   .     S
C1739  H1769   1.108   .     S
C1739  C1822   1.527   .     S
C1740  H1772   1.110   .     S
C1740  H1770   1.111   .     S
C1740  H1771   1.110   .     S
C1740  C1903   1.527   1_455 S
C1741  H1774   1.111   .     S
C1741  C1742   1.528   .     S
C1741  H1775   1.118   .     S
C1741  O1794   1.423   .     S
C1742  H1777   1.110   .     S
C1742  H1776   1.110   .     S
C1742  C1825   1.527   .     S
C1743  H1779   1.110   .     S
C1743  H1778   1.110   .     S
C1743  H1780   1.107   .     S
C1743  C1906   1.527   1_455 S
C1744  O1798   1.277   .     A
C1744  O1800   1.278   .     A
C1744  C1746   1.418   .     S
C1745  O1799   1.271   .     A
C1745  C1747   1.408   .     S
C1745  O1801   1.279   .     A
C1746  C1911   1.348   1_455 S
C1746  O1966   1.405   1_455 S
C1747  C1828   1.348   .     S
C1747  O1874   1.394   .     S
C1748  N1789   1.435   .     S
C1749  N1790   1.434   .     S
C1749  C1970   1.385   .     S
C1750  O1793   1.383   .     S
C1750  C1994   1.381   .     S
H1752  C421    1.111   1_456 S
H1753  C257    1.108   1_556 S
H1758  C1819   1.110   .     S
H1761  N1789   1.043   .     S
H1763  N1789   1.046   .     S
H1764  N1790   1.045   .     S
H1765  N1790   1.046   .     S
H1783  C1895   1.109   1_455 S
H1785  C1896   1.107   1_455 S
H1786  C257    1.110   1_556 S
N1787  Zn1803  2.004   .     S
N1788  Zn1804  2.004   .     S
O1791  Zn1803  1.989   .     S
O1792  C1899   1.418   1_455 S
O1792  C1911   1.394   1_455 S
O1795  Zn1804  1.989   .     S
O1796  Zn1804  1.999   .     S
O1797  Zn1803  1.999   .     S
O1798  Zn1803  1.985   .     S
O1799  Zn1804  1.985   .     S
O1800  Zn1804  1.988   .     S
O1801  Zn1803  1.988   .     S
O1802  C1828   1.405   .     S
C1805  O1878   1.285   .     A
C1805  O1873   1.287   .     A
C1805  C1808   1.445   .     S
C1806  O1876   1.390   .     S
C1806  C1808   1.413   .     A
C1807  C1832   1.407   .     A
C1807  C1816   1.448   .     S
C1807  C1831   1.412   .     A
C1808  C1830   1.411   .     A
C1809  H1833   1.071   .     S
C1809  N1870   1.361   .     A
C1810  N1869   1.366   .     A
C1810  H1844   1.082   .     S
C1810  C336    1.414   1_556 S
C1811  N1869   1.363   .     A
C1811  H1855   1.079   .     S
C1811  C333    1.411   1_556 S
C1812  N1870   1.366   .     A
C1812  H1863   1.080   .     S
C1813  C1814   1.540   .     S
C1813  O1884   1.419   .     S
C1813  H1864   1.111   .     S
C1813  H1947   1.109   .     S
C1814  H1866   1.103   .     S
C1814  C1815   1.525   .     S
C1814  H1949   1.107   .     S
C1816  O1879   1.283   .     A
C1816  O1877   1.290   .     A
C1817  H1836   1.110   .     S
C1817  H1837   1.115   .     S
C1817  C1900   1.530   .     S
C1817  O1956   1.418   .     S
C1818  H1839   1.111   .     S
C1818  H1838   1.109   .     S
C1818  C1819   1.525   .     S
C1819  H1841   1.110   .     S
C1819  H1842   1.111   .     S
C1820  C1821   1.529   .     S
C1820  H1848   1.111   .     S
C1820  O1875   1.420   .     S
C1820  H1849   1.117   .     S
C1821  H1850   1.107   .     S
C1821  H1851   1.108   .     S
C1821  C1904   1.527   .     S
C1822  H1854   1.110   .     S
C1822  H1852   1.111   .     S
C1822  H1853   1.110   .     S
C1823  H1856   1.111   .     S
C1823  C1824   1.528   .     S
C1823  H1857   1.118   .     S
C1823  O1876   1.423   .     S
C1824  H1859   1.110   .     S
C1824  H1858   1.110   .     S
C1824  C1907   1.527   .     S
C1825  H1861   1.110   .     S
C1825  H1860   1.110   .     S
C1825  H1862   1.107   .     S
C1826  O1880   1.277   .     A
C1826  O1882   1.278   .     A
C1826  C1828   1.418   .     S
C1827  O1881   1.271   .     A
C1827  C1829   1.408   .     S
C1827  O1883   1.279   .     A
C1829  C1910   1.348   .     S
C1829  O1956   1.394   .     S
C1830  N1871   1.435   .     S
C1831  N1872   1.434   .     S
C1831  C2052   1.385   .     S
C1832  O1875   1.383   .     S
C1832  C2076   1.381   .     S
H1834  C257    1.111   1_556 S
H1835  C339    1.108   1_556 S
H1840  C1901   1.110   .     S
H1843  N1871   1.043   .     S
H1845  N1871   1.046   .     S
H1846  N1872   1.045   .     S
H1847  N1872   1.046   .     S
H1868  C339    1.110   1_556 S
N1869  Zn1885  2.004   .     S
N1870  Zn1886  2.004   .     S
O1873  Zn1885  1.989   .     S
O1877  Zn1886  1.989   .     S
O1878  Zn1886  1.999   .     S
O1879  Zn1885  1.999   .     S
O1880  Zn1885  1.985   .     S
O1881  Zn1886  1.985   .     S
O1882  Zn1886  1.988   .     S
O1883  Zn1885  1.988   .     S
O1884  C1910   1.405   .     S
C1887  O1960   1.285   .     A
C1887  O1955   1.287   .     A
C1887  C1890   1.445   .     S
C1888  O1958   1.390   .     S
C1888  C1890   1.413   .     A
C1889  C1914   1.407   .     A
C1889  C1898   1.448   .     S
C1889  C1913   1.412   .     A
C1890  C1912   1.411   .     A
C1891  H1915   1.071   .     S
C1891  N1952   1.361   .     A
C1892  N1951   1.366   .     A
C1892  H1926   1.082   .     S
C1892  C418    1.414   1_556 S
C1893  N1951   1.363   .     A
C1893  H1937   1.079   .     S
C1893  C415    1.411   1_556 S
C1894  N1952   1.366   .     A
C1894  H1945   1.080   .     S
C1895  C1896   1.540   .     S
C1895  O1966   1.419   .     S
C1895  H1946   1.111   .     S
C1895  H1783   1.109   1_655 S
C1896  H1948   1.103   .     S
C1896  C1897   1.525   .     S
C1896  H1785   1.107   1_655 S
C1897  H1014   1.111   1_655 S
C1898  O1961   1.283   .     A
C1898  O1959   1.290   .     A
C1899  H1918   1.110   .     S
C1899  H1919   1.115   .     S
C1899  C1736   1.530   1_655 S
C1899  O1792   1.418   1_655 S
C1900  H1921   1.111   .     S
C1900  H1920   1.109   .     S
C1900  C1901   1.525   .     S
C1901  H1923   1.110   .     S
C1901  H1924   1.111   .     S
C1902  C1903   1.529   .     S
C1902  H1930   1.111   .     S
C1902  O1957   1.420   .     S
C1902  H1931   1.117   .     S
C1903  H1932   1.107   .     S
C1903  H1933   1.108   .     S
C1903  C1740   1.527   1_655 S
C1904  H1936   1.110   .     S
C1904  H1934   1.111   .     S
C1904  H1935   1.110   .     S
C1905  H1938   1.111   .     S
C1905  C1906   1.528   .     S
C1905  H1939   1.118   .     S
C1905  O1958   1.423   .     S
C1906  H1941   1.110   .     S
C1906  H1940   1.110   .     S
C1906  C1743   1.527   1_655 S
C1907  H1943   1.110   .     S
C1907  H1942   1.110   .     S
C1907  H1944   1.107   .     S
C1908  O1962   1.277   .     A
C1908  O1964   1.278   .     A
C1908  C1910   1.418   .     S
C1909  O1963   1.271   .     A
C1909  C1911   1.408   .     S
C1909  O1965   1.279   .     A
C1911  C1746   1.348   1_655 S
C1911  O1792   1.394   1_655 S
C1912  N1953   1.435   .     S
C1913  N1954   1.434   .     S
C1913  C2134   1.385   .     S
C1914  O1957   1.383   .     S
C1914  C2158   1.381   .     S
H1916  C339    1.111   1_556 S
H1917  C421    1.108   1_556 S
H1922  C1737   1.110   1_655 S
H1925  N1953   1.043   .     S
H1927  N1953   1.046   .     S
H1928  N1954   1.045   .     S
H1929  N1954   1.046   .     S
H1950  C421    1.110   1_556 S
N1951  Zn1967  2.004   .     S
N1952  Zn1968  2.004   .     S
O1955  Zn1967  1.989   .     S
O1959  Zn1968  1.989   .     S
O1960  Zn1968  1.999   .     S
O1961  Zn1967  1.999   .     S
O1962  Zn1967  1.985   .     S
O1963  Zn1968  1.985   .     S
O1964  Zn1968  1.988   .     S
O1965  Zn1967  1.988   .     S
O1966  C1746   1.405   1_655 S
C1969  O2042   1.285   .     A
C1969  O2037   1.287   .     A
C1969  C1972   1.445   .     S
C1970  O2040   1.390   .     S
C1970  C1972   1.413   .     A
C1971  C1996   1.407   .     A
C1971  C1980   1.448   .     S
C1971  C1995   1.412   .     A
C1972  C1994   1.411   .     A
C1973  H1997   1.071   .     S
C1973  N2034   1.361   .     A
C1974  N2033   1.366   .     A
C1974  H2008   1.082   .     S
C1974  C500    1.414   1_556 S
C1975  N2033   1.363   .     A
C1975  H2019   1.079   .     S
C1975  C497    1.411   1_556 S
C1976  N2034   1.366   .     A
C1976  H2027   1.080   .     S
C1977  C1978   1.540   .     S
C1977  O2048   1.419   .     S
C1977  H2028   1.111   .     S
C1977  H2111   1.109   .     S
C1978  H2030   1.103   .     S
C1978  C1979   1.525   .     S
C1978  H2113   1.107   .     S
C1980  O2043   1.283   .     A
C1980  O2041   1.290   .     A
C1981  H2000   1.110   .     S
C1981  H2001   1.115   .     S
C1981  C2064   1.530   .     S
C1981  O2120   1.418   .     S
C1982  H2003   1.111   .     S
C1982  H2002   1.109   .     S
C1982  C1983   1.525   .     S
C1982  C2145   1.530   1_455 S
C1983  H2005   1.110   .     S
C1983  H2006   1.111   .     S
C1983  H2168   1.110   1_455 S
C1984  C1985   1.529   .     S
C1984  H2012   1.111   .     S
C1984  O2039   1.420   .     S
C1984  H2013   1.117   .     S
C1985  H2014   1.107   .     S
C1985  H2015   1.108   .     S
C1985  C2068   1.527   .     S
C1986  H2018   1.110   .     S
C1986  H2016   1.111   .     S
C1986  H2017   1.110   .     S
C1986  C2149   1.527   1_455 S
C1987  H2020   1.111   .     S
C1987  C1988   1.528   .     S
C1987  H2021   1.118   .     S
C1987  O2040   1.423   .     S
C1988  H2023   1.110   .     S
C1988  H2022   1.110   .     S
C1988  C2071   1.527   .     S
C1989  H2025   1.110   .     S
C1989  H2024   1.110   .     S
C1989  H2026   1.107   .     S
C1989  C2152   1.527   1_455 S
C1990  O2044   1.277   .     A
C1990  O2046   1.278   .     A
C1990  C1992   1.418   .     S
C1991  O2045   1.271   .     A
C1991  C1993   1.408   .     S
C1991  O2047   1.279   .     A
C1992  C2157   1.348   1_455 S
C1992  O2212   1.405   1_455 S
C1993  C2074   1.348   .     S
C1993  O2120   1.394   .     S
C1994  N2035   1.435   .     S
C1995  N2036   1.434   .     S
C1995  C1478   1.385   1_565 S
C1996  O2039   1.383   .     S
C1996  C1502   1.381   1_565 S
H1998  C667    1.111   1_456 S
H1999  C503    1.108   1_556 S
H2004  C2065   1.110   .     S
H2007  N2035   1.043   .     S
H2009  N2035   1.046   .     S
H2010  N2036   1.045   .     S
H2011  N2036   1.046   .     S
H2029  C2141   1.109   1_455 S
H2031  C2142   1.107   1_455 S
H2032  C503    1.110   1_556 S
N2033  Zn2049  2.004   .     S
N2034  Zn2050  2.004   .     S
O2037  Zn2049  1.989   .     S
O2038  C2145   1.418   1_455 S
O2038  C2157   1.394   1_455 S
O2041  Zn2050  1.989   .     S
O2042  Zn2050  1.999   .     S
O2043  Zn2049  1.999   .     S
O2044  Zn2049  1.985   .     S
O2045  Zn2050  1.985   .     S
O2046  Zn2050  1.988   .     S
O2047  Zn2049  1.988   .     S
O2048  C2074   1.405   .     S
C2051  O2124   1.285   .     A
C2051  O2119   1.287   .     A
C2051  C2054   1.445   .     S
C2052  O2122   1.390   .     S
C2052  C2054   1.413   .     A
C2053  C2078   1.407   .     A
C2053  C2062   1.448   .     S
C2053  C2077   1.412   .     A
C2054  C2076   1.411   .     A
C2055  H2079   1.071   .     S
C2055  N2116   1.361   .     A
C2056  N2115   1.366   .     A
C2056  H2090   1.082   .     S
C2056  C582    1.414   1_556 S
C2057  N2115   1.363   .     A
C2057  H2101   1.079   .     S
C2057  C579    1.411   1_556 S
C2058  N2116   1.366   .     A
C2058  H2109   1.080   .     S
C2059  C2060   1.540   .     S
C2059  O2130   1.419   .     S
C2059  H2110   1.111   .     S
C2059  H2193   1.109   .     S
C2060  H2112   1.103   .     S
C2060  C2061   1.525   .     S
C2060  H2195   1.107   .     S
C2062  O2125   1.283   .     A
C2062  O2123   1.290   .     A
C2063  H2082   1.110   .     S
C2063  H2083   1.115   .     S
C2063  C2146   1.530   .     S
C2063  O2202   1.418   .     S
C2064  H2085   1.111   .     S
C2064  H2084   1.109   .     S
C2064  C2065   1.525   .     S
C2065  H2087   1.110   .     S
C2065  H2088   1.111   .     S
C2066  C2067   1.529   .     S
C2066  H2094   1.111   .     S
C2066  O2121   1.420   .     S
C2066  H2095   1.117   .     S
C2067  H2096   1.107   .     S
C2067  H2097   1.108   .     S
C2067  C2150   1.527   .     S
C2068  H2100   1.110   .     S
C2068  H2098   1.111   .     S
C2068  H2099   1.110   .     S
C2069  H2102   1.111   .     S
C2069  C2070   1.528   .     S
C2069  H2103   1.118   .     S
C2069  O2122   1.423   .     S
C2070  H2105   1.110   .     S
C2070  H2104   1.110   .     S
C2070  C2153   1.527   .     S
C2071  H2107   1.110   .     S
C2071  H2106   1.110   .     S
C2071  H2108   1.107   .     S
C2072  O2126   1.277   .     A
C2072  O2128   1.278   .     A
C2072  C2074   1.418   .     S
C2073  O2127   1.271   .     A
C2073  C2075   1.408   .     S
C2073  O2129   1.279   .     A
C2075  C2156   1.348   .     S
C2075  O2202   1.394   .     S
C2076  N2117   1.435   .     S
C2077  N2118   1.434   .     S
C2077  C1560   1.385   1_565 S
C2078  O2121   1.383   .     S
C2078  C1584   1.381   1_565 S
H2080  C503    1.111   1_556 S
H2081  C585    1.108   1_556 S
H2086  C2147   1.110   .     S
H2089  N2117   1.043   .     S
H2091  N2117   1.046   .     S
H2092  N2118   1.045   .     S
H2093  N2118   1.046   .     S
H2114  C585    1.110   1_556 S
N2115  Zn2131  2.004   .     S
N2116  Zn2132  2.004   .     S
O2119  Zn2131  1.989   .     S
O2123  Zn2132  1.989   .     S
O2124  Zn2132  1.999   .     S
O2125  Zn2131  1.999   .     S
O2126  Zn2131  1.985   .     S
O2127  Zn2132  1.985   .     S
O2128  Zn2132  1.988   .     S
O2129  Zn2131  1.988   .     S
O2130  C2156   1.405   .     S
C2133  O2206   1.285   .     A
C2133  O2201   1.287   .     A
C2133  C2136   1.445   .     S
C2134  O2204   1.390   .     S
C2134  C2136   1.413   .     A
C2135  C2160   1.407   .     A
C2135  C2144   1.448   .     S
C2135  C2159   1.412   .     A
C2136  C2158   1.411   .     A
C2137  H2161   1.071   .     S
C2137  N2198   1.361   .     A
C2138  N2197   1.366   .     A
C2138  H2172   1.082   .     S
C2138  C664    1.414   1_556 S
C2139  N2197   1.363   .     A
C2139  H2183   1.079   .     S
C2139  C661    1.411   1_556 S
C2140  N2198   1.366   .     A
C2140  H2191   1.080   .     S
C2141  C2142   1.540   .     S
C2141  O2212   1.419   .     S
C2141  H2192   1.111   .     S
C2141  H2029   1.109   1_655 S
C2142  H2194   1.103   .     S
C2142  C2143   1.525   .     S
C2142  H2031   1.107   1_655 S
C2143  H1260   1.111   1_655 S
C2144  O2207   1.283   .     A
C2144  O2205   1.290   .     A
C2145  H2164   1.110   .     S
C2145  H2165   1.115   .     S
C2145  C1982   1.530   1_655 S
C2145  O2038   1.418   1_655 S
C2146  H2167   1.111   .     S
C2146  H2166   1.109   .     S
C2146  C2147   1.525   .     S
C2147  H2169   1.110   .     S
C2147  H2170   1.111   .     S
C2148  C2149   1.529   .     S
C2148  H2176   1.111   .     S
C2148  O2203   1.420   .     S
C2148  H2177   1.117   .     S
C2149  H2178   1.107   .     S
C2149  H2179   1.108   .     S
C2149  C1986   1.527   1_655 S
C2150  H2182   1.110   .     S
C2150  H2180   1.111   .     S
C2150  H2181   1.110   .     S
C2151  H2184   1.111   .     S
C2151  C2152   1.528   .     S
C2151  H2185   1.118   .     S
C2151  O2204   1.423   .     S
C2152  H2187   1.110   .     S
C2152  H2186   1.110   .     S
C2152  C1989   1.527   1_655 S
C2153  H2189   1.110   .     S
C2153  H2188   1.110   .     S
C2153  H2190   1.107   .     S
C2154  O2208   1.277   .     A
C2154  O2210   1.278   .     A
C2154  C2156   1.418   .     S
C2155  O2209   1.271   .     A
C2155  C2157   1.408   .     S
C2155  O2211   1.279   .     A
C2157  C1992   1.348   1_655 S
C2157  O2038   1.394   1_655 S
C2158  N2199   1.435   .     S
C2159  N2200   1.434   .     S
C2159  C1642   1.385   1_565 S
C2160  O2203   1.383   .     S
C2160  C1666   1.381   1_565 S
H2162  C585    1.111   1_556 S
H2163  C667    1.108   1_556 S
H2168  C1983   1.110   1_655 S
H2171  N2199   1.043   .     S
H2173  N2199   1.046   .     S
H2174  N2200   1.045   .     S
H2175  N2200   1.046   .     S
H2196  C667    1.110   1_556 S
N2197  Zn2213  2.004   .     S
N2198  Zn2214  2.004   .     S
O2201  Zn2213  1.989   .     S
O2205  Zn2214  1.989   .     S
O2206  Zn2214  1.999   .     S
O2207  Zn2213  1.999   .     S
O2208  Zn2213  1.985   .     S
O2209  Zn2214  1.985   .     S
O2210  Zn2214  1.988   .     S
O2211  Zn2213  1.988   .     S
O2212  C1992   1.405   1_655 S
