data_str_m3_o1_o17_pcu_sym.33
_audit_creation_date              2020-01-03
_audit_creation_method            'Materials Studio'
_symmetry_space_group_name_H-M    'P1'
_symmetry_Int_Tables_number       1
_symmetry_cell_setting            triclinic
loop_
_symmetry_equiv_pos_as_xyz
  x,y,z
_cell_length_a                    31.8337
_cell_length_b                    30.2552
_cell_length_c                    29.9949
_cell_angle_alpha                 89.4189
_cell_angle_beta                  92.8534
_cell_angle_gamma                 89.2416
loop_
_atom_site_label
_atom_site_type_symbol
_atom_site_fract_x
_atom_site_fract_y
_atom_site_fract_z
_atom_site_U_iso_or_equiv
_atom_site_adp_type
_atom_site_occupancy
C1     C     0.08694   0.16696   0.24986   0.00000  Uiso   1.00
C2     C     0.04276   0.16777   0.25115   0.00000  Uiso   1.00
C3     C     0.19422   0.02299   0.27762   0.00000  Uiso   1.00
C4     C     0.14158   0.31023   0.21979   0.00000  Uiso   1.00
C5     C     0.13893   0.02442   0.22237   0.00000  Uiso   1.00
C6     C     0.19147   0.30890   0.28043   0.00000  Uiso   1.00
C7     C     0.16563   0.16684   0.16392   0.00000  Uiso   1.00
C8     C     0.16800   0.16638   0.33607   0.00000  Uiso   1.00
C9     C     0.20628   0.16059   0.40868   0.00000  Uiso   1.00
C10    C     0.12677   0.16299   0.09148   0.00000  Uiso   1.00
C11    C     0.16769   0.16515   0.38375   0.00000  Uiso   1.00
C12    C     0.24641   0.16665   0.25061   0.00000  Uiso   1.00
C13    C     0.16544   0.16691   0.11619   0.00000  Uiso   1.00
C14    C     0.12853   0.16659   0.40375   0.00000  Uiso   1.00
C15    C     0.20444   0.16847   0.09597   0.00000  Uiso   1.00
C16    C     0.12821   0.16472   0.45056   0.00000  Uiso   1.00
C17    C     0.20478   0.16505   0.04934   0.00000  Uiso   1.00
C18    C     0.16673   0.16368   0.47643   0.00000  Uiso   1.00
C19    C     0.16628   0.16409   0.02355   0.00000  Uiso   1.00
C20    C     0.20567   0.16146   0.45550   0.00000  Uiso   1.00
C21    C     0.12737   0.16282   0.04458   0.00000  Uiso   1.00
C22    C     0.09022   0.16306   0.47225   0.00000  Uiso   1.00
C23    C     0.08990   0.16068   0.01805   0.00000  Uiso   1.00
C24    C     0.24282   0.16193   0.02781   0.00000  Uiso   1.00
C25    C     0.24748   0.15194   0.38556   0.00000  Uiso   1.00
C26    C     0.27584   0.19236   0.38472   0.00000  Uiso   1.00
C27    C     0.08538   0.15726   0.11497   0.00000  Uiso   1.00
C28    C     0.05765   0.19901   0.11272   0.00000  Uiso   1.00
C29    C     0.08745   0.16893   0.37486   0.00000  Uiso   1.00
C30    C     0.06885   0.21572   0.37275   0.00000  Uiso   1.00
C31    C     0.24537   0.17337   0.12446   0.00000  Uiso   1.00
C32    C     0.26580   0.12843   0.13608   0.00000  Uiso   1.00
C33    C     0.23049   0.04495   0.30268   0.00000  Uiso   1.00
C34    C     0.24321   0.15941   0.48206   0.00000  Uiso   1.00
C35    C     0.27148   0.03648   0.27899   0.00000  Uiso   1.00
C36    C     0.11854   0.28718   0.18158   0.00000  Uiso   1.00
C37    C     0.14350   0.28958   0.13923   0.00000  Uiso   1.00
C38    C     0.10379   0.04865   0.19573   0.00000  Uiso   1.00
C39    C     0.06210   0.04541   0.21884   0.00000  Uiso   1.00
C40    C     0.21531   0.28455   0.31842   0.00000  Uiso   1.00
C41    C     0.19157   0.28701   0.36153   0.00000  Uiso   1.00
C42    C     0.02333   0.13755   0.27855   0.00000  Uiso   1.00
C43    C     0.31020   0.19919   0.22568   0.00000  Uiso   1.00
C44    C     0.31366   0.13828   0.27948   0.00000  Uiso   1.00
C45    C     0.01993   0.19954   0.22583   0.00000  Uiso   1.00
C46    C     0.29072   0.16747   0.25142   0.00000  Uiso   1.00
H47    H     0.05985   0.16313   0.45459   0.00000  Uiso   1.00
H48    H     0.27372   0.21276   0.41507   0.00000  Uiso   1.00
H49    H     0.30899   0.18129   0.38197   0.00000  Uiso   1.00
H50    H     0.26462   0.12361   0.40223   0.00000  Uiso   1.00
H51    H     0.24217   0.14094   0.35075   0.00000  Uiso   1.00
H52    H     0.07070   0.22383   0.13599   0.00000  Uiso   1.00
H53    H     0.05517   0.21432   0.07898   0.00000  Uiso   1.00
H54    H     0.02555   0.19079   0.12282   0.00000  Uiso   1.00
H55    H     0.06786   0.12895   0.10033   0.00000  Uiso   1.00
H56    H     0.09033   0.14810   0.15066   0.00000  Uiso   1.00
H57    H     0.06147   0.22737   0.40646   0.00000  Uiso   1.00
H58    H     0.27310   0.16051   0.04566   0.00000  Uiso   1.00
H59    H     0.09137   0.23875   0.35807   0.00000  Uiso   1.00
H60    H     0.03946   0.21622   0.35120   0.00000  Uiso   1.00
H61    H     0.09196   0.15847   0.34034   0.00000  Uiso   1.00
H62    H     0.06420   0.14493   0.38641   0.00000  Uiso   1.00
H63    H     0.24524   0.10886   0.15739   0.00000  Uiso   1.00
H64    H     0.27153   0.10939   0.10550   0.00000  Uiso   1.00
H65    H     0.29641   0.13323   0.15465   0.00000  Uiso   1.00
H66    H     0.26778   0.19504   0.10778   0.00000  Uiso   1.00
H67    H     0.24001   0.19101   0.15582   0.00000  Uiso   1.00
H68    H     0.27275   0.05787   0.24885   0.00000  Uiso   1.00
H69    H     0.05940   0.15777   0.03187   0.00000  Uiso   1.00
H70    H     0.29898   0.04290   0.30207   0.00000  Uiso   1.00
H71    H     0.27439   0.00175   0.26789   0.00000  Uiso   1.00
H72    H     0.22492   0.08017   0.30687   0.00000  Uiso   1.00
H73    H     0.23405   0.03322   0.33772   0.00000  Uiso   1.00
H74    H     0.14442   0.32398   0.12624   0.00000  Uiso   1.00
H75    H     0.17644   0.27795   0.14603   0.00000  Uiso   1.00
H76    H     0.12859   0.26866   0.11288   0.00000  Uiso   1.00
H77    H     0.11252   0.25302   0.19059   0.00000  Uiso   1.00
H78    H     0.08639   0.30041   0.17435   0.00000  Uiso   1.00
H79    H     0.06639   0.05452   0.25448   0.00000  Uiso   1.00
H80    H     0.27377   0.15648   0.46822   0.00000  Uiso   1.00
H81    H     0.03842   0.06816   0.20217   0.00000  Uiso   1.00
H82    H     0.04961   0.01141   0.21748   0.00000  Uiso   1.00
H83    H     0.11096   0.08321   0.19066   0.00000  Uiso   1.00
H84    H     0.09981   0.03681   0.16104   0.00000  Uiso   1.00
H85    H     0.19158   0.32106   0.37483   0.00000  Uiso   1.00
H86    H     0.15837   0.27711   0.35559   0.00000  Uiso   1.00
H87    H     0.20684   0.26463   0.38722   0.00000  Uiso   1.00
H88    H     0.22119   0.25042   0.30969   0.00000  Uiso   1.00
H89    H     0.24767   0.29655   0.32487   0.00000  Uiso   1.00
H90    H     0.04133   0.11424   0.29972   0.00000  Uiso   1.00
H91    H     0.29222   0.22317   0.20528   0.00000  Uiso   1.00
H92    H     0.29834   0.11711   0.30258   0.00000  Uiso   1.00
H93    H     0.03530   0.22381   0.20573   0.00000  Uiso   1.00
H94    H     0.26720   0.21329   0.35522   0.00000  Uiso   1.00
N95    N     0.16667   0.28573   0.25000   0.00000  Uiso   1.00
N96    N     0.16667   0.04760   0.25000   0.00000  Uiso   1.00
O97    O     0.10559   0.20487   0.24999   0.00000  Uiso   1.00
O98    O     0.22774   0.12846   0.25000   0.00000  Uiso   1.00
O99    O     0.22774   0.20487   0.25000   0.00000  Uiso   1.00
O100   O     0.10559   0.12846   0.24999   0.00000  Uiso   1.00
O101   O     0.16666   0.20489   0.18392   0.00000  Uiso   1.00
O102   O     0.16667   0.12844   0.31607   0.00000  Uiso   1.00
O103   O     0.16667   0.20489   0.31607   0.00000  Uiso   1.00
O104   O     0.16666   0.12844   0.18392   0.00000  Uiso   1.00
Zn105  Zn    0.16667   0.21771   0.25000   0.00000  Uiso   1.00
Zn106  Zn    0.16667   0.11563   0.25000   0.00000  Uiso   1.00
C107   C     0.42027   0.16696   0.24986   0.00000  Uiso   1.00
C108   C     0.37610   0.16777   0.25115   0.00000  Uiso   1.00
C109   C     0.52755   0.02299   0.27762   0.00000  Uiso   1.00
C110   C     0.47492   0.31023   0.21979   0.00000  Uiso   1.00
C111   C     0.47226   0.02442   0.22237   0.00000  Uiso   1.00
C112   C     0.52481   0.30890   0.28043   0.00000  Uiso   1.00
C113   C     0.49896   0.16684   0.16392   0.00000  Uiso   1.00
C114   C     0.50133   0.16638   0.33607   0.00000  Uiso   1.00
C115   C     0.53961   0.16059   0.40868   0.00000  Uiso   1.00
C116   C     0.46010   0.16299   0.09148   0.00000  Uiso   1.00
C117   C     0.50102   0.16515   0.38375   0.00000  Uiso   1.00
C118   C     0.57975   0.16665   0.25061   0.00000  Uiso   1.00
C119   C     0.49877   0.16691   0.11619   0.00000  Uiso   1.00
C120   C     0.46186   0.16659   0.40375   0.00000  Uiso   1.00
C121   C     0.53777   0.16847   0.09597   0.00000  Uiso   1.00
C122   C     0.46154   0.16472   0.45056   0.00000  Uiso   1.00
C123   C     0.53812   0.16505   0.04934   0.00000  Uiso   1.00
C124   C     0.50006   0.16368   0.47643   0.00000  Uiso   1.00
C125   C     0.49961   0.16409   0.02355   0.00000  Uiso   1.00
C126   C     0.53901   0.16146   0.45550   0.00000  Uiso   1.00
C127   C     0.46070   0.16282   0.04458   0.00000  Uiso   1.00
C128   C     0.42355   0.16306   0.47225   0.00000  Uiso   1.00
C129   C     0.42323   0.16068   0.01805   0.00000  Uiso   1.00
C130   C     0.57615   0.16193   0.02781   0.00000  Uiso   1.00
C131   C     0.58081   0.15194   0.38556   0.00000  Uiso   1.00
C132   C     0.60918   0.19236   0.38472   0.00000  Uiso   1.00
C133   C     0.41871   0.15726   0.11497   0.00000  Uiso   1.00
C134   C     0.39098   0.19901   0.11272   0.00000  Uiso   1.00
C135   C     0.42078   0.16893   0.37486   0.00000  Uiso   1.00
C136   C     0.40219   0.21572   0.37275   0.00000  Uiso   1.00
C137   C     0.57870   0.17337   0.12446   0.00000  Uiso   1.00
C138   C     0.59913   0.12843   0.13608   0.00000  Uiso   1.00
C139   C     0.56382   0.04495   0.30268   0.00000  Uiso   1.00
C140   C     0.57654   0.15941   0.48206   0.00000  Uiso   1.00
C141   C     0.60482   0.03648   0.27899   0.00000  Uiso   1.00
C142   C     0.45188   0.28718   0.18158   0.00000  Uiso   1.00
C143   C     0.47683   0.28958   0.13923   0.00000  Uiso   1.00
C144   C     0.43712   0.04865   0.19573   0.00000  Uiso   1.00
C145   C     0.39543   0.04541   0.21884   0.00000  Uiso   1.00
C146   C     0.54864   0.28455   0.31842   0.00000  Uiso   1.00
C147   C     0.52491   0.28701   0.36153   0.00000  Uiso   1.00
C148   C     0.35667   0.13755   0.27855   0.00000  Uiso   1.00
C149   C     0.64354   0.19919   0.22568   0.00000  Uiso   1.00
C150   C     0.64699   0.13828   0.27948   0.00000  Uiso   1.00
C151   C     0.35327   0.19954   0.22583   0.00000  Uiso   1.00
C152   C     0.62405   0.16747   0.25142   0.00000  Uiso   1.00
H153   H     0.39319   0.16313   0.45459   0.00000  Uiso   1.00
H154   H     0.60706   0.21276   0.41507   0.00000  Uiso   1.00
H155   H     0.64232   0.18129   0.38197   0.00000  Uiso   1.00
H156   H     0.59795   0.12361   0.40223   0.00000  Uiso   1.00
H157   H     0.57551   0.14094   0.35075   0.00000  Uiso   1.00
H158   H     0.40403   0.22383   0.13599   0.00000  Uiso   1.00
H159   H     0.38850   0.21432   0.07898   0.00000  Uiso   1.00
H160   H     0.35889   0.19079   0.12282   0.00000  Uiso   1.00
H161   H     0.40120   0.12895   0.10033   0.00000  Uiso   1.00
H162   H     0.42366   0.14810   0.15066   0.00000  Uiso   1.00
H163   H     0.39480   0.22737   0.40646   0.00000  Uiso   1.00
H164   H     0.60643   0.16051   0.04566   0.00000  Uiso   1.00
H165   H     0.42470   0.23875   0.35807   0.00000  Uiso   1.00
H166   H     0.37279   0.21622   0.35120   0.00000  Uiso   1.00
H167   H     0.42529   0.15847   0.34034   0.00000  Uiso   1.00
H168   H     0.39753   0.14493   0.38641   0.00000  Uiso   1.00
H169   H     0.57857   0.10886   0.15739   0.00000  Uiso   1.00
H170   H     0.60487   0.10939   0.10550   0.00000  Uiso   1.00
H171   H     0.62974   0.13323   0.15465   0.00000  Uiso   1.00
H172   H     0.60111   0.19504   0.10778   0.00000  Uiso   1.00
H173   H     0.57334   0.19101   0.15582   0.00000  Uiso   1.00
H174   H     0.60609   0.05787   0.24885   0.00000  Uiso   1.00
H175   H     0.39273   0.15777   0.03187   0.00000  Uiso   1.00
H176   H     0.63232   0.04290   0.30207   0.00000  Uiso   1.00
H177   H     0.60772   0.00175   0.26789   0.00000  Uiso   1.00
H178   H     0.55825   0.08017   0.30687   0.00000  Uiso   1.00
H179   H     0.56739   0.03322   0.33772   0.00000  Uiso   1.00
H180   H     0.47776   0.32398   0.12624   0.00000  Uiso   1.00
H181   H     0.50977   0.27795   0.14603   0.00000  Uiso   1.00
H182   H     0.46193   0.26866   0.11288   0.00000  Uiso   1.00
H183   H     0.44586   0.25302   0.19059   0.00000  Uiso   1.00
H184   H     0.41973   0.30041   0.17435   0.00000  Uiso   1.00
H185   H     0.39972   0.05452   0.25448   0.00000  Uiso   1.00
H186   H     0.60710   0.15648   0.46822   0.00000  Uiso   1.00
H187   H     0.37175   0.06816   0.20217   0.00000  Uiso   1.00
H188   H     0.38294   0.01141   0.21748   0.00000  Uiso   1.00
H189   H     0.44430   0.08321   0.19066   0.00000  Uiso   1.00
H190   H     0.43315   0.03681   0.16104   0.00000  Uiso   1.00
H191   H     0.52492   0.32106   0.37483   0.00000  Uiso   1.00
H192   H     0.49170   0.27711   0.35559   0.00000  Uiso   1.00
H193   H     0.54017   0.26463   0.38722   0.00000  Uiso   1.00
H194   H     0.55453   0.25042   0.30969   0.00000  Uiso   1.00
H195   H     0.58100   0.29655   0.32487   0.00000  Uiso   1.00
H196   H     0.37467   0.11424   0.29972   0.00000  Uiso   1.00
H197   H     0.62556   0.22317   0.20528   0.00000  Uiso   1.00
H198   H     0.63167   0.11711   0.30258   0.00000  Uiso   1.00
H199   H     0.36864   0.22381   0.20573   0.00000  Uiso   1.00
H200   H     0.60053   0.21329   0.35522   0.00000  Uiso   1.00
N201   N     0.50000   0.28573   0.25000   0.00000  Uiso   1.00
N202   N     0.50000   0.04760   0.25000   0.00000  Uiso   1.00
O203   O     0.43892   0.20487   0.24999   0.00000  Uiso   1.00
O204   O     0.56108   0.12846   0.25000   0.00000  Uiso   1.00
O205   O     0.56108   0.20487   0.25000   0.00000  Uiso   1.00
O206   O     0.43892   0.12846   0.24999   0.00000  Uiso   1.00
O207   O     0.49999   0.20489   0.18392   0.00000  Uiso   1.00
O208   O     0.50001   0.12844   0.31607   0.00000  Uiso   1.00
O209   O     0.50001   0.20489   0.31607   0.00000  Uiso   1.00
O210   O     0.49999   0.12844   0.18392   0.00000  Uiso   1.00
Zn211  Zn    0.50000   0.21771   0.25000   0.00000  Uiso   1.00
Zn212  Zn    0.50000   0.11563   0.25000   0.00000  Uiso   1.00
C213   C     0.75361   0.16696   0.24986   0.00000  Uiso   1.00
C214   C     0.70943   0.16777   0.25115   0.00000  Uiso   1.00
C215   C     0.86089   0.02299   0.27762   0.00000  Uiso   1.00
C216   C     0.80825   0.31023   0.21979   0.00000  Uiso   1.00
C217   C     0.80560   0.02442   0.22237   0.00000  Uiso   1.00
C218   C     0.85814   0.30890   0.28043   0.00000  Uiso   1.00
C219   C     0.83229   0.16684   0.16392   0.00000  Uiso   1.00
C220   C     0.83466   0.16638   0.33607   0.00000  Uiso   1.00
C221   C     0.87294   0.16059   0.40868   0.00000  Uiso   1.00
C222   C     0.79343   0.16299   0.09148   0.00000  Uiso   1.00
C223   C     0.83436   0.16515   0.38375   0.00000  Uiso   1.00
C224   C     0.91308   0.16665   0.25061   0.00000  Uiso   1.00
C225   C     0.83211   0.16691   0.11619   0.00000  Uiso   1.00
C226   C     0.79520   0.16659   0.40375   0.00000  Uiso   1.00
C227   C     0.87110   0.16847   0.09597   0.00000  Uiso   1.00
C228   C     0.79488   0.16472   0.45056   0.00000  Uiso   1.00
C229   C     0.87145   0.16505   0.04934   0.00000  Uiso   1.00
C230   C     0.83339   0.16368   0.47643   0.00000  Uiso   1.00
C231   C     0.83294   0.16409   0.02355   0.00000  Uiso   1.00
C232   C     0.87234   0.16146   0.45550   0.00000  Uiso   1.00
C233   C     0.79403   0.16282   0.04458   0.00000  Uiso   1.00
C234   C     0.75688   0.16306   0.47225   0.00000  Uiso   1.00
C235   C     0.75657   0.16068   0.01805   0.00000  Uiso   1.00
C236   C     0.90948   0.16193   0.02781   0.00000  Uiso   1.00
C237   C     0.91414   0.15194   0.38556   0.00000  Uiso   1.00
C238   C     0.94251   0.19236   0.38472   0.00000  Uiso   1.00
C239   C     0.75204   0.15726   0.11497   0.00000  Uiso   1.00
C240   C     0.72431   0.19901   0.11272   0.00000  Uiso   1.00
C241   C     0.75411   0.16893   0.37486   0.00000  Uiso   1.00
C242   C     0.73552   0.21572   0.37275   0.00000  Uiso   1.00
C243   C     0.91203   0.17337   0.12446   0.00000  Uiso   1.00
C244   C     0.93247   0.12843   0.13608   0.00000  Uiso   1.00
C245   C     0.89716   0.04495   0.30268   0.00000  Uiso   1.00
C246   C     0.90988   0.15941   0.48206   0.00000  Uiso   1.00
C247   C     0.93815   0.03648   0.27899   0.00000  Uiso   1.00
C248   C     0.78521   0.28718   0.18158   0.00000  Uiso   1.00
C249   C     0.81016   0.28958   0.13923   0.00000  Uiso   1.00
C250   C     0.77045   0.04865   0.19573   0.00000  Uiso   1.00
C251   C     0.72876   0.04541   0.21884   0.00000  Uiso   1.00
C252   C     0.88197   0.28455   0.31842   0.00000  Uiso   1.00
C253   C     0.85824   0.28701   0.36153   0.00000  Uiso   1.00
C254   C     0.69000   0.13755   0.27855   0.00000  Uiso   1.00
C255   C     0.97687   0.19919   0.22568   0.00000  Uiso   1.00
C256   C     0.98033   0.13828   0.27948   0.00000  Uiso   1.00
C257   C     0.68660   0.19954   0.22583   0.00000  Uiso   1.00
C258   C     0.95738   0.16747   0.25142   0.00000  Uiso   1.00
H259   H     0.72652   0.16313   0.45459   0.00000  Uiso   1.00
H260   H     0.94039   0.21276   0.41507   0.00000  Uiso   1.00
H261   H     0.97566   0.18129   0.38197   0.00000  Uiso   1.00
H262   H     0.93128   0.12361   0.40223   0.00000  Uiso   1.00
H263   H     0.90884   0.14094   0.35075   0.00000  Uiso   1.00
H264   H     0.73737   0.22383   0.13599   0.00000  Uiso   1.00
H265   H     0.72184   0.21432   0.07898   0.00000  Uiso   1.00
H266   H     0.69222   0.19079   0.12282   0.00000  Uiso   1.00
H267   H     0.73453   0.12895   0.10033   0.00000  Uiso   1.00
H268   H     0.75699   0.14810   0.15066   0.00000  Uiso   1.00
H269   H     0.72814   0.22737   0.40646   0.00000  Uiso   1.00
H270   H     0.93976   0.16051   0.04566   0.00000  Uiso   1.00
H271   H     0.75803   0.23875   0.35807   0.00000  Uiso   1.00
H272   H     0.70612   0.21622   0.35120   0.00000  Uiso   1.00
H273   H     0.75863   0.15847   0.34034   0.00000  Uiso   1.00
H274   H     0.73087   0.14493   0.38641   0.00000  Uiso   1.00
H275   H     0.91191   0.10886   0.15739   0.00000  Uiso   1.00
H276   H     0.93820   0.10939   0.10550   0.00000  Uiso   1.00
H277   H     0.96307   0.13323   0.15465   0.00000  Uiso   1.00
H278   H     0.93445   0.19504   0.10778   0.00000  Uiso   1.00
H279   H     0.90668   0.19101   0.15582   0.00000  Uiso   1.00
H280   H     0.93942   0.05787   0.24885   0.00000  Uiso   1.00
H281   H     0.72606   0.15777   0.03187   0.00000  Uiso   1.00
H282   H     0.96565   0.04290   0.30207   0.00000  Uiso   1.00
H283   H     0.94106   0.00175   0.26789   0.00000  Uiso   1.00
H284   H     0.89159   0.08017   0.30687   0.00000  Uiso   1.00
H285   H     0.90072   0.03322   0.33772   0.00000  Uiso   1.00
H286   H     0.81109   0.32398   0.12624   0.00000  Uiso   1.00
H287   H     0.84310   0.27795   0.14603   0.00000  Uiso   1.00
H288   H     0.79526   0.26866   0.11288   0.00000  Uiso   1.00
H289   H     0.77919   0.25302   0.19059   0.00000  Uiso   1.00
H290   H     0.75306   0.30041   0.17435   0.00000  Uiso   1.00
H291   H     0.73306   0.05452   0.25448   0.00000  Uiso   1.00
H292   H     0.94043   0.15648   0.46822   0.00000  Uiso   1.00
H293   H     0.70508   0.06816   0.20217   0.00000  Uiso   1.00
H294   H     0.71628   0.01141   0.21748   0.00000  Uiso   1.00
H295   H     0.77763   0.08321   0.19066   0.00000  Uiso   1.00
H296   H     0.76648   0.03681   0.16104   0.00000  Uiso   1.00
H297   H     0.85825   0.32106   0.37483   0.00000  Uiso   1.00
H298   H     0.82503   0.27711   0.35559   0.00000  Uiso   1.00
H299   H     0.87350   0.26463   0.38722   0.00000  Uiso   1.00
H300   H     0.88786   0.25042   0.30969   0.00000  Uiso   1.00
H301   H     0.91433   0.29655   0.32487   0.00000  Uiso   1.00
H302   H     0.70800   0.11424   0.29972   0.00000  Uiso   1.00
H303   H     0.95889   0.22317   0.20528   0.00000  Uiso   1.00
H304   H     0.96501   0.11711   0.30258   0.00000  Uiso   1.00
H305   H     0.70197   0.22381   0.20573   0.00000  Uiso   1.00
H306   H     0.93386   0.21329   0.35522   0.00000  Uiso   1.00
N307   N     0.83333   0.28573   0.25000   0.00000  Uiso   1.00
N308   N     0.83333   0.04760   0.25000   0.00000  Uiso   1.00
O309   O     0.77226   0.20487   0.24999   0.00000  Uiso   1.00
O310   O     0.89441   0.12846   0.25000   0.00000  Uiso   1.00
O311   O     0.89441   0.20487   0.25000   0.00000  Uiso   1.00
O312   O     0.77226   0.12846   0.24999   0.00000  Uiso   1.00
O313   O     0.83333   0.20489   0.18392   0.00000  Uiso   1.00
O314   O     0.83334   0.12844   0.31607   0.00000  Uiso   1.00
O315   O     0.83334   0.20489   0.31607   0.00000  Uiso   1.00
O316   O     0.83333   0.12844   0.18392   0.00000  Uiso   1.00
Zn317  Zn    0.83333   0.21771   0.25000   0.00000  Uiso   1.00
Zn318  Zn    0.83333   0.11563   0.25000   0.00000  Uiso   1.00
C319   C     0.08694   0.50029   0.24986   0.00000  Uiso   1.00
C320   C     0.04276   0.50110   0.25115   0.00000  Uiso   1.00
C321   C     0.19422   0.35632   0.27762   0.00000  Uiso   1.00
C322   C     0.14158   0.64356   0.21979   0.00000  Uiso   1.00
C323   C     0.13893   0.35775   0.22237   0.00000  Uiso   1.00
C324   C     0.19147   0.64224   0.28043   0.00000  Uiso   1.00
C325   C     0.16563   0.50017   0.16392   0.00000  Uiso   1.00
C326   C     0.16800   0.49971   0.33607   0.00000  Uiso   1.00
C327   C     0.20628   0.49393   0.40868   0.00000  Uiso   1.00
C328   C     0.12677   0.49633   0.09148   0.00000  Uiso   1.00
C329   C     0.16769   0.49848   0.38375   0.00000  Uiso   1.00
C330   C     0.24641   0.49998   0.25061   0.00000  Uiso   1.00
C331   C     0.16544   0.50024   0.11619   0.00000  Uiso   1.00
C332   C     0.12853   0.49992   0.40375   0.00000  Uiso   1.00
C333   C     0.20444   0.50180   0.09597   0.00000  Uiso   1.00
C334   C     0.12821   0.49806   0.45056   0.00000  Uiso   1.00
C335   C     0.20478   0.49839   0.04934   0.00000  Uiso   1.00
C336   C     0.16673   0.49702   0.47643   0.00000  Uiso   1.00
C337   C     0.16628   0.49743   0.02355   0.00000  Uiso   1.00
C338   C     0.20567   0.49480   0.45550   0.00000  Uiso   1.00
C339   C     0.12737   0.49616   0.04458   0.00000  Uiso   1.00
C340   C     0.09022   0.49639   0.47225   0.00000  Uiso   1.00
C341   C     0.08990   0.49401   0.01805   0.00000  Uiso   1.00
C342   C     0.24282   0.49527   0.02781   0.00000  Uiso   1.00
C343   C     0.24748   0.48527   0.38556   0.00000  Uiso   1.00
C344   C     0.27584   0.52569   0.38472   0.00000  Uiso   1.00
C345   C     0.08538   0.49060   0.11497   0.00000  Uiso   1.00
C346   C     0.05765   0.53235   0.11272   0.00000  Uiso   1.00
C347   C     0.08745   0.50226   0.37486   0.00000  Uiso   1.00
C348   C     0.06885   0.54905   0.37275   0.00000  Uiso   1.00
C349   C     0.24537   0.50670   0.12446   0.00000  Uiso   1.00
C350   C     0.26580   0.46176   0.13608   0.00000  Uiso   1.00
C351   C     0.23049   0.37828   0.30268   0.00000  Uiso   1.00
C352   C     0.24321   0.49274   0.48206   0.00000  Uiso   1.00
C353   C     0.27148   0.36981   0.27899   0.00000  Uiso   1.00
C354   C     0.11854   0.62051   0.18158   0.00000  Uiso   1.00
C355   C     0.14350   0.62292   0.13923   0.00000  Uiso   1.00
C356   C     0.10379   0.38198   0.19573   0.00000  Uiso   1.00
C357   C     0.06210   0.37874   0.21884   0.00000  Uiso   1.00
C358   C     0.21531   0.61788   0.31842   0.00000  Uiso   1.00
C359   C     0.19157   0.62034   0.36153   0.00000  Uiso   1.00
C360   C     0.02333   0.47088   0.27855   0.00000  Uiso   1.00
C361   C     0.31020   0.53252   0.22568   0.00000  Uiso   1.00
C362   C     0.31366   0.47161   0.27948   0.00000  Uiso   1.00
C363   C     0.01993   0.53287   0.22583   0.00000  Uiso   1.00
C364   C     0.29072   0.50080   0.25142   0.00000  Uiso   1.00
H365   H     0.05985   0.49646   0.45459   0.00000  Uiso   1.00
H366   H     0.27372   0.54609   0.41507   0.00000  Uiso   1.00
H367   H     0.30899   0.51462   0.38197   0.00000  Uiso   1.00
H368   H     0.26462   0.45695   0.40223   0.00000  Uiso   1.00
H369   H     0.24217   0.47427   0.35075   0.00000  Uiso   1.00
H370   H     0.07070   0.55716   0.13599   0.00000  Uiso   1.00
H371   H     0.05517   0.54765   0.07898   0.00000  Uiso   1.00
H372   H     0.02555   0.52413   0.12282   0.00000  Uiso   1.00
H373   H     0.06786   0.46229   0.10033   0.00000  Uiso   1.00
H374   H     0.09033   0.48144   0.15066   0.00000  Uiso   1.00
H375   H     0.06147   0.56071   0.40646   0.00000  Uiso   1.00
H376   H     0.27310   0.49384   0.04566   0.00000  Uiso   1.00
H377   H     0.09137   0.57208   0.35807   0.00000  Uiso   1.00
H378   H     0.03946   0.54956   0.35120   0.00000  Uiso   1.00
H379   H     0.09196   0.49180   0.34034   0.00000  Uiso   1.00
H380   H     0.06420   0.47827   0.38641   0.00000  Uiso   1.00
H381   H     0.24524   0.44219   0.15739   0.00000  Uiso   1.00
H382   H     0.27153   0.44272   0.10550   0.00000  Uiso   1.00
H383   H     0.29641   0.46657   0.15465   0.00000  Uiso   1.00
H384   H     0.26778   0.52837   0.10778   0.00000  Uiso   1.00
H385   H     0.24001   0.52435   0.15582   0.00000  Uiso   1.00
H386   H     0.27275   0.39120   0.24885   0.00000  Uiso   1.00
H387   H     0.05940   0.49110   0.03187   0.00000  Uiso   1.00
H388   H     0.29898   0.37623   0.30207   0.00000  Uiso   1.00
H389   H     0.27439   0.33508   0.26789   0.00000  Uiso   1.00
H390   H     0.22492   0.41351   0.30687   0.00000  Uiso   1.00
H391   H     0.23405   0.36656   0.33772   0.00000  Uiso   1.00
H392   H     0.14442   0.65731   0.12624   0.00000  Uiso   1.00
H393   H     0.17644   0.61129   0.14603   0.00000  Uiso   1.00
H394   H     0.12859   0.60199   0.11288   0.00000  Uiso   1.00
H395   H     0.11252   0.58635   0.19059   0.00000  Uiso   1.00
H396   H     0.08639   0.63374   0.17435   0.00000  Uiso   1.00
H397   H     0.06639   0.38785   0.25448   0.00000  Uiso   1.00
H398   H     0.27377   0.48981   0.46822   0.00000  Uiso   1.00
H399   H     0.03842   0.40150   0.20217   0.00000  Uiso   1.00
H400   H     0.04961   0.34474   0.21748   0.00000  Uiso   1.00
H401   H     0.11096   0.41654   0.19066   0.00000  Uiso   1.00
H402   H     0.09981   0.37015   0.16104   0.00000  Uiso   1.00
H403   H     0.19158   0.65439   0.37483   0.00000  Uiso   1.00
H404   H     0.15837   0.61044   0.35559   0.00000  Uiso   1.00
H405   H     0.20684   0.59796   0.38722   0.00000  Uiso   1.00
H406   H     0.22119   0.58376   0.30969   0.00000  Uiso   1.00
H407   H     0.24767   0.62988   0.32487   0.00000  Uiso   1.00
H408   H     0.04133   0.44758   0.29972   0.00000  Uiso   1.00
H409   H     0.29222   0.55650   0.20528   0.00000  Uiso   1.00
H410   H     0.29834   0.45044   0.30258   0.00000  Uiso   1.00
H411   H     0.03530   0.55715   0.20573   0.00000  Uiso   1.00
H412   H     0.26720   0.54662   0.35522   0.00000  Uiso   1.00
N413   N     0.16667   0.61907   0.25000   0.00000  Uiso   1.00
N414   N     0.16667   0.38093   0.25000   0.00000  Uiso   1.00
O415   O     0.10559   0.53821   0.24999   0.00000  Uiso   1.00
O416   O     0.22774   0.46179   0.25000   0.00000  Uiso   1.00
O417   O     0.22774   0.53821   0.25000   0.00000  Uiso   1.00
O418   O     0.10559   0.46179   0.24999   0.00000  Uiso   1.00
O419   O     0.16666   0.53823   0.18392   0.00000  Uiso   1.00
O420   O     0.16667   0.46177   0.31607   0.00000  Uiso   1.00
O421   O     0.16667   0.53823   0.31607   0.00000  Uiso   1.00
O422   O     0.16666   0.46177   0.18392   0.00000  Uiso   1.00
Zn423  Zn    0.16667   0.55104   0.25000   0.00000  Uiso   1.00
Zn424  Zn    0.16667   0.44896   0.25000   0.00000  Uiso   1.00
C425   C     0.42027   0.50029   0.24986   0.00000  Uiso   1.00
C426   C     0.37610   0.50110   0.25115   0.00000  Uiso   1.00
C427   C     0.52755   0.35632   0.27762   0.00000  Uiso   1.00
C428   C     0.47492   0.64356   0.21979   0.00000  Uiso   1.00
C429   C     0.47226   0.35775   0.22237   0.00000  Uiso   1.00
C430   C     0.52481   0.64224   0.28043   0.00000  Uiso   1.00
C431   C     0.49896   0.50017   0.16392   0.00000  Uiso   1.00
C432   C     0.50133   0.49971   0.33607   0.00000  Uiso   1.00
C433   C     0.53961   0.49393   0.40868   0.00000  Uiso   1.00
C434   C     0.46010   0.49633   0.09148   0.00000  Uiso   1.00
C435   C     0.50102   0.49848   0.38375   0.00000  Uiso   1.00
C436   C     0.57975   0.49998   0.25061   0.00000  Uiso   1.00
C437   C     0.49877   0.50024   0.11619   0.00000  Uiso   1.00
C438   C     0.46186   0.49992   0.40375   0.00000  Uiso   1.00
C439   C     0.53777   0.50180   0.09597   0.00000  Uiso   1.00
C440   C     0.46154   0.49806   0.45056   0.00000  Uiso   1.00
C441   C     0.53812   0.49839   0.04934   0.00000  Uiso   1.00
C442   C     0.50006   0.49702   0.47643   0.00000  Uiso   1.00
C443   C     0.49961   0.49743   0.02355   0.00000  Uiso   1.00
C444   C     0.53901   0.49480   0.45550   0.00000  Uiso   1.00
C445   C     0.46070   0.49616   0.04458   0.00000  Uiso   1.00
C446   C     0.42355   0.49639   0.47225   0.00000  Uiso   1.00
C447   C     0.42323   0.49401   0.01805   0.00000  Uiso   1.00
C448   C     0.57615   0.49527   0.02781   0.00000  Uiso   1.00
C449   C     0.58081   0.48527   0.38556   0.00000  Uiso   1.00
C450   C     0.60918   0.52569   0.38472   0.00000  Uiso   1.00
C451   C     0.41871   0.49060   0.11497   0.00000  Uiso   1.00
C452   C     0.39098   0.53235   0.11272   0.00000  Uiso   1.00
C453   C     0.42078   0.50226   0.37486   0.00000  Uiso   1.00
C454   C     0.40219   0.54905   0.37275   0.00000  Uiso   1.00
C455   C     0.57870   0.50670   0.12446   0.00000  Uiso   1.00
C456   C     0.59913   0.46176   0.13608   0.00000  Uiso   1.00
C457   C     0.56382   0.37828   0.30268   0.00000  Uiso   1.00
C458   C     0.57654   0.49274   0.48206   0.00000  Uiso   1.00
C459   C     0.60482   0.36981   0.27899   0.00000  Uiso   1.00
C460   C     0.45188   0.62051   0.18158   0.00000  Uiso   1.00
C461   C     0.47683   0.62292   0.13923   0.00000  Uiso   1.00
C462   C     0.43712   0.38198   0.19573   0.00000  Uiso   1.00
C463   C     0.39543   0.37874   0.21884   0.00000  Uiso   1.00
C464   C     0.54864   0.61788   0.31842   0.00000  Uiso   1.00
C465   C     0.52491   0.62034   0.36153   0.00000  Uiso   1.00
C466   C     0.35667   0.47088   0.27855   0.00000  Uiso   1.00
C467   C     0.64354   0.53252   0.22568   0.00000  Uiso   1.00
C468   C     0.64699   0.47161   0.27948   0.00000  Uiso   1.00
C469   C     0.35327   0.53287   0.22583   0.00000  Uiso   1.00
C470   C     0.62405   0.50080   0.25142   0.00000  Uiso   1.00
H471   H     0.39319   0.49646   0.45459   0.00000  Uiso   1.00
H472   H     0.60706   0.54609   0.41507   0.00000  Uiso   1.00
H473   H     0.64232   0.51462   0.38197   0.00000  Uiso   1.00
H474   H     0.59795   0.45695   0.40223   0.00000  Uiso   1.00
H475   H     0.57551   0.47427   0.35075   0.00000  Uiso   1.00
H476   H     0.40403   0.55716   0.13599   0.00000  Uiso   1.00
H477   H     0.38850   0.54765   0.07898   0.00000  Uiso   1.00
H478   H     0.35889   0.52413   0.12282   0.00000  Uiso   1.00
H479   H     0.40120   0.46229   0.10033   0.00000  Uiso   1.00
H480   H     0.42366   0.48144   0.15066   0.00000  Uiso   1.00
H481   H     0.39480   0.56071   0.40646   0.00000  Uiso   1.00
H482   H     0.60643   0.49384   0.04566   0.00000  Uiso   1.00
H483   H     0.42470   0.57208   0.35807   0.00000  Uiso   1.00
H484   H     0.37279   0.54956   0.35120   0.00000  Uiso   1.00
H485   H     0.42529   0.49180   0.34034   0.00000  Uiso   1.00
H486   H     0.39753   0.47827   0.38641   0.00000  Uiso   1.00
H487   H     0.57857   0.44219   0.15739   0.00000  Uiso   1.00
H488   H     0.60487   0.44272   0.10550   0.00000  Uiso   1.00
H489   H     0.62974   0.46657   0.15465   0.00000  Uiso   1.00
H490   H     0.60111   0.52837   0.10778   0.00000  Uiso   1.00
H491   H     0.57334   0.52435   0.15582   0.00000  Uiso   1.00
H492   H     0.60609   0.39120   0.24885   0.00000  Uiso   1.00
H493   H     0.39273   0.49110   0.03187   0.00000  Uiso   1.00
H494   H     0.63232   0.37623   0.30207   0.00000  Uiso   1.00
H495   H     0.60772   0.33508   0.26789   0.00000  Uiso   1.00
H496   H     0.55825   0.41351   0.30687   0.00000  Uiso   1.00
H497   H     0.56739   0.36656   0.33772   0.00000  Uiso   1.00
H498   H     0.47776   0.65731   0.12624   0.00000  Uiso   1.00
H499   H     0.50977   0.61129   0.14603   0.00000  Uiso   1.00
H500   H     0.46193   0.60199   0.11288   0.00000  Uiso   1.00
H501   H     0.44586   0.58635   0.19059   0.00000  Uiso   1.00
H502   H     0.41973   0.63374   0.17435   0.00000  Uiso   1.00
H503   H     0.39972   0.38785   0.25448   0.00000  Uiso   1.00
H504   H     0.60710   0.48981   0.46822   0.00000  Uiso   1.00
H505   H     0.37175   0.40150   0.20217   0.00000  Uiso   1.00
H506   H     0.38294   0.34474   0.21748   0.00000  Uiso   1.00
H507   H     0.44430   0.41654   0.19066   0.00000  Uiso   1.00
H508   H     0.43315   0.37015   0.16104   0.00000  Uiso   1.00
H509   H     0.52492   0.65439   0.37483   0.00000  Uiso   1.00
H510   H     0.49170   0.61044   0.35559   0.00000  Uiso   1.00
H511   H     0.54017   0.59796   0.38722   0.00000  Uiso   1.00
H512   H     0.55453   0.58376   0.30969   0.00000  Uiso   1.00
H513   H     0.58100   0.62988   0.32487   0.00000  Uiso   1.00
H514   H     0.37467   0.44758   0.29972   0.00000  Uiso   1.00
H515   H     0.62556   0.55650   0.20528   0.00000  Uiso   1.00
H516   H     0.63167   0.45044   0.30258   0.00000  Uiso   1.00
H517   H     0.36864   0.55715   0.20573   0.00000  Uiso   1.00
H518   H     0.60053   0.54662   0.35522   0.00000  Uiso   1.00
N519   N     0.50000   0.61907   0.25000   0.00000  Uiso   1.00
N520   N     0.50000   0.38093   0.25000   0.00000  Uiso   1.00
O521   O     0.43892   0.53821   0.24999   0.00000  Uiso   1.00
O522   O     0.56108   0.46179   0.25000   0.00000  Uiso   1.00
O523   O     0.56108   0.53821   0.25000   0.00000  Uiso   1.00
O524   O     0.43892   0.46179   0.24999   0.00000  Uiso   1.00
O525   O     0.49999   0.53823   0.18392   0.00000  Uiso   1.00
O526   O     0.50001   0.46177   0.31607   0.00000  Uiso   1.00
O527   O     0.50001   0.53823   0.31607   0.00000  Uiso   1.00
O528   O     0.49999   0.46177   0.18392   0.00000  Uiso   1.00
Zn529  Zn    0.50000   0.55104   0.25000   0.00000  Uiso   1.00
Zn530  Zn    0.50000   0.44896   0.25000   0.00000  Uiso   1.00
C531   C     0.75361   0.50029   0.24986   0.00000  Uiso   1.00
C532   C     0.70943   0.50110   0.25115   0.00000  Uiso   1.00
C533   C     0.86089   0.35632   0.27762   0.00000  Uiso   1.00
C534   C     0.80825   0.64356   0.21979   0.00000  Uiso   1.00
C535   C     0.80560   0.35775   0.22237   0.00000  Uiso   1.00
C536   C     0.85814   0.64224   0.28043   0.00000  Uiso   1.00
C537   C     0.83229   0.50017   0.16392   0.00000  Uiso   1.00
C538   C     0.83466   0.49971   0.33607   0.00000  Uiso   1.00
C539   C     0.87294   0.49393   0.40868   0.00000  Uiso   1.00
C540   C     0.79343   0.49633   0.09148   0.00000  Uiso   1.00
C541   C     0.83436   0.49848   0.38375   0.00000  Uiso   1.00
C542   C     0.91308   0.49998   0.25061   0.00000  Uiso   1.00
C543   C     0.83211   0.50024   0.11619   0.00000  Uiso   1.00
C544   C     0.79520   0.49992   0.40375   0.00000  Uiso   1.00
C545   C     0.87110   0.50180   0.09597   0.00000  Uiso   1.00
C546   C     0.79488   0.49806   0.45056   0.00000  Uiso   1.00
C547   C     0.87145   0.49839   0.04934   0.00000  Uiso   1.00
C548   C     0.83339   0.49702   0.47643   0.00000  Uiso   1.00
C549   C     0.83294   0.49743   0.02355   0.00000  Uiso   1.00
C550   C     0.87234   0.49480   0.45550   0.00000  Uiso   1.00
C551   C     0.79403   0.49616   0.04458   0.00000  Uiso   1.00
C552   C     0.75688   0.49639   0.47225   0.00000  Uiso   1.00
C553   C     0.75657   0.49401   0.01805   0.00000  Uiso   1.00
C554   C     0.90948   0.49527   0.02781   0.00000  Uiso   1.00
C555   C     0.91414   0.48527   0.38556   0.00000  Uiso   1.00
C556   C     0.94251   0.52569   0.38472   0.00000  Uiso   1.00
C557   C     0.75204   0.49060   0.11497   0.00000  Uiso   1.00
C558   C     0.72431   0.53235   0.11272   0.00000  Uiso   1.00
C559   C     0.75411   0.50226   0.37486   0.00000  Uiso   1.00
C560   C     0.73552   0.54905   0.37275   0.00000  Uiso   1.00
C561   C     0.91203   0.50670   0.12446   0.00000  Uiso   1.00
C562   C     0.93247   0.46176   0.13608   0.00000  Uiso   1.00
C563   C     0.89716   0.37828   0.30268   0.00000  Uiso   1.00
C564   C     0.90988   0.49274   0.48206   0.00000  Uiso   1.00
C565   C     0.93815   0.36981   0.27899   0.00000  Uiso   1.00
C566   C     0.78521   0.62051   0.18158   0.00000  Uiso   1.00
C567   C     0.81016   0.62292   0.13923   0.00000  Uiso   1.00
C568   C     0.77045   0.38198   0.19573   0.00000  Uiso   1.00
C569   C     0.72876   0.37874   0.21884   0.00000  Uiso   1.00
C570   C     0.88197   0.61788   0.31842   0.00000  Uiso   1.00
C571   C     0.85824   0.62034   0.36153   0.00000  Uiso   1.00
C572   C     0.69000   0.47088   0.27855   0.00000  Uiso   1.00
C573   C     0.97687   0.53252   0.22568   0.00000  Uiso   1.00
C574   C     0.98033   0.47161   0.27948   0.00000  Uiso   1.00
C575   C     0.68660   0.53287   0.22583   0.00000  Uiso   1.00
C576   C     0.95738   0.50080   0.25142   0.00000  Uiso   1.00
H577   H     0.72652   0.49646   0.45459   0.00000  Uiso   1.00
H578   H     0.94039   0.54609   0.41507   0.00000  Uiso   1.00
H579   H     0.97566   0.51462   0.38197   0.00000  Uiso   1.00
H580   H     0.93128   0.45695   0.40223   0.00000  Uiso   1.00
H581   H     0.90884   0.47427   0.35075   0.00000  Uiso   1.00
H582   H     0.73737   0.55716   0.13599   0.00000  Uiso   1.00
H583   H     0.72184   0.54765   0.07898   0.00000  Uiso   1.00
H584   H     0.69222   0.52413   0.12282   0.00000  Uiso   1.00
H585   H     0.73453   0.46229   0.10033   0.00000  Uiso   1.00
H586   H     0.75699   0.48144   0.15066   0.00000  Uiso   1.00
H587   H     0.72814   0.56071   0.40646   0.00000  Uiso   1.00
H588   H     0.93976   0.49384   0.04566   0.00000  Uiso   1.00
H589   H     0.75803   0.57208   0.35807   0.00000  Uiso   1.00
H590   H     0.70612   0.54956   0.35120   0.00000  Uiso   1.00
H591   H     0.75863   0.49180   0.34034   0.00000  Uiso   1.00
H592   H     0.73087   0.47827   0.38641   0.00000  Uiso   1.00
H593   H     0.91191   0.44219   0.15739   0.00000  Uiso   1.00
H594   H     0.93820   0.44272   0.10550   0.00000  Uiso   1.00
H595   H     0.96307   0.46657   0.15465   0.00000  Uiso   1.00
H596   H     0.93445   0.52837   0.10778   0.00000  Uiso   1.00
H597   H     0.90668   0.52435   0.15582   0.00000  Uiso   1.00
H598   H     0.93942   0.39120   0.24885   0.00000  Uiso   1.00
H599   H     0.72606   0.49110   0.03187   0.00000  Uiso   1.00
H600   H     0.96565   0.37623   0.30207   0.00000  Uiso   1.00
H601   H     0.94106   0.33508   0.26789   0.00000  Uiso   1.00
H602   H     0.89159   0.41351   0.30687   0.00000  Uiso   1.00
H603   H     0.90072   0.36656   0.33772   0.00000  Uiso   1.00
H604   H     0.81109   0.65731   0.12624   0.00000  Uiso   1.00
H605   H     0.84310   0.61129   0.14603   0.00000  Uiso   1.00
H606   H     0.79526   0.60199   0.11288   0.00000  Uiso   1.00
H607   H     0.77919   0.58635   0.19059   0.00000  Uiso   1.00
H608   H     0.75306   0.63374   0.17435   0.00000  Uiso   1.00
H609   H     0.73306   0.38785   0.25448   0.00000  Uiso   1.00
H610   H     0.94043   0.48981   0.46822   0.00000  Uiso   1.00
H611   H     0.70508   0.40150   0.20217   0.00000  Uiso   1.00
H612   H     0.71628   0.34474   0.21748   0.00000  Uiso   1.00
H613   H     0.77763   0.41654   0.19066   0.00000  Uiso   1.00
H614   H     0.76648   0.37015   0.16104   0.00000  Uiso   1.00
H615   H     0.85825   0.65439   0.37483   0.00000  Uiso   1.00
H616   H     0.82503   0.61044   0.35559   0.00000  Uiso   1.00
H617   H     0.87350   0.59796   0.38722   0.00000  Uiso   1.00
H618   H     0.88786   0.58376   0.30969   0.00000  Uiso   1.00
H619   H     0.91433   0.62988   0.32487   0.00000  Uiso   1.00
H620   H     0.70800   0.44758   0.29972   0.00000  Uiso   1.00
H621   H     0.95889   0.55650   0.20528   0.00000  Uiso   1.00
H622   H     0.96501   0.45044   0.30258   0.00000  Uiso   1.00
H623   H     0.70197   0.55715   0.20573   0.00000  Uiso   1.00
H624   H     0.93386   0.54662   0.35522   0.00000  Uiso   1.00
N625   N     0.83333   0.61907   0.25000   0.00000  Uiso   1.00
N626   N     0.83333   0.38093   0.25000   0.00000  Uiso   1.00
O627   O     0.77226   0.53821   0.24999   0.00000  Uiso   1.00
O628   O     0.89441   0.46179   0.25000   0.00000  Uiso   1.00
O629   O     0.89441   0.53821   0.25000   0.00000  Uiso   1.00
O630   O     0.77226   0.46179   0.24999   0.00000  Uiso   1.00
O631   O     0.83333   0.53823   0.18392   0.00000  Uiso   1.00
O632   O     0.83334   0.46177   0.31607   0.00000  Uiso   1.00
O633   O     0.83334   0.53823   0.31607   0.00000  Uiso   1.00
O634   O     0.83333   0.46177   0.18392   0.00000  Uiso   1.00
Zn635  Zn    0.83333   0.55104   0.25000   0.00000  Uiso   1.00
Zn636  Zn    0.83333   0.44896   0.25000   0.00000  Uiso   1.00
C637   C     0.08694   0.83362   0.24986   0.00000  Uiso   1.00
C638   C     0.04276   0.83444   0.25115   0.00000  Uiso   1.00
C639   C     0.19422   0.68965   0.27762   0.00000  Uiso   1.00
C640   C     0.14158   0.97690   0.21979   0.00000  Uiso   1.00
C641   C     0.13893   0.69108   0.22237   0.00000  Uiso   1.00
C642   C     0.19147   0.97557   0.28043   0.00000  Uiso   1.00
C643   C     0.16563   0.83350   0.16392   0.00000  Uiso   1.00
C644   C     0.16800   0.83305   0.33607   0.00000  Uiso   1.00
C645   C     0.20628   0.82726   0.40868   0.00000  Uiso   1.00
C646   C     0.12677   0.82966   0.09148   0.00000  Uiso   1.00
C647   C     0.16769   0.83181   0.38375   0.00000  Uiso   1.00
C648   C     0.24641   0.83332   0.25061   0.00000  Uiso   1.00
C649   C     0.16544   0.83358   0.11619   0.00000  Uiso   1.00
C650   C     0.12853   0.83325   0.40375   0.00000  Uiso   1.00
C651   C     0.20444   0.83514   0.09597   0.00000  Uiso   1.00
C652   C     0.12821   0.83139   0.45056   0.00000  Uiso   1.00
C653   C     0.20478   0.83172   0.04934   0.00000  Uiso   1.00
C654   C     0.16673   0.83035   0.47643   0.00000  Uiso   1.00
C655   C     0.16628   0.83076   0.02355   0.00000  Uiso   1.00
C656   C     0.20567   0.82813   0.45550   0.00000  Uiso   1.00
C657   C     0.12737   0.82949   0.04458   0.00000  Uiso   1.00
C658   C     0.09022   0.82972   0.47225   0.00000  Uiso   1.00
C659   C     0.08990   0.82734   0.01805   0.00000  Uiso   1.00
C660   C     0.24282   0.82860   0.02781   0.00000  Uiso   1.00
C661   C     0.24748   0.81861   0.38556   0.00000  Uiso   1.00
C662   C     0.27584   0.85902   0.38472   0.00000  Uiso   1.00
C663   C     0.08538   0.82393   0.11497   0.00000  Uiso   1.00
C664   C     0.05765   0.86568   0.11272   0.00000  Uiso   1.00
C665   C     0.08745   0.83560   0.37486   0.00000  Uiso   1.00
C666   C     0.06885   0.88239   0.37275   0.00000  Uiso   1.00
C667   C     0.24537   0.84003   0.12446   0.00000  Uiso   1.00
C668   C     0.26580   0.79509   0.13608   0.00000  Uiso   1.00
C669   C     0.23049   0.71162   0.30268   0.00000  Uiso   1.00
C670   C     0.24321   0.82608   0.48206   0.00000  Uiso   1.00
C671   C     0.27148   0.70314   0.27899   0.00000  Uiso   1.00
C672   C     0.11854   0.95384   0.18158   0.00000  Uiso   1.00
C673   C     0.14350   0.95625   0.13923   0.00000  Uiso   1.00
C674   C     0.10379   0.71532   0.19573   0.00000  Uiso   1.00
C675   C     0.06210   0.71208   0.21884   0.00000  Uiso   1.00
C676   C     0.21531   0.95122   0.31842   0.00000  Uiso   1.00
C677   C     0.19157   0.95368   0.36153   0.00000  Uiso   1.00
C678   C     0.02333   0.80421   0.27855   0.00000  Uiso   1.00
C679   C     0.31020   0.86585   0.22568   0.00000  Uiso   1.00
C680   C     0.31366   0.80494   0.27948   0.00000  Uiso   1.00
C681   C     0.01993   0.86621   0.22583   0.00000  Uiso   1.00
C682   C     0.29072   0.83414   0.25142   0.00000  Uiso   1.00
H683   H     0.05985   0.82979   0.45459   0.00000  Uiso   1.00
H684   H     0.27372   0.87943   0.41507   0.00000  Uiso   1.00
H685   H     0.30899   0.84795   0.38197   0.00000  Uiso   1.00
H686   H     0.26462   0.79028   0.40223   0.00000  Uiso   1.00
H687   H     0.24217   0.80761   0.35075   0.00000  Uiso   1.00
H688   H     0.07070   0.89049   0.13599   0.00000  Uiso   1.00
H689   H     0.05517   0.88098   0.07898   0.00000  Uiso   1.00
H690   H     0.02555   0.85746   0.12282   0.00000  Uiso   1.00
H691   H     0.06786   0.79562   0.10033   0.00000  Uiso   1.00
H692   H     0.09033   0.81477   0.15066   0.00000  Uiso   1.00
H693   H     0.06147   0.89404   0.40646   0.00000  Uiso   1.00
H694   H     0.27310   0.82718   0.04566   0.00000  Uiso   1.00
H695   H     0.09137   0.90541   0.35807   0.00000  Uiso   1.00
H696   H     0.03946   0.88289   0.35120   0.00000  Uiso   1.00
H697   H     0.09196   0.82513   0.34034   0.00000  Uiso   1.00
H698   H     0.06420   0.81160   0.38641   0.00000  Uiso   1.00
H699   H     0.24524   0.77553   0.15739   0.00000  Uiso   1.00
H700   H     0.27153   0.77606   0.10550   0.00000  Uiso   1.00
H701   H     0.29641   0.79990   0.15465   0.00000  Uiso   1.00
H702   H     0.26778   0.86170   0.10778   0.00000  Uiso   1.00
H703   H     0.24001   0.85768   0.15582   0.00000  Uiso   1.00
H704   H     0.27275   0.72453   0.24885   0.00000  Uiso   1.00
H705   H     0.05940   0.82443   0.03187   0.00000  Uiso   1.00
H706   H     0.29898   0.70957   0.30207   0.00000  Uiso   1.00
H707   H     0.27439   0.66841   0.26789   0.00000  Uiso   1.00
H708   H     0.22492   0.74684   0.30687   0.00000  Uiso   1.00
H709   H     0.23405   0.69989   0.33772   0.00000  Uiso   1.00
H710   H     0.14442   0.99064   0.12624   0.00000  Uiso   1.00
H711   H     0.17644   0.94462   0.14603   0.00000  Uiso   1.00
H712   H     0.12859   0.93533   0.11288   0.00000  Uiso   1.00
H713   H     0.11252   0.91969   0.19059   0.00000  Uiso   1.00
H714   H     0.08639   0.96707   0.17435   0.00000  Uiso   1.00
H715   H     0.06639   0.72118   0.25448   0.00000  Uiso   1.00
H716   H     0.27377   0.82315   0.46822   0.00000  Uiso   1.00
H717   H     0.03842   0.73483   0.20217   0.00000  Uiso   1.00
H718   H     0.04961   0.67808   0.21748   0.00000  Uiso   1.00
H719   H     0.11096   0.74988   0.19066   0.00000  Uiso   1.00
H720   H     0.09981   0.70348   0.16104   0.00000  Uiso   1.00
H721   H     0.19158   0.98773   0.37483   0.00000  Uiso   1.00
H722   H     0.15837   0.94378   0.35559   0.00000  Uiso   1.00
H723   H     0.20684   0.93129   0.38722   0.00000  Uiso   1.00
H724   H     0.22119   0.91709   0.30969   0.00000  Uiso   1.00
H725   H     0.24767   0.96322   0.32487   0.00000  Uiso   1.00
H726   H     0.04133   0.78091   0.29972   0.00000  Uiso   1.00
H727   H     0.29222   0.88983   0.20528   0.00000  Uiso   1.00
H728   H     0.29834   0.78378   0.30258   0.00000  Uiso   1.00
H729   H     0.03530   0.89048   0.20573   0.00000  Uiso   1.00
H730   H     0.26720   0.87996   0.35522   0.00000  Uiso   1.00
N731   N     0.16667   0.95240   0.25000   0.00000  Uiso   1.00
N732   N     0.16667   0.71427   0.25000   0.00000  Uiso   1.00
O733   O     0.10559   0.87154   0.24999   0.00000  Uiso   1.00
O734   O     0.22774   0.79513   0.25000   0.00000  Uiso   1.00
O735   O     0.22774   0.87154   0.25000   0.00000  Uiso   1.00
O736   O     0.10559   0.79513   0.24999   0.00000  Uiso   1.00
O737   O     0.16666   0.87156   0.18392   0.00000  Uiso   1.00
O738   O     0.16667   0.79511   0.31607   0.00000  Uiso   1.00
O739   O     0.16667   0.87156   0.31607   0.00000  Uiso   1.00
O740   O     0.16666   0.79511   0.18392   0.00000  Uiso   1.00
Zn741  Zn    0.16667   0.88437   0.25000   0.00000  Uiso   1.00
Zn742  Zn    0.16667   0.78229   0.25000   0.00000  Uiso   1.00
C743   C     0.42027   0.83362   0.24986   0.00000  Uiso   1.00
C744   C     0.37610   0.83444   0.25115   0.00000  Uiso   1.00
C745   C     0.52755   0.68965   0.27762   0.00000  Uiso   1.00
C746   C     0.47492   0.97690   0.21979   0.00000  Uiso   1.00
C747   C     0.47226   0.69108   0.22237   0.00000  Uiso   1.00
C748   C     0.52481   0.97557   0.28043   0.00000  Uiso   1.00
C749   C     0.49896   0.83350   0.16392   0.00000  Uiso   1.00
C750   C     0.50133   0.83305   0.33607   0.00000  Uiso   1.00
C751   C     0.53961   0.82726   0.40868   0.00000  Uiso   1.00
C752   C     0.46010   0.82966   0.09148   0.00000  Uiso   1.00
C753   C     0.50102   0.83181   0.38375   0.00000  Uiso   1.00
C754   C     0.57975   0.83332   0.25061   0.00000  Uiso   1.00
C755   C     0.49877   0.83358   0.11619   0.00000  Uiso   1.00
C756   C     0.46186   0.83325   0.40375   0.00000  Uiso   1.00
C757   C     0.53777   0.83514   0.09597   0.00000  Uiso   1.00
C758   C     0.46154   0.83139   0.45056   0.00000  Uiso   1.00
C759   C     0.53812   0.83172   0.04934   0.00000  Uiso   1.00
C760   C     0.50006   0.83035   0.47643   0.00000  Uiso   1.00
C761   C     0.49961   0.83076   0.02355   0.00000  Uiso   1.00
C762   C     0.53901   0.82813   0.45550   0.00000  Uiso   1.00
C763   C     0.46070   0.82949   0.04458   0.00000  Uiso   1.00
C764   C     0.42355   0.82972   0.47225   0.00000  Uiso   1.00
C765   C     0.42323   0.82734   0.01805   0.00000  Uiso   1.00
C766   C     0.57615   0.82860   0.02781   0.00000  Uiso   1.00
C767   C     0.58081   0.81861   0.38556   0.00000  Uiso   1.00
C768   C     0.60918   0.85902   0.38472   0.00000  Uiso   1.00
C769   C     0.41871   0.82393   0.11497   0.00000  Uiso   1.00
C770   C     0.39098   0.86568   0.11272   0.00000  Uiso   1.00
C771   C     0.42078   0.83560   0.37486   0.00000  Uiso   1.00
C772   C     0.40219   0.88239   0.37275   0.00000  Uiso   1.00
C773   C     0.57870   0.84003   0.12446   0.00000  Uiso   1.00
C774   C     0.59913   0.79509   0.13608   0.00000  Uiso   1.00
C775   C     0.56382   0.71162   0.30268   0.00000  Uiso   1.00
C776   C     0.57654   0.82608   0.48206   0.00000  Uiso   1.00
C777   C     0.60482   0.70314   0.27899   0.00000  Uiso   1.00
C778   C     0.45188   0.95384   0.18158   0.00000  Uiso   1.00
C779   C     0.47683   0.95625   0.13923   0.00000  Uiso   1.00
C780   C     0.43712   0.71532   0.19573   0.00000  Uiso   1.00
C781   C     0.39543   0.71208   0.21884   0.00000  Uiso   1.00
C782   C     0.54864   0.95122   0.31842   0.00000  Uiso   1.00
C783   C     0.52491   0.95368   0.36153   0.00000  Uiso   1.00
C784   C     0.35667   0.80421   0.27855   0.00000  Uiso   1.00
C785   C     0.64354   0.86585   0.22568   0.00000  Uiso   1.00
C786   C     0.64699   0.80494   0.27948   0.00000  Uiso   1.00
C787   C     0.35327   0.86621   0.22583   0.00000  Uiso   1.00
C788   C     0.62405   0.83414   0.25142   0.00000  Uiso   1.00
H789   H     0.39319   0.82979   0.45459   0.00000  Uiso   1.00
H790   H     0.60706   0.87943   0.41507   0.00000  Uiso   1.00
H791   H     0.64232   0.84795   0.38197   0.00000  Uiso   1.00
H792   H     0.59795   0.79028   0.40223   0.00000  Uiso   1.00
H793   H     0.57551   0.80761   0.35075   0.00000  Uiso   1.00
H794   H     0.40403   0.89049   0.13599   0.00000  Uiso   1.00
H795   H     0.38850   0.88098   0.07898   0.00000  Uiso   1.00
H796   H     0.35889   0.85746   0.12282   0.00000  Uiso   1.00
H797   H     0.40120   0.79562   0.10033   0.00000  Uiso   1.00
H798   H     0.42366   0.81477   0.15066   0.00000  Uiso   1.00
H799   H     0.39480   0.89404   0.40646   0.00000  Uiso   1.00
H800   H     0.60643   0.82718   0.04566   0.00000  Uiso   1.00
H801   H     0.42470   0.90541   0.35807   0.00000  Uiso   1.00
H802   H     0.37279   0.88289   0.35120   0.00000  Uiso   1.00
H803   H     0.42529   0.82513   0.34034   0.00000  Uiso   1.00
H804   H     0.39753   0.81160   0.38641   0.00000  Uiso   1.00
H805   H     0.57857   0.77553   0.15739   0.00000  Uiso   1.00
H806   H     0.60487   0.77606   0.10550   0.00000  Uiso   1.00
H807   H     0.62974   0.79990   0.15465   0.00000  Uiso   1.00
H808   H     0.60111   0.86170   0.10778   0.00000  Uiso   1.00
H809   H     0.57334   0.85768   0.15582   0.00000  Uiso   1.00
H810   H     0.60609   0.72453   0.24885   0.00000  Uiso   1.00
H811   H     0.39273   0.82443   0.03187   0.00000  Uiso   1.00
H812   H     0.63232   0.70957   0.30207   0.00000  Uiso   1.00
H813   H     0.60772   0.66841   0.26789   0.00000  Uiso   1.00
H814   H     0.55825   0.74684   0.30687   0.00000  Uiso   1.00
H815   H     0.56739   0.69989   0.33772   0.00000  Uiso   1.00
H816   H     0.47776   0.99064   0.12624   0.00000  Uiso   1.00
H817   H     0.50977   0.94462   0.14603   0.00000  Uiso   1.00
H818   H     0.46193   0.93533   0.11288   0.00000  Uiso   1.00
H819   H     0.44586   0.91969   0.19059   0.00000  Uiso   1.00
H820   H     0.41973   0.96707   0.17435   0.00000  Uiso   1.00
H821   H     0.39972   0.72118   0.25448   0.00000  Uiso   1.00
H822   H     0.60710   0.82315   0.46822   0.00000  Uiso   1.00
H823   H     0.37175   0.73483   0.20217   0.00000  Uiso   1.00
H824   H     0.38294   0.67808   0.21748   0.00000  Uiso   1.00
H825   H     0.44430   0.74988   0.19066   0.00000  Uiso   1.00
H826   H     0.43315   0.70348   0.16104   0.00000  Uiso   1.00
H827   H     0.52492   0.98773   0.37483   0.00000  Uiso   1.00
H828   H     0.49170   0.94378   0.35559   0.00000  Uiso   1.00
H829   H     0.54017   0.93129   0.38722   0.00000  Uiso   1.00
H830   H     0.55453   0.91709   0.30969   0.00000  Uiso   1.00
H831   H     0.58100   0.96322   0.32487   0.00000  Uiso   1.00
H832   H     0.37467   0.78091   0.29972   0.00000  Uiso   1.00
H833   H     0.62556   0.88983   0.20528   0.00000  Uiso   1.00
H834   H     0.63167   0.78378   0.30258   0.00000  Uiso   1.00
H835   H     0.36864   0.89048   0.20573   0.00000  Uiso   1.00
H836   H     0.60053   0.87996   0.35522   0.00000  Uiso   1.00
N837   N     0.50000   0.95240   0.25000   0.00000  Uiso   1.00
N838   N     0.50000   0.71427   0.25000   0.00000  Uiso   1.00
O839   O     0.43892   0.87154   0.24999   0.00000  Uiso   1.00
O840   O     0.56108   0.79513   0.25000   0.00000  Uiso   1.00
O841   O     0.56108   0.87154   0.25000   0.00000  Uiso   1.00
O842   O     0.43892   0.79513   0.24999   0.00000  Uiso   1.00
O843   O     0.49999   0.87156   0.18392   0.00000  Uiso   1.00
O844   O     0.50001   0.79511   0.31607   0.00000  Uiso   1.00
O845   O     0.50001   0.87156   0.31607   0.00000  Uiso   1.00
O846   O     0.49999   0.79511   0.18392   0.00000  Uiso   1.00
Zn847  Zn    0.50000   0.88437   0.25000   0.00000  Uiso   1.00
Zn848  Zn    0.50000   0.78229   0.25000   0.00000  Uiso   1.00
C849   C     0.75361   0.83362   0.24986   0.00000  Uiso   1.00
C850   C     0.70943   0.83444   0.25115   0.00000  Uiso   1.00
C851   C     0.86089   0.68965   0.27762   0.00000  Uiso   1.00
C852   C     0.80825   0.97690   0.21979   0.00000  Uiso   1.00
C853   C     0.80560   0.69108   0.22237   0.00000  Uiso   1.00
C854   C     0.85814   0.97557   0.28043   0.00000  Uiso   1.00
C855   C     0.83229   0.83350   0.16392   0.00000  Uiso   1.00
C856   C     0.83466   0.83305   0.33607   0.00000  Uiso   1.00
C857   C     0.87294   0.82726   0.40868   0.00000  Uiso   1.00
C858   C     0.79343   0.82966   0.09148   0.00000  Uiso   1.00
C859   C     0.83436   0.83181   0.38375   0.00000  Uiso   1.00
C860   C     0.91308   0.83332   0.25061   0.00000  Uiso   1.00
C861   C     0.83211   0.83358   0.11619   0.00000  Uiso   1.00
C862   C     0.79520   0.83325   0.40375   0.00000  Uiso   1.00
C863   C     0.87110   0.83514   0.09597   0.00000  Uiso   1.00
C864   C     0.79488   0.83139   0.45056   0.00000  Uiso   1.00
C865   C     0.87145   0.83172   0.04934   0.00000  Uiso   1.00
C866   C     0.83339   0.83035   0.47643   0.00000  Uiso   1.00
C867   C     0.83294   0.83076   0.02355   0.00000  Uiso   1.00
C868   C     0.87234   0.82813   0.45550   0.00000  Uiso   1.00
C869   C     0.79403   0.82949   0.04458   0.00000  Uiso   1.00
C870   C     0.75688   0.82972   0.47225   0.00000  Uiso   1.00
C871   C     0.75657   0.82734   0.01805   0.00000  Uiso   1.00
C872   C     0.90948   0.82860   0.02781   0.00000  Uiso   1.00
C873   C     0.91414   0.81861   0.38556   0.00000  Uiso   1.00
C874   C     0.94251   0.85902   0.38472   0.00000  Uiso   1.00
C875   C     0.75204   0.82393   0.11497   0.00000  Uiso   1.00
C876   C     0.72431   0.86568   0.11272   0.00000  Uiso   1.00
C877   C     0.75411   0.83560   0.37486   0.00000  Uiso   1.00
C878   C     0.73552   0.88239   0.37275   0.00000  Uiso   1.00
C879   C     0.91203   0.84003   0.12446   0.00000  Uiso   1.00
C880   C     0.93247   0.79509   0.13608   0.00000  Uiso   1.00
C881   C     0.89716   0.71162   0.30268   0.00000  Uiso   1.00
C882   C     0.90988   0.82608   0.48206   0.00000  Uiso   1.00
C883   C     0.93815   0.70314   0.27899   0.00000  Uiso   1.00
C884   C     0.78521   0.95384   0.18158   0.00000  Uiso   1.00
C885   C     0.81016   0.95625   0.13923   0.00000  Uiso   1.00
C886   C     0.77045   0.71532   0.19573   0.00000  Uiso   1.00
C887   C     0.72876   0.71208   0.21884   0.00000  Uiso   1.00
C888   C     0.88197   0.95122   0.31842   0.00000  Uiso   1.00
C889   C     0.85824   0.95368   0.36153   0.00000  Uiso   1.00
C890   C     0.69000   0.80421   0.27855   0.00000  Uiso   1.00
C891   C     0.97687   0.86585   0.22568   0.00000  Uiso   1.00
C892   C     0.98033   0.80494   0.27948   0.00000  Uiso   1.00
C893   C     0.68660   0.86621   0.22583   0.00000  Uiso   1.00
C894   C     0.95738   0.83414   0.25142   0.00000  Uiso   1.00
H895   H     0.72652   0.82979   0.45459   0.00000  Uiso   1.00
H896   H     0.94039   0.87943   0.41507   0.00000  Uiso   1.00
H897   H     0.97566   0.84795   0.38197   0.00000  Uiso   1.00
H898   H     0.93128   0.79028   0.40223   0.00000  Uiso   1.00
H899   H     0.90884   0.80761   0.35075   0.00000  Uiso   1.00
H900   H     0.73737   0.89049   0.13599   0.00000  Uiso   1.00
H901   H     0.72184   0.88098   0.07898   0.00000  Uiso   1.00
H902   H     0.69222   0.85746   0.12282   0.00000  Uiso   1.00
H903   H     0.73453   0.79562   0.10033   0.00000  Uiso   1.00
H904   H     0.75699   0.81477   0.15066   0.00000  Uiso   1.00
H905   H     0.72814   0.89404   0.40646   0.00000  Uiso   1.00
H906   H     0.93976   0.82718   0.04566   0.00000  Uiso   1.00
H907   H     0.75803   0.90541   0.35807   0.00000  Uiso   1.00
H908   H     0.70612   0.88289   0.35120   0.00000  Uiso   1.00
H909   H     0.75863   0.82513   0.34034   0.00000  Uiso   1.00
H910   H     0.73087   0.81160   0.38641   0.00000  Uiso   1.00
H911   H     0.91191   0.77553   0.15739   0.00000  Uiso   1.00
H912   H     0.93820   0.77606   0.10550   0.00000  Uiso   1.00
H913   H     0.96307   0.79990   0.15465   0.00000  Uiso   1.00
H914   H     0.93445   0.86170   0.10778   0.00000  Uiso   1.00
H915   H     0.90668   0.85768   0.15582   0.00000  Uiso   1.00
H916   H     0.93942   0.72453   0.24885   0.00000  Uiso   1.00
H917   H     0.72606   0.82443   0.03187   0.00000  Uiso   1.00
H918   H     0.96565   0.70957   0.30207   0.00000  Uiso   1.00
H919   H     0.94106   0.66841   0.26789   0.00000  Uiso   1.00
H920   H     0.89159   0.74684   0.30687   0.00000  Uiso   1.00
H921   H     0.90072   0.69989   0.33772   0.00000  Uiso   1.00
H922   H     0.81109   0.99064   0.12624   0.00000  Uiso   1.00
H923   H     0.84310   0.94462   0.14603   0.00000  Uiso   1.00
H924   H     0.79526   0.93533   0.11288   0.00000  Uiso   1.00
H925   H     0.77919   0.91969   0.19059   0.00000  Uiso   1.00
H926   H     0.75306   0.96707   0.17435   0.00000  Uiso   1.00
H927   H     0.73306   0.72118   0.25448   0.00000  Uiso   1.00
H928   H     0.94043   0.82315   0.46822   0.00000  Uiso   1.00
H929   H     0.70508   0.73483   0.20217   0.00000  Uiso   1.00
H930   H     0.71628   0.67808   0.21748   0.00000  Uiso   1.00
H931   H     0.77763   0.74988   0.19066   0.00000  Uiso   1.00
H932   H     0.76648   0.70348   0.16104   0.00000  Uiso   1.00
H933   H     0.85825   0.98773   0.37483   0.00000  Uiso   1.00
H934   H     0.82503   0.94378   0.35559   0.00000  Uiso   1.00
H935   H     0.87350   0.93129   0.38722   0.00000  Uiso   1.00
H936   H     0.88786   0.91709   0.30969   0.00000  Uiso   1.00
H937   H     0.91433   0.96322   0.32487   0.00000  Uiso   1.00
H938   H     0.70800   0.78091   0.29972   0.00000  Uiso   1.00
H939   H     0.95889   0.88983   0.20528   0.00000  Uiso   1.00
H940   H     0.96501   0.78378   0.30258   0.00000  Uiso   1.00
H941   H     0.70197   0.89048   0.20573   0.00000  Uiso   1.00
H942   H     0.93386   0.87996   0.35522   0.00000  Uiso   1.00
N943   N     0.83333   0.95240   0.25000   0.00000  Uiso   1.00
N944   N     0.83333   0.71427   0.25000   0.00000  Uiso   1.00
O945   O     0.77226   0.87154   0.24999   0.00000  Uiso   1.00
O946   O     0.89441   0.79513   0.25000   0.00000  Uiso   1.00
O947   O     0.89441   0.87154   0.25000   0.00000  Uiso   1.00
O948   O     0.77226   0.79513   0.24999   0.00000  Uiso   1.00
O949   O     0.83333   0.87156   0.18392   0.00000  Uiso   1.00
O950   O     0.83334   0.79511   0.31607   0.00000  Uiso   1.00
O951   O     0.83334   0.87156   0.31607   0.00000  Uiso   1.00
O952   O     0.83333   0.79511   0.18392   0.00000  Uiso   1.00
Zn953  Zn    0.83333   0.88437   0.25000   0.00000  Uiso   1.00
Zn954  Zn    0.83333   0.78229   0.25000   0.00000  Uiso   1.00
C955   C     0.08694   0.16696   0.74986   0.00000  Uiso   1.00
C956   C     0.04276   0.16777   0.75115   0.00000  Uiso   1.00
C957   C     0.19422   0.02299   0.77762   0.00000  Uiso   1.00
C958   C     0.14158   0.31023   0.71979   0.00000  Uiso   1.00
C959   C     0.13893   0.02442   0.72237   0.00000  Uiso   1.00
C960   C     0.19147   0.30890   0.78043   0.00000  Uiso   1.00
C961   C     0.16563   0.16684   0.66392   0.00000  Uiso   1.00
C962   C     0.16800   0.16638   0.83607   0.00000  Uiso   1.00
C963   C     0.20628   0.16059   0.90868   0.00000  Uiso   1.00
C964   C     0.12677   0.16299   0.59148   0.00000  Uiso   1.00
C965   C     0.16769   0.16515   0.88375   0.00000  Uiso   1.00
C966   C     0.24641   0.16665   0.75061   0.00000  Uiso   1.00
C967   C     0.16544   0.16691   0.61619   0.00000  Uiso   1.00
C968   C     0.12853   0.16659   0.90375   0.00000  Uiso   1.00
C969   C     0.20444   0.16847   0.59597   0.00000  Uiso   1.00
C970   C     0.12821   0.16472   0.95056   0.00000  Uiso   1.00
C971   C     0.20478   0.16505   0.54934   0.00000  Uiso   1.00
C972   C     0.16673   0.16368   0.97643   0.00000  Uiso   1.00
C973   C     0.16628   0.16409   0.52355   0.00000  Uiso   1.00
C974   C     0.20567   0.16146   0.95550   0.00000  Uiso   1.00
C975   C     0.12737   0.16282   0.54458   0.00000  Uiso   1.00
C976   C     0.09022   0.16306   0.97225   0.00000  Uiso   1.00
C977   C     0.08990   0.16068   0.51805   0.00000  Uiso   1.00
C978   C     0.24282   0.16193   0.52781   0.00000  Uiso   1.00
C979   C     0.24748   0.15194   0.88556   0.00000  Uiso   1.00
C980   C     0.27584   0.19236   0.88472   0.00000  Uiso   1.00
C981   C     0.08538   0.15726   0.61497   0.00000  Uiso   1.00
C982   C     0.05765   0.19901   0.61272   0.00000  Uiso   1.00
C983   C     0.08745   0.16893   0.87486   0.00000  Uiso   1.00
C984   C     0.06885   0.21572   0.87275   0.00000  Uiso   1.00
C985   C     0.24537   0.17337   0.62446   0.00000  Uiso   1.00
C986   C     0.26580   0.12843   0.63608   0.00000  Uiso   1.00
C987   C     0.23049   0.04495   0.80268   0.00000  Uiso   1.00
C988   C     0.24321   0.15941   0.98206   0.00000  Uiso   1.00
C989   C     0.27148   0.03648   0.77899   0.00000  Uiso   1.00
C990   C     0.11854   0.28718   0.68158   0.00000  Uiso   1.00
C991   C     0.14350   0.28958   0.63923   0.00000  Uiso   1.00
C992   C     0.10379   0.04865   0.69573   0.00000  Uiso   1.00
C993   C     0.06210   0.04541   0.71884   0.00000  Uiso   1.00
C994   C     0.21531   0.28455   0.81842   0.00000  Uiso   1.00
C995   C     0.19157   0.28701   0.86153   0.00000  Uiso   1.00
C996   C     0.02333   0.13755   0.77855   0.00000  Uiso   1.00
C997   C     0.31020   0.19919   0.72568   0.00000  Uiso   1.00
C998   C     0.31366   0.13828   0.77948   0.00000  Uiso   1.00
C999   C     0.01993   0.19954   0.72583   0.00000  Uiso   1.00
C1000  C     0.29072   0.16747   0.75142   0.00000  Uiso   1.00
H1001  H     0.05985   0.16313   0.95459   0.00000  Uiso   1.00
H1002  H     0.27372   0.21276   0.91507   0.00000  Uiso   1.00
H1003  H     0.30899   0.18129   0.88197   0.00000  Uiso   1.00
H1004  H     0.26462   0.12361   0.90223   0.00000  Uiso   1.00
H1005  H     0.24217   0.14094   0.85075   0.00000  Uiso   1.00
H1006  H     0.07070   0.22383   0.63599   0.00000  Uiso   1.00
H1007  H     0.05517   0.21432   0.57898   0.00000  Uiso   1.00
H1008  H     0.02555   0.19079   0.62282   0.00000  Uiso   1.00
H1009  H     0.06786   0.12895   0.60033   0.00000  Uiso   1.00
H1010  H     0.09033   0.14810   0.65066   0.00000  Uiso   1.00
H1011  H     0.06147   0.22737   0.90646   0.00000  Uiso   1.00
H1012  H     0.27310   0.16051   0.54566   0.00000  Uiso   1.00
H1013  H     0.09137   0.23875   0.85807   0.00000  Uiso   1.00
H1014  H     0.03946   0.21622   0.85120   0.00000  Uiso   1.00
H1015  H     0.09196   0.15847   0.84034   0.00000  Uiso   1.00
H1016  H     0.06420   0.14493   0.88641   0.00000  Uiso   1.00
H1017  H     0.24524   0.10886   0.65739   0.00000  Uiso   1.00
H1018  H     0.27153   0.10939   0.60550   0.00000  Uiso   1.00
H1019  H     0.29641   0.13323   0.65465   0.00000  Uiso   1.00
H1020  H     0.26778   0.19504   0.60778   0.00000  Uiso   1.00
H1021  H     0.24001   0.19101   0.65582   0.00000  Uiso   1.00
H1022  H     0.27275   0.05787   0.74885   0.00000  Uiso   1.00
H1023  H     0.05940   0.15777   0.53187   0.00000  Uiso   1.00
H1024  H     0.29898   0.04290   0.80207   0.00000  Uiso   1.00
H1025  H     0.27439   0.00175   0.76789   0.00000  Uiso   1.00
H1026  H     0.22492   0.08017   0.80687   0.00000  Uiso   1.00
H1027  H     0.23405   0.03322   0.83772   0.00000  Uiso   1.00
H1028  H     0.14442   0.32398   0.62624   0.00000  Uiso   1.00
H1029  H     0.17644   0.27795   0.64603   0.00000  Uiso   1.00
H1030  H     0.12859   0.26866   0.61288   0.00000  Uiso   1.00
H1031  H     0.11252   0.25302   0.69059   0.00000  Uiso   1.00
H1032  H     0.08639   0.30041   0.67435   0.00000  Uiso   1.00
H1033  H     0.06639   0.05452   0.75448   0.00000  Uiso   1.00
H1034  H     0.27377   0.15648   0.96822   0.00000  Uiso   1.00
H1035  H     0.03842   0.06816   0.70217   0.00000  Uiso   1.00
H1036  H     0.04961   0.01141   0.71748   0.00000  Uiso   1.00
H1037  H     0.11096   0.08321   0.69066   0.00000  Uiso   1.00
H1038  H     0.09981   0.03681   0.66104   0.00000  Uiso   1.00
H1039  H     0.19158   0.32106   0.87483   0.00000  Uiso   1.00
H1040  H     0.15837   0.27711   0.85559   0.00000  Uiso   1.00
H1041  H     0.20684   0.26463   0.88722   0.00000  Uiso   1.00
H1042  H     0.22119   0.25042   0.80969   0.00000  Uiso   1.00
H1043  H     0.24767   0.29655   0.82487   0.00000  Uiso   1.00
H1044  H     0.04133   0.11424   0.79972   0.00000  Uiso   1.00
H1045  H     0.29222   0.22317   0.70528   0.00000  Uiso   1.00
H1046  H     0.29834   0.11711   0.80258   0.00000  Uiso   1.00
H1047  H     0.03530   0.22381   0.70573   0.00000  Uiso   1.00
H1048  H     0.26720   0.21329   0.85522   0.00000  Uiso   1.00
N1049  N     0.16667   0.28573   0.75000   0.00000  Uiso   1.00
N1050  N     0.16667   0.04760   0.75000   0.00000  Uiso   1.00
O1051  O     0.10559   0.20487   0.74999   0.00000  Uiso   1.00
O1052  O     0.22774   0.12846   0.75000   0.00000  Uiso   1.00
O1053  O     0.22774   0.20487   0.75000   0.00000  Uiso   1.00
O1054  O     0.10559   0.12846   0.74999   0.00000  Uiso   1.00
O1055  O     0.16666   0.20489   0.68392   0.00000  Uiso   1.00
O1056  O     0.16667   0.12844   0.81607   0.00000  Uiso   1.00
O1057  O     0.16667   0.20489   0.81607   0.00000  Uiso   1.00
O1058  O     0.16666   0.12844   0.68392   0.00000  Uiso   1.00
Zn1059 Zn    0.16667   0.21771   0.75000   0.00000  Uiso   1.00
Zn1060 Zn    0.16667   0.11563   0.75000   0.00000  Uiso   1.00
C1061  C     0.42027   0.16696   0.74986   0.00000  Uiso   1.00
C1062  C     0.37610   0.16777   0.75115   0.00000  Uiso   1.00
C1063  C     0.52755   0.02299   0.77762   0.00000  Uiso   1.00
C1064  C     0.47492   0.31023   0.71979   0.00000  Uiso   1.00
C1065  C     0.47226   0.02442   0.72237   0.00000  Uiso   1.00
C1066  C     0.52481   0.30890   0.78043   0.00000  Uiso   1.00
C1067  C     0.49896   0.16684   0.66392   0.00000  Uiso   1.00
C1068  C     0.50133   0.16638   0.83607   0.00000  Uiso   1.00
C1069  C     0.53961   0.16059   0.90868   0.00000  Uiso   1.00
C1070  C     0.46010   0.16299   0.59148   0.00000  Uiso   1.00
C1071  C     0.50102   0.16515   0.88375   0.00000  Uiso   1.00
C1072  C     0.57975   0.16665   0.75061   0.00000  Uiso   1.00
C1073  C     0.49877   0.16691   0.61619   0.00000  Uiso   1.00
C1074  C     0.46186   0.16659   0.90375   0.00000  Uiso   1.00
C1075  C     0.53777   0.16847   0.59597   0.00000  Uiso   1.00
C1076  C     0.46154   0.16472   0.95056   0.00000  Uiso   1.00
C1077  C     0.53812   0.16505   0.54934   0.00000  Uiso   1.00
C1078  C     0.50006   0.16368   0.97643   0.00000  Uiso   1.00
C1079  C     0.49961   0.16409   0.52355   0.00000  Uiso   1.00
C1080  C     0.53901   0.16146   0.95550   0.00000  Uiso   1.00
C1081  C     0.46070   0.16282   0.54458   0.00000  Uiso   1.00
C1082  C     0.42355   0.16306   0.97225   0.00000  Uiso   1.00
C1083  C     0.42323   0.16068   0.51805   0.00000  Uiso   1.00
C1084  C     0.57615   0.16193   0.52781   0.00000  Uiso   1.00
C1085  C     0.58081   0.15194   0.88556   0.00000  Uiso   1.00
C1086  C     0.60918   0.19236   0.88472   0.00000  Uiso   1.00
C1087  C     0.41871   0.15726   0.61497   0.00000  Uiso   1.00
C1088  C     0.39098   0.19901   0.61272   0.00000  Uiso   1.00
C1089  C     0.42078   0.16893   0.87486   0.00000  Uiso   1.00
C1090  C     0.40219   0.21572   0.87275   0.00000  Uiso   1.00
C1091  C     0.57870   0.17337   0.62446   0.00000  Uiso   1.00
C1092  C     0.59913   0.12843   0.63608   0.00000  Uiso   1.00
C1093  C     0.56382   0.04495   0.80268   0.00000  Uiso   1.00
C1094  C     0.57654   0.15941   0.98206   0.00000  Uiso   1.00
C1095  C     0.60482   0.03648   0.77899   0.00000  Uiso   1.00
C1096  C     0.45188   0.28718   0.68158   0.00000  Uiso   1.00
C1097  C     0.47683   0.28958   0.63923   0.00000  Uiso   1.00
C1098  C     0.43712   0.04865   0.69573   0.00000  Uiso   1.00
C1099  C     0.39543   0.04541   0.71884   0.00000  Uiso   1.00
C1100  C     0.54864   0.28455   0.81842   0.00000  Uiso   1.00
C1101  C     0.52491   0.28701   0.86153   0.00000  Uiso   1.00
C1102  C     0.35667   0.13755   0.77855   0.00000  Uiso   1.00
C1103  C     0.64354   0.19919   0.72568   0.00000  Uiso   1.00
C1104  C     0.64699   0.13828   0.77948   0.00000  Uiso   1.00
C1105  C     0.35327   0.19954   0.72583   0.00000  Uiso   1.00
C1106  C     0.62405   0.16747   0.75142   0.00000  Uiso   1.00
H1107  H     0.39319   0.16313   0.95459   0.00000  Uiso   1.00
H1108  H     0.60706   0.21276   0.91507   0.00000  Uiso   1.00
H1109  H     0.64232   0.18129   0.88197   0.00000  Uiso   1.00
H1110  H     0.59795   0.12361   0.90223   0.00000  Uiso   1.00
H1111  H     0.57551   0.14094   0.85075   0.00000  Uiso   1.00
H1112  H     0.40403   0.22383   0.63599   0.00000  Uiso   1.00
H1113  H     0.38850   0.21432   0.57898   0.00000  Uiso   1.00
H1114  H     0.35889   0.19079   0.62282   0.00000  Uiso   1.00
H1115  H     0.40120   0.12895   0.60033   0.00000  Uiso   1.00
H1116  H     0.42366   0.14810   0.65066   0.00000  Uiso   1.00
H1117  H     0.39480   0.22737   0.90646   0.00000  Uiso   1.00
H1118  H     0.60643   0.16051   0.54566   0.00000  Uiso   1.00
H1119  H     0.42470   0.23875   0.85807   0.00000  Uiso   1.00
H1120  H     0.37279   0.21622   0.85120   0.00000  Uiso   1.00
H1121  H     0.42529   0.15847   0.84034   0.00000  Uiso   1.00
H1122  H     0.39753   0.14493   0.88641   0.00000  Uiso   1.00
H1123  H     0.57857   0.10886   0.65739   0.00000  Uiso   1.00
H1124  H     0.60487   0.10939   0.60550   0.00000  Uiso   1.00
H1125  H     0.62974   0.13323   0.65465   0.00000  Uiso   1.00
H1126  H     0.60111   0.19504   0.60778   0.00000  Uiso   1.00
H1127  H     0.57334   0.19101   0.65582   0.00000  Uiso   1.00
H1128  H     0.60609   0.05787   0.74885   0.00000  Uiso   1.00
H1129  H     0.39273   0.15777   0.53187   0.00000  Uiso   1.00
H1130  H     0.63232   0.04290   0.80207   0.00000  Uiso   1.00
H1131  H     0.60772   0.00175   0.76789   0.00000  Uiso   1.00
H1132  H     0.55825   0.08017   0.80687   0.00000  Uiso   1.00
H1133  H     0.56739   0.03322   0.83772   0.00000  Uiso   1.00
H1134  H     0.47776   0.32398   0.62624   0.00000  Uiso   1.00
H1135  H     0.50977   0.27795   0.64603   0.00000  Uiso   1.00
H1136  H     0.46193   0.26866   0.61288   0.00000  Uiso   1.00
H1137  H     0.44586   0.25302   0.69059   0.00000  Uiso   1.00
H1138  H     0.41973   0.30041   0.67435   0.00000  Uiso   1.00
H1139  H     0.39972   0.05452   0.75448   0.00000  Uiso   1.00
H1140  H     0.60710   0.15648   0.96822   0.00000  Uiso   1.00
H1141  H     0.37175   0.06816   0.70217   0.00000  Uiso   1.00
H1142  H     0.38294   0.01141   0.71748   0.00000  Uiso   1.00
H1143  H     0.44430   0.08321   0.69066   0.00000  Uiso   1.00
H1144  H     0.43315   0.03681   0.66104   0.00000  Uiso   1.00
H1145  H     0.52492   0.32106   0.87483   0.00000  Uiso   1.00
H1146  H     0.49170   0.27711   0.85559   0.00000  Uiso   1.00
H1147  H     0.54017   0.26463   0.88722   0.00000  Uiso   1.00
H1148  H     0.55453   0.25042   0.80969   0.00000  Uiso   1.00
H1149  H     0.58100   0.29655   0.82487   0.00000  Uiso   1.00
H1150  H     0.37467   0.11424   0.79972   0.00000  Uiso   1.00
H1151  H     0.62556   0.22317   0.70528   0.00000  Uiso   1.00
H1152  H     0.63167   0.11711   0.80258   0.00000  Uiso   1.00
H1153  H     0.36864   0.22381   0.70573   0.00000  Uiso   1.00
H1154  H     0.60053   0.21329   0.85522   0.00000  Uiso   1.00
N1155  N     0.50000   0.28573   0.75000   0.00000  Uiso   1.00
N1156  N     0.50000   0.04760   0.75000   0.00000  Uiso   1.00
O1157  O     0.43892   0.20487   0.74999   0.00000  Uiso   1.00
O1158  O     0.56108   0.12846   0.75000   0.00000  Uiso   1.00
O1159  O     0.56108   0.20487   0.75000   0.00000  Uiso   1.00
O1160  O     0.43892   0.12846   0.74999   0.00000  Uiso   1.00
O1161  O     0.49999   0.20489   0.68392   0.00000  Uiso   1.00
O1162  O     0.50001   0.12844   0.81607   0.00000  Uiso   1.00
O1163  O     0.50001   0.20489   0.81607   0.00000  Uiso   1.00
O1164  O     0.49999   0.12844   0.68392   0.00000  Uiso   1.00
Zn1165 Zn    0.50000   0.21771   0.75000   0.00000  Uiso   1.00
Zn1166 Zn    0.50000   0.11563   0.75000   0.00000  Uiso   1.00
C1167  C     0.75361   0.16696   0.74986   0.00000  Uiso   1.00
C1168  C     0.70943   0.16777   0.75115   0.00000  Uiso   1.00
C1169  C     0.86089   0.02299   0.77762   0.00000  Uiso   1.00
C1170  C     0.80825   0.31023   0.71979   0.00000  Uiso   1.00
C1171  C     0.80560   0.02442   0.72237   0.00000  Uiso   1.00
C1172  C     0.85814   0.30890   0.78043   0.00000  Uiso   1.00
C1173  C     0.83229   0.16684   0.66392   0.00000  Uiso   1.00
C1174  C     0.83466   0.16638   0.83607   0.00000  Uiso   1.00
C1175  C     0.87294   0.16059   0.90868   0.00000  Uiso   1.00
C1176  C     0.79343   0.16299   0.59148   0.00000  Uiso   1.00
C1177  C     0.83436   0.16515   0.88375   0.00000  Uiso   1.00
C1178  C     0.91308   0.16665   0.75061   0.00000  Uiso   1.00
C1179  C     0.83211   0.16691   0.61619   0.00000  Uiso   1.00
C1180  C     0.79520   0.16659   0.90375   0.00000  Uiso   1.00
C1181  C     0.87110   0.16847   0.59597   0.00000  Uiso   1.00
C1182  C     0.79488   0.16472   0.95056   0.00000  Uiso   1.00
C1183  C     0.87145   0.16505   0.54934   0.00000  Uiso   1.00
C1184  C     0.83339   0.16368   0.97643   0.00000  Uiso   1.00
C1185  C     0.83294   0.16409   0.52355   0.00000  Uiso   1.00
C1186  C     0.87234   0.16146   0.95550   0.00000  Uiso   1.00
C1187  C     0.79403   0.16282   0.54458   0.00000  Uiso   1.00
C1188  C     0.75688   0.16306   0.97225   0.00000  Uiso   1.00
C1189  C     0.75657   0.16068   0.51805   0.00000  Uiso   1.00
C1190  C     0.90948   0.16193   0.52781   0.00000  Uiso   1.00
C1191  C     0.91414   0.15194   0.88556   0.00000  Uiso   1.00
C1192  C     0.94251   0.19236   0.88472   0.00000  Uiso   1.00
C1193  C     0.75204   0.15726   0.61497   0.00000  Uiso   1.00
C1194  C     0.72431   0.19901   0.61272   0.00000  Uiso   1.00
C1195  C     0.75411   0.16893   0.87486   0.00000  Uiso   1.00
C1196  C     0.73552   0.21572   0.87275   0.00000  Uiso   1.00
C1197  C     0.91203   0.17337   0.62446   0.00000  Uiso   1.00
C1198  C     0.93247   0.12843   0.63608   0.00000  Uiso   1.00
C1199  C     0.89716   0.04495   0.80268   0.00000  Uiso   1.00
C1200  C     0.90988   0.15941   0.98206   0.00000  Uiso   1.00
C1201  C     0.93815   0.03648   0.77899   0.00000  Uiso   1.00
C1202  C     0.78521   0.28718   0.68158   0.00000  Uiso   1.00
C1203  C     0.81016   0.28958   0.63923   0.00000  Uiso   1.00
C1204  C     0.77045   0.04865   0.69573   0.00000  Uiso   1.00
C1205  C     0.72876   0.04541   0.71884   0.00000  Uiso   1.00
C1206  C     0.88197   0.28455   0.81842   0.00000  Uiso   1.00
C1207  C     0.85824   0.28701   0.86153   0.00000  Uiso   1.00
C1208  C     0.69000   0.13755   0.77855   0.00000  Uiso   1.00
C1209  C     0.97687   0.19919   0.72568   0.00000  Uiso   1.00
C1210  C     0.98033   0.13828   0.77948   0.00000  Uiso   1.00
C1211  C     0.68660   0.19954   0.72583   0.00000  Uiso   1.00
C1212  C     0.95738   0.16747   0.75142   0.00000  Uiso   1.00
H1213  H     0.72652   0.16313   0.95459   0.00000  Uiso   1.00
H1214  H     0.94039   0.21276   0.91507   0.00000  Uiso   1.00
H1215  H     0.97566   0.18129   0.88197   0.00000  Uiso   1.00
H1216  H     0.93128   0.12361   0.90223   0.00000  Uiso   1.00
H1217  H     0.90884   0.14094   0.85075   0.00000  Uiso   1.00
H1218  H     0.73737   0.22383   0.63599   0.00000  Uiso   1.00
H1219  H     0.72184   0.21432   0.57898   0.00000  Uiso   1.00
H1220  H     0.69222   0.19079   0.62282   0.00000  Uiso   1.00
H1221  H     0.73453   0.12895   0.60033   0.00000  Uiso   1.00
H1222  H     0.75699   0.14810   0.65066   0.00000  Uiso   1.00
H1223  H     0.72814   0.22737   0.90646   0.00000  Uiso   1.00
H1224  H     0.93976   0.16051   0.54566   0.00000  Uiso   1.00
H1225  H     0.75803   0.23875   0.85807   0.00000  Uiso   1.00
H1226  H     0.70612   0.21622   0.85120   0.00000  Uiso   1.00
H1227  H     0.75863   0.15847   0.84034   0.00000  Uiso   1.00
H1228  H     0.73087   0.14493   0.88641   0.00000  Uiso   1.00
H1229  H     0.91191   0.10886   0.65739   0.00000  Uiso   1.00
H1230  H     0.93820   0.10939   0.60550   0.00000  Uiso   1.00
H1231  H     0.96307   0.13323   0.65465   0.00000  Uiso   1.00
H1232  H     0.93445   0.19504   0.60778   0.00000  Uiso   1.00
H1233  H     0.90668   0.19101   0.65582   0.00000  Uiso   1.00
H1234  H     0.93942   0.05787   0.74885   0.00000  Uiso   1.00
H1235  H     0.72606   0.15777   0.53187   0.00000  Uiso   1.00
H1236  H     0.96565   0.04290   0.80207   0.00000  Uiso   1.00
H1237  H     0.94106   0.00175   0.76789   0.00000  Uiso   1.00
H1238  H     0.89159   0.08017   0.80687   0.00000  Uiso   1.00
H1239  H     0.90072   0.03322   0.83772   0.00000  Uiso   1.00
H1240  H     0.81109   0.32398   0.62624   0.00000  Uiso   1.00
H1241  H     0.84310   0.27795   0.64603   0.00000  Uiso   1.00
H1242  H     0.79526   0.26866   0.61288   0.00000  Uiso   1.00
H1243  H     0.77919   0.25302   0.69059   0.00000  Uiso   1.00
H1244  H     0.75306   0.30041   0.67435   0.00000  Uiso   1.00
H1245  H     0.73306   0.05452   0.75448   0.00000  Uiso   1.00
H1246  H     0.94043   0.15648   0.96822   0.00000  Uiso   1.00
H1247  H     0.70508   0.06816   0.70217   0.00000  Uiso   1.00
H1248  H     0.71628   0.01141   0.71748   0.00000  Uiso   1.00
H1249  H     0.77763   0.08321   0.69066   0.00000  Uiso   1.00
H1250  H     0.76648   0.03681   0.66104   0.00000  Uiso   1.00
H1251  H     0.85825   0.32106   0.87483   0.00000  Uiso   1.00
H1252  H     0.82503   0.27711   0.85559   0.00000  Uiso   1.00
H1253  H     0.87350   0.26463   0.88722   0.00000  Uiso   1.00
H1254  H     0.88786   0.25042   0.80969   0.00000  Uiso   1.00
H1255  H     0.91433   0.29655   0.82487   0.00000  Uiso   1.00
H1256  H     0.70800   0.11424   0.79972   0.00000  Uiso   1.00
H1257  H     0.95889   0.22317   0.70528   0.00000  Uiso   1.00
H1258  H     0.96501   0.11711   0.80258   0.00000  Uiso   1.00
H1259  H     0.70197   0.22381   0.70573   0.00000  Uiso   1.00
H1260  H     0.93386   0.21329   0.85522   0.00000  Uiso   1.00
N1261  N     0.83333   0.28573   0.75000   0.00000  Uiso   1.00
N1262  N     0.83333   0.04760   0.75000   0.00000  Uiso   1.00
O1263  O     0.77226   0.20487   0.74999   0.00000  Uiso   1.00
O1264  O     0.89441   0.12846   0.75000   0.00000  Uiso   1.00
O1265  O     0.89441   0.20487   0.75000   0.00000  Uiso   1.00
O1266  O     0.77226   0.12846   0.74999   0.00000  Uiso   1.00
O1267  O     0.83333   0.20489   0.68392   0.00000  Uiso   1.00
O1268  O     0.83334   0.12844   0.81607   0.00000  Uiso   1.00
O1269  O     0.83334   0.20489   0.81607   0.00000  Uiso   1.00
O1270  O     0.83333   0.12844   0.68392   0.00000  Uiso   1.00
Zn1271 Zn    0.83333   0.21771   0.75000   0.00000  Uiso   1.00
Zn1272 Zn    0.83333   0.11563   0.75000   0.00000  Uiso   1.00
C1273  C     0.08694   0.50029   0.74986   0.00000  Uiso   1.00
C1274  C     0.04276   0.50110   0.75115   0.00000  Uiso   1.00
C1275  C     0.19422   0.35632   0.77762   0.00000  Uiso   1.00
C1276  C     0.14158   0.64356   0.71979   0.00000  Uiso   1.00
C1277  C     0.13893   0.35775   0.72237   0.00000  Uiso   1.00
C1278  C     0.19147   0.64224   0.78043   0.00000  Uiso   1.00
C1279  C     0.16563   0.50017   0.66392   0.00000  Uiso   1.00
C1280  C     0.16800   0.49971   0.83607   0.00000  Uiso   1.00
C1281  C     0.20628   0.49393   0.90868   0.00000  Uiso   1.00
C1282  C     0.12677   0.49633   0.59148   0.00000  Uiso   1.00
C1283  C     0.16769   0.49848   0.88375   0.00000  Uiso   1.00
C1284  C     0.24641   0.49998   0.75061   0.00000  Uiso   1.00
C1285  C     0.16544   0.50024   0.61619   0.00000  Uiso   1.00
C1286  C     0.12853   0.49992   0.90375   0.00000  Uiso   1.00
C1287  C     0.20444   0.50180   0.59597   0.00000  Uiso   1.00
C1288  C     0.12821   0.49806   0.95056   0.00000  Uiso   1.00
C1289  C     0.20478   0.49839   0.54934   0.00000  Uiso   1.00
C1290  C     0.16673   0.49702   0.97643   0.00000  Uiso   1.00
C1291  C     0.16628   0.49743   0.52355   0.00000  Uiso   1.00
C1292  C     0.20567   0.49480   0.95550   0.00000  Uiso   1.00
C1293  C     0.12737   0.49616   0.54458   0.00000  Uiso   1.00
C1294  C     0.09022   0.49639   0.97225   0.00000  Uiso   1.00
C1295  C     0.08990   0.49401   0.51805   0.00000  Uiso   1.00
C1296  C     0.24282   0.49527   0.52781   0.00000  Uiso   1.00
C1297  C     0.24748   0.48527   0.88556   0.00000  Uiso   1.00
C1298  C     0.27584   0.52569   0.88472   0.00000  Uiso   1.00
C1299  C     0.08538   0.49060   0.61497   0.00000  Uiso   1.00
C1300  C     0.05765   0.53235   0.61272   0.00000  Uiso   1.00
C1301  C     0.08745   0.50226   0.87486   0.00000  Uiso   1.00
C1302  C     0.06885   0.54905   0.87275   0.00000  Uiso   1.00
C1303  C     0.24537   0.50670   0.62446   0.00000  Uiso   1.00
C1304  C     0.26580   0.46176   0.63608   0.00000  Uiso   1.00
C1305  C     0.23049   0.37828   0.80268   0.00000  Uiso   1.00
C1306  C     0.24321   0.49274   0.98206   0.00000  Uiso   1.00
C1307  C     0.27148   0.36981   0.77899   0.00000  Uiso   1.00
C1308  C     0.11854   0.62051   0.68158   0.00000  Uiso   1.00
C1309  C     0.14350   0.62292   0.63923   0.00000  Uiso   1.00
C1310  C     0.10379   0.38198   0.69573   0.00000  Uiso   1.00
C1311  C     0.06210   0.37874   0.71884   0.00000  Uiso   1.00
C1312  C     0.21531   0.61788   0.81842   0.00000  Uiso   1.00
C1313  C     0.19157   0.62034   0.86153   0.00000  Uiso   1.00
C1314  C     0.02333   0.47088   0.77855   0.00000  Uiso   1.00
C1315  C     0.31020   0.53252   0.72568   0.00000  Uiso   1.00
C1316  C     0.31366   0.47161   0.77948   0.00000  Uiso   1.00
C1317  C     0.01993   0.53287   0.72583   0.00000  Uiso   1.00
C1318  C     0.29072   0.50080   0.75142   0.00000  Uiso   1.00
H1319  H     0.05985   0.49646   0.95459   0.00000  Uiso   1.00
H1320  H     0.27372   0.54609   0.91507   0.00000  Uiso   1.00
H1321  H     0.30899   0.51462   0.88197   0.00000  Uiso   1.00
H1322  H     0.26462   0.45695   0.90223   0.00000  Uiso   1.00
H1323  H     0.24217   0.47427   0.85075   0.00000  Uiso   1.00
H1324  H     0.07070   0.55716   0.63599   0.00000  Uiso   1.00
H1325  H     0.05517   0.54765   0.57898   0.00000  Uiso   1.00
H1326  H     0.02555   0.52413   0.62282   0.00000  Uiso   1.00
H1327  H     0.06786   0.46229   0.60033   0.00000  Uiso   1.00
H1328  H     0.09033   0.48144   0.65066   0.00000  Uiso   1.00
H1329  H     0.06147   0.56071   0.90646   0.00000  Uiso   1.00
H1330  H     0.27310   0.49384   0.54566   0.00000  Uiso   1.00
H1331  H     0.09137   0.57208   0.85807   0.00000  Uiso   1.00
H1332  H     0.03946   0.54956   0.85120   0.00000  Uiso   1.00
H1333  H     0.09196   0.49180   0.84034   0.00000  Uiso   1.00
H1334  H     0.06420   0.47827   0.88641   0.00000  Uiso   1.00
H1335  H     0.24524   0.44219   0.65739   0.00000  Uiso   1.00
H1336  H     0.27153   0.44272   0.60550   0.00000  Uiso   1.00
H1337  H     0.29641   0.46657   0.65465   0.00000  Uiso   1.00
H1338  H     0.26778   0.52837   0.60778   0.00000  Uiso   1.00
H1339  H     0.24001   0.52435   0.65582   0.00000  Uiso   1.00
H1340  H     0.27275   0.39120   0.74885   0.00000  Uiso   1.00
H1341  H     0.05940   0.49110   0.53187   0.00000  Uiso   1.00
H1342  H     0.29898   0.37623   0.80207   0.00000  Uiso   1.00
H1343  H     0.27439   0.33508   0.76789   0.00000  Uiso   1.00
H1344  H     0.22492   0.41351   0.80687   0.00000  Uiso   1.00
H1345  H     0.23405   0.36656   0.83772   0.00000  Uiso   1.00
H1346  H     0.14442   0.65731   0.62624   0.00000  Uiso   1.00
H1347  H     0.17644   0.61129   0.64603   0.00000  Uiso   1.00
H1348  H     0.12859   0.60199   0.61288   0.00000  Uiso   1.00
H1349  H     0.11252   0.58635   0.69059   0.00000  Uiso   1.00
H1350  H     0.08639   0.63374   0.67435   0.00000  Uiso   1.00
H1351  H     0.06639   0.38785   0.75448   0.00000  Uiso   1.00
H1352  H     0.27377   0.48981   0.96822   0.00000  Uiso   1.00
H1353  H     0.03842   0.40150   0.70217   0.00000  Uiso   1.00
H1354  H     0.04961   0.34474   0.71748   0.00000  Uiso   1.00
H1355  H     0.11096   0.41654   0.69066   0.00000  Uiso   1.00
H1356  H     0.09981   0.37015   0.66104   0.00000  Uiso   1.00
H1357  H     0.19158   0.65439   0.87483   0.00000  Uiso   1.00
H1358  H     0.15837   0.61044   0.85559   0.00000  Uiso   1.00
H1359  H     0.20684   0.59796   0.88722   0.00000  Uiso   1.00
H1360  H     0.22119   0.58376   0.80969   0.00000  Uiso   1.00
H1361  H     0.24767   0.62988   0.82487   0.00000  Uiso   1.00
H1362  H     0.04133   0.44758   0.79972   0.00000  Uiso   1.00
H1363  H     0.29222   0.55650   0.70528   0.00000  Uiso   1.00
H1364  H     0.29834   0.45044   0.80258   0.00000  Uiso   1.00
H1365  H     0.03530   0.55715   0.70573   0.00000  Uiso   1.00
H1366  H     0.26720   0.54662   0.85522   0.00000  Uiso   1.00
N1367  N     0.16667   0.61907   0.75000   0.00000  Uiso   1.00
N1368  N     0.16667   0.38093   0.75000   0.00000  Uiso   1.00
O1369  O     0.10559   0.53821   0.74999   0.00000  Uiso   1.00
O1370  O     0.22774   0.46179   0.75000   0.00000  Uiso   1.00
O1371  O     0.22774   0.53821   0.75000   0.00000  Uiso   1.00
O1372  O     0.10559   0.46179   0.74999   0.00000  Uiso   1.00
O1373  O     0.16666   0.53823   0.68392   0.00000  Uiso   1.00
O1374  O     0.16667   0.46177   0.81607   0.00000  Uiso   1.00
O1375  O     0.16667   0.53823   0.81607   0.00000  Uiso   1.00
O1376  O     0.16666   0.46177   0.68392   0.00000  Uiso   1.00
Zn1377 Zn    0.16667   0.55104   0.75000   0.00000  Uiso   1.00
Zn1378 Zn    0.16667   0.44896   0.75000   0.00000  Uiso   1.00
C1379  C     0.42027   0.50029   0.74986   0.00000  Uiso   1.00
C1380  C     0.37610   0.50110   0.75115   0.00000  Uiso   1.00
C1381  C     0.52755   0.35632   0.77762   0.00000  Uiso   1.00
C1382  C     0.47492   0.64356   0.71979   0.00000  Uiso   1.00
C1383  C     0.47226   0.35775   0.72237   0.00000  Uiso   1.00
C1384  C     0.52481   0.64224   0.78043   0.00000  Uiso   1.00
C1385  C     0.49896   0.50017   0.66392   0.00000  Uiso   1.00
C1386  C     0.50133   0.49971   0.83607   0.00000  Uiso   1.00
C1387  C     0.53961   0.49393   0.90868   0.00000  Uiso   1.00
C1388  C     0.46010   0.49633   0.59148   0.00000  Uiso   1.00
C1389  C     0.50102   0.49848   0.88375   0.00000  Uiso   1.00
C1390  C     0.57975   0.49998   0.75061   0.00000  Uiso   1.00
C1391  C     0.49877   0.50024   0.61619   0.00000  Uiso   1.00
C1392  C     0.46186   0.49992   0.90375   0.00000  Uiso   1.00
C1393  C     0.53777   0.50180   0.59597   0.00000  Uiso   1.00
C1394  C     0.46154   0.49806   0.95056   0.00000  Uiso   1.00
C1395  C     0.53812   0.49839   0.54934   0.00000  Uiso   1.00
C1396  C     0.50006   0.49702   0.97643   0.00000  Uiso   1.00
C1397  C     0.49961   0.49743   0.52355   0.00000  Uiso   1.00
C1398  C     0.53901   0.49480   0.95550   0.00000  Uiso   1.00
C1399  C     0.46070   0.49616   0.54458   0.00000  Uiso   1.00
C1400  C     0.42355   0.49639   0.97225   0.00000  Uiso   1.00
C1401  C     0.42323   0.49401   0.51805   0.00000  Uiso   1.00
C1402  C     0.57615   0.49527   0.52781   0.00000  Uiso   1.00
C1403  C     0.58081   0.48527   0.88556   0.00000  Uiso   1.00
C1404  C     0.60918   0.52569   0.88472   0.00000  Uiso   1.00
C1405  C     0.41871   0.49060   0.61497   0.00000  Uiso   1.00
C1406  C     0.39098   0.53235   0.61272   0.00000  Uiso   1.00
C1407  C     0.42078   0.50226   0.87486   0.00000  Uiso   1.00
C1408  C     0.40219   0.54905   0.87275   0.00000  Uiso   1.00
C1409  C     0.57870   0.50670   0.62446   0.00000  Uiso   1.00
C1410  C     0.59913   0.46176   0.63608   0.00000  Uiso   1.00
C1411  C     0.56382   0.37828   0.80268   0.00000  Uiso   1.00
C1412  C     0.57654   0.49274   0.98206   0.00000  Uiso   1.00
C1413  C     0.60482   0.36981   0.77899   0.00000  Uiso   1.00
C1414  C     0.45188   0.62051   0.68158   0.00000  Uiso   1.00
C1415  C     0.47683   0.62292   0.63923   0.00000  Uiso   1.00
C1416  C     0.43712   0.38198   0.69573   0.00000  Uiso   1.00
C1417  C     0.39543   0.37874   0.71884   0.00000  Uiso   1.00
C1418  C     0.54864   0.61788   0.81842   0.00000  Uiso   1.00
C1419  C     0.52491   0.62034   0.86153   0.00000  Uiso   1.00
C1420  C     0.35667   0.47088   0.77855   0.00000  Uiso   1.00
C1421  C     0.64354   0.53252   0.72568   0.00000  Uiso   1.00
C1422  C     0.64699   0.47161   0.77948   0.00000  Uiso   1.00
C1423  C     0.35327   0.53287   0.72583   0.00000  Uiso   1.00
C1424  C     0.62405   0.50080   0.75142   0.00000  Uiso   1.00
H1425  H     0.39319   0.49646   0.95459   0.00000  Uiso   1.00
H1426  H     0.60706   0.54609   0.91507   0.00000  Uiso   1.00
H1427  H     0.64232   0.51462   0.88197   0.00000  Uiso   1.00
H1428  H     0.59795   0.45695   0.90223   0.00000  Uiso   1.00
H1429  H     0.57551   0.47427   0.85075   0.00000  Uiso   1.00
H1430  H     0.40403   0.55716   0.63599   0.00000  Uiso   1.00
H1431  H     0.38850   0.54765   0.57898   0.00000  Uiso   1.00
H1432  H     0.35889   0.52413   0.62282   0.00000  Uiso   1.00
H1433  H     0.40120   0.46229   0.60033   0.00000  Uiso   1.00
H1434  H     0.42366   0.48144   0.65066   0.00000  Uiso   1.00
H1435  H     0.39480   0.56071   0.90646   0.00000  Uiso   1.00
H1436  H     0.60643   0.49384   0.54566   0.00000  Uiso   1.00
H1437  H     0.42470   0.57208   0.85807   0.00000  Uiso   1.00
H1438  H     0.37279   0.54956   0.85120   0.00000  Uiso   1.00
H1439  H     0.42529   0.49180   0.84034   0.00000  Uiso   1.00
H1440  H     0.39753   0.47827   0.88641   0.00000  Uiso   1.00
H1441  H     0.57857   0.44219   0.65739   0.00000  Uiso   1.00
H1442  H     0.60487   0.44272   0.60550   0.00000  Uiso   1.00
H1443  H     0.62974   0.46657   0.65465   0.00000  Uiso   1.00
H1444  H     0.60111   0.52837   0.60778   0.00000  Uiso   1.00
H1445  H     0.57334   0.52435   0.65582   0.00000  Uiso   1.00
H1446  H     0.60609   0.39120   0.74885   0.00000  Uiso   1.00
H1447  H     0.39273   0.49110   0.53187   0.00000  Uiso   1.00
H1448  H     0.63232   0.37623   0.80207   0.00000  Uiso   1.00
H1449  H     0.60772   0.33508   0.76789   0.00000  Uiso   1.00
H1450  H     0.55825   0.41351   0.80687   0.00000  Uiso   1.00
H1451  H     0.56739   0.36656   0.83772   0.00000  Uiso   1.00
H1452  H     0.47776   0.65731   0.62624   0.00000  Uiso   1.00
H1453  H     0.50977   0.61129   0.64603   0.00000  Uiso   1.00
H1454  H     0.46193   0.60199   0.61288   0.00000  Uiso   1.00
H1455  H     0.44586   0.58635   0.69059   0.00000  Uiso   1.00
H1456  H     0.41973   0.63374   0.67435   0.00000  Uiso   1.00
H1457  H     0.39972   0.38785   0.75448   0.00000  Uiso   1.00
H1458  H     0.60710   0.48981   0.96822   0.00000  Uiso   1.00
H1459  H     0.37175   0.40150   0.70217   0.00000  Uiso   1.00
H1460  H     0.38294   0.34474   0.71748   0.00000  Uiso   1.00
H1461  H     0.44430   0.41654   0.69066   0.00000  Uiso   1.00
H1462  H     0.43315   0.37015   0.66104   0.00000  Uiso   1.00
H1463  H     0.52492   0.65439   0.87483   0.00000  Uiso   1.00
H1464  H     0.49170   0.61044   0.85559   0.00000  Uiso   1.00
H1465  H     0.54017   0.59796   0.88722   0.00000  Uiso   1.00
H1466  H     0.55453   0.58376   0.80969   0.00000  Uiso   1.00
H1467  H     0.58100   0.62988   0.82487   0.00000  Uiso   1.00
H1468  H     0.37467   0.44758   0.79972   0.00000  Uiso   1.00
H1469  H     0.62556   0.55650   0.70528   0.00000  Uiso   1.00
H1470  H     0.63167   0.45044   0.80258   0.00000  Uiso   1.00
H1471  H     0.36864   0.55715   0.70573   0.00000  Uiso   1.00
H1472  H     0.60053   0.54662   0.85522   0.00000  Uiso   1.00
N1473  N     0.50000   0.61907   0.75000   0.00000  Uiso   1.00
N1474  N     0.50000   0.38093   0.75000   0.00000  Uiso   1.00
O1475  O     0.43892   0.53821   0.74999   0.00000  Uiso   1.00
O1476  O     0.56108   0.46179   0.75000   0.00000  Uiso   1.00
O1477  O     0.56108   0.53821   0.75000   0.00000  Uiso   1.00
O1478  O     0.43892   0.46179   0.74999   0.00000  Uiso   1.00
O1479  O     0.49999   0.53823   0.68392   0.00000  Uiso   1.00
O1480  O     0.50001   0.46177   0.81607   0.00000  Uiso   1.00
O1481  O     0.50001   0.53823   0.81607   0.00000  Uiso   1.00
O1482  O     0.49999   0.46177   0.68392   0.00000  Uiso   1.00
Zn1483 Zn    0.50000   0.55104   0.75000   0.00000  Uiso   1.00
Zn1484 Zn    0.50000   0.44896   0.75000   0.00000  Uiso   1.00
C1485  C     0.75361   0.50029   0.74986   0.00000  Uiso   1.00
C1486  C     0.70943   0.50110   0.75115   0.00000  Uiso   1.00
C1487  C     0.86089   0.35632   0.77762   0.00000  Uiso   1.00
C1488  C     0.80825   0.64356   0.71979   0.00000  Uiso   1.00
C1489  C     0.80560   0.35775   0.72237   0.00000  Uiso   1.00
C1490  C     0.85814   0.64224   0.78043   0.00000  Uiso   1.00
C1491  C     0.83229   0.50017   0.66392   0.00000  Uiso   1.00
C1492  C     0.83466   0.49971   0.83607   0.00000  Uiso   1.00
C1493  C     0.87294   0.49393   0.90868   0.00000  Uiso   1.00
C1494  C     0.79343   0.49633   0.59148   0.00000  Uiso   1.00
C1495  C     0.83436   0.49848   0.88375   0.00000  Uiso   1.00
C1496  C     0.91308   0.49998   0.75061   0.00000  Uiso   1.00
C1497  C     0.83211   0.50024   0.61619   0.00000  Uiso   1.00
C1498  C     0.79520   0.49992   0.90375   0.00000  Uiso   1.00
C1499  C     0.87110   0.50180   0.59597   0.00000  Uiso   1.00
C1500  C     0.79488   0.49806   0.95056   0.00000  Uiso   1.00
C1501  C     0.87145   0.49839   0.54934   0.00000  Uiso   1.00
C1502  C     0.83339   0.49702   0.97643   0.00000  Uiso   1.00
C1503  C     0.83294   0.49743   0.52355   0.00000  Uiso   1.00
C1504  C     0.87234   0.49480   0.95550   0.00000  Uiso   1.00
C1505  C     0.79403   0.49616   0.54458   0.00000  Uiso   1.00
C1506  C     0.75688   0.49639   0.97225   0.00000  Uiso   1.00
C1507  C     0.75657   0.49401   0.51805   0.00000  Uiso   1.00
C1508  C     0.90948   0.49527   0.52781   0.00000  Uiso   1.00
C1509  C     0.91414   0.48527   0.88556   0.00000  Uiso   1.00
C1510  C     0.94251   0.52569   0.88472   0.00000  Uiso   1.00
C1511  C     0.75204   0.49060   0.61497   0.00000  Uiso   1.00
C1512  C     0.72431   0.53235   0.61272   0.00000  Uiso   1.00
C1513  C     0.75411   0.50226   0.87486   0.00000  Uiso   1.00
C1514  C     0.73552   0.54905   0.87275   0.00000  Uiso   1.00
C1515  C     0.91203   0.50670   0.62446   0.00000  Uiso   1.00
C1516  C     0.93247   0.46176   0.63608   0.00000  Uiso   1.00
C1517  C     0.89716   0.37828   0.80268   0.00000  Uiso   1.00
C1518  C     0.90988   0.49274   0.98206   0.00000  Uiso   1.00
C1519  C     0.93815   0.36981   0.77899   0.00000  Uiso   1.00
C1520  C     0.78521   0.62051   0.68158   0.00000  Uiso   1.00
C1521  C     0.81016   0.62292   0.63923   0.00000  Uiso   1.00
C1522  C     0.77045   0.38198   0.69573   0.00000  Uiso   1.00
C1523  C     0.72876   0.37874   0.71884   0.00000  Uiso   1.00
C1524  C     0.88197   0.61788   0.81842   0.00000  Uiso   1.00
C1525  C     0.85824   0.62034   0.86153   0.00000  Uiso   1.00
C1526  C     0.69000   0.47088   0.77855   0.00000  Uiso   1.00
C1527  C     0.97687   0.53252   0.72568   0.00000  Uiso   1.00
C1528  C     0.98033   0.47161   0.77948   0.00000  Uiso   1.00
C1529  C     0.68660   0.53287   0.72583   0.00000  Uiso   1.00
C1530  C     0.95738   0.50080   0.75142   0.00000  Uiso   1.00
H1531  H     0.72652   0.49646   0.95459   0.00000  Uiso   1.00
H1532  H     0.94039   0.54609   0.91507   0.00000  Uiso   1.00
H1533  H     0.97566   0.51462   0.88197   0.00000  Uiso   1.00
H1534  H     0.93128   0.45695   0.90223   0.00000  Uiso   1.00
H1535  H     0.90884   0.47427   0.85075   0.00000  Uiso   1.00
H1536  H     0.73737   0.55716   0.63599   0.00000  Uiso   1.00
H1537  H     0.72184   0.54765   0.57898   0.00000  Uiso   1.00
H1538  H     0.69222   0.52413   0.62282   0.00000  Uiso   1.00
H1539  H     0.73453   0.46229   0.60033   0.00000  Uiso   1.00
H1540  H     0.75699   0.48144   0.65066   0.00000  Uiso   1.00
H1541  H     0.72814   0.56071   0.90646   0.00000  Uiso   1.00
H1542  H     0.93976   0.49384   0.54566   0.00000  Uiso   1.00
H1543  H     0.75803   0.57208   0.85807   0.00000  Uiso   1.00
H1544  H     0.70612   0.54956   0.85120   0.00000  Uiso   1.00
H1545  H     0.75863   0.49180   0.84034   0.00000  Uiso   1.00
H1546  H     0.73087   0.47827   0.88641   0.00000  Uiso   1.00
H1547  H     0.91191   0.44219   0.65739   0.00000  Uiso   1.00
H1548  H     0.93820   0.44272   0.60550   0.00000  Uiso   1.00
H1549  H     0.96307   0.46657   0.65465   0.00000  Uiso   1.00
H1550  H     0.93445   0.52837   0.60778   0.00000  Uiso   1.00
H1551  H     0.90668   0.52435   0.65582   0.00000  Uiso   1.00
H1552  H     0.93942   0.39120   0.74885   0.00000  Uiso   1.00
H1553  H     0.72606   0.49110   0.53187   0.00000  Uiso   1.00
H1554  H     0.96565   0.37623   0.80207   0.00000  Uiso   1.00
H1555  H     0.94106   0.33508   0.76789   0.00000  Uiso   1.00
H1556  H     0.89159   0.41351   0.80687   0.00000  Uiso   1.00
H1557  H     0.90072   0.36656   0.83772   0.00000  Uiso   1.00
H1558  H     0.81109   0.65731   0.62624   0.00000  Uiso   1.00
H1559  H     0.84310   0.61129   0.64603   0.00000  Uiso   1.00
H1560  H     0.79526   0.60199   0.61288   0.00000  Uiso   1.00
H1561  H     0.77919   0.58635   0.69059   0.00000  Uiso   1.00
H1562  H     0.75306   0.63374   0.67435   0.00000  Uiso   1.00
H1563  H     0.73306   0.38785   0.75448   0.00000  Uiso   1.00
H1564  H     0.94043   0.48981   0.96822   0.00000  Uiso   1.00
H1565  H     0.70508   0.40150   0.70217   0.00000  Uiso   1.00
H1566  H     0.71628   0.34474   0.71748   0.00000  Uiso   1.00
H1567  H     0.77763   0.41654   0.69066   0.00000  Uiso   1.00
H1568  H     0.76648   0.37015   0.66104   0.00000  Uiso   1.00
H1569  H     0.85825   0.65439   0.87483   0.00000  Uiso   1.00
H1570  H     0.82503   0.61044   0.85559   0.00000  Uiso   1.00
H1571  H     0.87350   0.59796   0.88722   0.00000  Uiso   1.00
H1572  H     0.88786   0.58376   0.80969   0.00000  Uiso   1.00
H1573  H     0.91433   0.62988   0.82487   0.00000  Uiso   1.00
H1574  H     0.70800   0.44758   0.79972   0.00000  Uiso   1.00
H1575  H     0.95889   0.55650   0.70528   0.00000  Uiso   1.00
H1576  H     0.96501   0.45044   0.80258   0.00000  Uiso   1.00
H1577  H     0.70197   0.55715   0.70573   0.00000  Uiso   1.00
H1578  H     0.93386   0.54662   0.85522   0.00000  Uiso   1.00
N1579  N     0.83333   0.61907   0.75000   0.00000  Uiso   1.00
N1580  N     0.83333   0.38093   0.75000   0.00000  Uiso   1.00
O1581  O     0.77226   0.53821   0.74999   0.00000  Uiso   1.00
O1582  O     0.89441   0.46179   0.75000   0.00000  Uiso   1.00
O1583  O     0.89441   0.53821   0.75000   0.00000  Uiso   1.00
O1584  O     0.77226   0.46179   0.74999   0.00000  Uiso   1.00
O1585  O     0.83333   0.53823   0.68392   0.00000  Uiso   1.00
O1586  O     0.83334   0.46177   0.81607   0.00000  Uiso   1.00
O1587  O     0.83334   0.53823   0.81607   0.00000  Uiso   1.00
O1588  O     0.83333   0.46177   0.68392   0.00000  Uiso   1.00
Zn1589 Zn    0.83333   0.55104   0.75000   0.00000  Uiso   1.00
Zn1590 Zn    0.83333   0.44896   0.75000   0.00000  Uiso   1.00
C1591  C     0.08694   0.83362   0.74986   0.00000  Uiso   1.00
C1592  C     0.04276   0.83444   0.75115   0.00000  Uiso   1.00
C1593  C     0.19422   0.68965   0.77762   0.00000  Uiso   1.00
C1594  C     0.14158   0.97690   0.71979   0.00000  Uiso   1.00
C1595  C     0.13893   0.69108   0.72237   0.00000  Uiso   1.00
C1596  C     0.19147   0.97557   0.78043   0.00000  Uiso   1.00
C1597  C     0.16563   0.83350   0.66392   0.00000  Uiso   1.00
C1598  C     0.16800   0.83305   0.83607   0.00000  Uiso   1.00
C1599  C     0.20628   0.82726   0.90868   0.00000  Uiso   1.00
C1600  C     0.12677   0.82966   0.59148   0.00000  Uiso   1.00
C1601  C     0.16769   0.83181   0.88375   0.00000  Uiso   1.00
C1602  C     0.24641   0.83332   0.75061   0.00000  Uiso   1.00
C1603  C     0.16544   0.83358   0.61619   0.00000  Uiso   1.00
C1604  C     0.12853   0.83325   0.90375   0.00000  Uiso   1.00
C1605  C     0.20444   0.83514   0.59597   0.00000  Uiso   1.00
C1606  C     0.12821   0.83139   0.95056   0.00000  Uiso   1.00
C1607  C     0.20478   0.83172   0.54934   0.00000  Uiso   1.00
C1608  C     0.16673   0.83035   0.97643   0.00000  Uiso   1.00
C1609  C     0.16628   0.83076   0.52355   0.00000  Uiso   1.00
C1610  C     0.20567   0.82813   0.95550   0.00000  Uiso   1.00
C1611  C     0.12737   0.82949   0.54458   0.00000  Uiso   1.00
C1612  C     0.09022   0.82972   0.97225   0.00000  Uiso   1.00
C1613  C     0.08990   0.82734   0.51805   0.00000  Uiso   1.00
C1614  C     0.24282   0.82860   0.52781   0.00000  Uiso   1.00
C1615  C     0.24748   0.81861   0.88556   0.00000  Uiso   1.00
C1616  C     0.27584   0.85902   0.88472   0.00000  Uiso   1.00
C1617  C     0.08538   0.82393   0.61497   0.00000  Uiso   1.00
C1618  C     0.05765   0.86568   0.61272   0.00000  Uiso   1.00
C1619  C     0.08745   0.83560   0.87486   0.00000  Uiso   1.00
C1620  C     0.06885   0.88239   0.87275   0.00000  Uiso   1.00
C1621  C     0.24537   0.84003   0.62446   0.00000  Uiso   1.00
C1622  C     0.26580   0.79509   0.63608   0.00000  Uiso   1.00
C1623  C     0.23049   0.71162   0.80268   0.00000  Uiso   1.00
C1624  C     0.24321   0.82608   0.98206   0.00000  Uiso   1.00
C1625  C     0.27148   0.70314   0.77899   0.00000  Uiso   1.00
C1626  C     0.11854   0.95384   0.68158   0.00000  Uiso   1.00
C1627  C     0.14350   0.95625   0.63923   0.00000  Uiso   1.00
C1628  C     0.10379   0.71532   0.69573   0.00000  Uiso   1.00
C1629  C     0.06210   0.71208   0.71884   0.00000  Uiso   1.00
C1630  C     0.21531   0.95122   0.81842   0.00000  Uiso   1.00
C1631  C     0.19157   0.95368   0.86153   0.00000  Uiso   1.00
C1632  C     0.02333   0.80421   0.77855   0.00000  Uiso   1.00
C1633  C     0.31020   0.86585   0.72568   0.00000  Uiso   1.00
C1634  C     0.31366   0.80494   0.77948   0.00000  Uiso   1.00
C1635  C     0.01993   0.86621   0.72583   0.00000  Uiso   1.00
C1636  C     0.29072   0.83414   0.75142   0.00000  Uiso   1.00
H1637  H     0.05985   0.82979   0.95459   0.00000  Uiso   1.00
H1638  H     0.27372   0.87943   0.91507   0.00000  Uiso   1.00
H1639  H     0.30899   0.84795   0.88197   0.00000  Uiso   1.00
H1640  H     0.26462   0.79028   0.90223   0.00000  Uiso   1.00
H1641  H     0.24217   0.80761   0.85075   0.00000  Uiso   1.00
H1642  H     0.07070   0.89049   0.63599   0.00000  Uiso   1.00
H1643  H     0.05517   0.88098   0.57898   0.00000  Uiso   1.00
H1644  H     0.02555   0.85746   0.62282   0.00000  Uiso   1.00
H1645  H     0.06786   0.79562   0.60033   0.00000  Uiso   1.00
H1646  H     0.09033   0.81477   0.65066   0.00000  Uiso   1.00
H1647  H     0.06147   0.89404   0.90646   0.00000  Uiso   1.00
H1648  H     0.27310   0.82718   0.54566   0.00000  Uiso   1.00
H1649  H     0.09137   0.90541   0.85807   0.00000  Uiso   1.00
H1650  H     0.03946   0.88289   0.85120   0.00000  Uiso   1.00
H1651  H     0.09196   0.82513   0.84034   0.00000  Uiso   1.00
H1652  H     0.06420   0.81160   0.88641   0.00000  Uiso   1.00
H1653  H     0.24524   0.77553   0.65739   0.00000  Uiso   1.00
H1654  H     0.27153   0.77606   0.60550   0.00000  Uiso   1.00
H1655  H     0.29641   0.79990   0.65465   0.00000  Uiso   1.00
H1656  H     0.26778   0.86170   0.60778   0.00000  Uiso   1.00
H1657  H     0.24001   0.85768   0.65582   0.00000  Uiso   1.00
H1658  H     0.27275   0.72453   0.74885   0.00000  Uiso   1.00
H1659  H     0.05940   0.82443   0.53187   0.00000  Uiso   1.00
H1660  H     0.29898   0.70957   0.80207   0.00000  Uiso   1.00
H1661  H     0.27439   0.66841   0.76789   0.00000  Uiso   1.00
H1662  H     0.22492   0.74684   0.80687   0.00000  Uiso   1.00
H1663  H     0.23405   0.69989   0.83772   0.00000  Uiso   1.00
H1664  H     0.14442   0.99064   0.62624   0.00000  Uiso   1.00
H1665  H     0.17644   0.94462   0.64603   0.00000  Uiso   1.00
H1666  H     0.12859   0.93533   0.61288   0.00000  Uiso   1.00
H1667  H     0.11252   0.91969   0.69059   0.00000  Uiso   1.00
H1668  H     0.08639   0.96707   0.67435   0.00000  Uiso   1.00
H1669  H     0.06639   0.72118   0.75448   0.00000  Uiso   1.00
H1670  H     0.27377   0.82315   0.96822   0.00000  Uiso   1.00
H1671  H     0.03842   0.73483   0.70217   0.00000  Uiso   1.00
H1672  H     0.04961   0.67808   0.71748   0.00000  Uiso   1.00
H1673  H     0.11096   0.74988   0.69066   0.00000  Uiso   1.00
H1674  H     0.09981   0.70348   0.66104   0.00000  Uiso   1.00
H1675  H     0.19158   0.98773   0.87483   0.00000  Uiso   1.00
H1676  H     0.15837   0.94378   0.85559   0.00000  Uiso   1.00
H1677  H     0.20684   0.93129   0.88722   0.00000  Uiso   1.00
H1678  H     0.22119   0.91709   0.80969   0.00000  Uiso   1.00
H1679  H     0.24767   0.96322   0.82487   0.00000  Uiso   1.00
H1680  H     0.04133   0.78091   0.79972   0.00000  Uiso   1.00
H1681  H     0.29222   0.88983   0.70528   0.00000  Uiso   1.00
H1682  H     0.29834   0.78378   0.80258   0.00000  Uiso   1.00
H1683  H     0.03530   0.89048   0.70573   0.00000  Uiso   1.00
H1684  H     0.26720   0.87996   0.85522   0.00000  Uiso   1.00
N1685  N     0.16667   0.95240   0.75000   0.00000  Uiso   1.00
N1686  N     0.16667   0.71427   0.75000   0.00000  Uiso   1.00
O1687  O     0.10559   0.87154   0.74999   0.00000  Uiso   1.00
O1688  O     0.22774   0.79513   0.75000   0.00000  Uiso   1.00
O1689  O     0.22774   0.87154   0.75000   0.00000  Uiso   1.00
O1690  O     0.10559   0.79513   0.74999   0.00000  Uiso   1.00
O1691  O     0.16666   0.87156   0.68392   0.00000  Uiso   1.00
O1692  O     0.16667   0.79511   0.81607   0.00000  Uiso   1.00
O1693  O     0.16667   0.87156   0.81607   0.00000  Uiso   1.00
O1694  O     0.16666   0.79511   0.68392   0.00000  Uiso   1.00
Zn1695 Zn    0.16667   0.88437   0.75000   0.00000  Uiso   1.00
Zn1696 Zn    0.16667   0.78229   0.75000   0.00000  Uiso   1.00
C1697  C     0.42027   0.83362   0.74986   0.00000  Uiso   1.00
C1698  C     0.37610   0.83444   0.75115   0.00000  Uiso   1.00
C1699  C     0.52755   0.68965   0.77762   0.00000  Uiso   1.00
C1700  C     0.47492   0.97690   0.71979   0.00000  Uiso   1.00
C1701  C     0.47226   0.69108   0.72237   0.00000  Uiso   1.00
C1702  C     0.52481   0.97557   0.78043   0.00000  Uiso   1.00
C1703  C     0.49896   0.83350   0.66392   0.00000  Uiso   1.00
C1704  C     0.50133   0.83305   0.83607   0.00000  Uiso   1.00
C1705  C     0.53961   0.82726   0.90868   0.00000  Uiso   1.00
C1706  C     0.46010   0.82966   0.59148   0.00000  Uiso   1.00
C1707  C     0.50102   0.83181   0.88375   0.00000  Uiso   1.00
C1708  C     0.57975   0.83332   0.75061   0.00000  Uiso   1.00
C1709  C     0.49877   0.83358   0.61619   0.00000  Uiso   1.00
C1710  C     0.46186   0.83325   0.90375   0.00000  Uiso   1.00
C1711  C     0.53777   0.83514   0.59597   0.00000  Uiso   1.00
C1712  C     0.46154   0.83139   0.95056   0.00000  Uiso   1.00
C1713  C     0.53812   0.83172   0.54934   0.00000  Uiso   1.00
C1714  C     0.50006   0.83035   0.97643   0.00000  Uiso   1.00
C1715  C     0.49961   0.83076   0.52355   0.00000  Uiso   1.00
C1716  C     0.53901   0.82813   0.95550   0.00000  Uiso   1.00
C1717  C     0.46070   0.82949   0.54458   0.00000  Uiso   1.00
C1718  C     0.42355   0.82972   0.97225   0.00000  Uiso   1.00
C1719  C     0.42323   0.82734   0.51805   0.00000  Uiso   1.00
C1720  C     0.57615   0.82860   0.52781   0.00000  Uiso   1.00
C1721  C     0.58081   0.81861   0.88556   0.00000  Uiso   1.00
C1722  C     0.60918   0.85902   0.88472   0.00000  Uiso   1.00
C1723  C     0.41871   0.82393   0.61497   0.00000  Uiso   1.00
C1724  C     0.39098   0.86568   0.61272   0.00000  Uiso   1.00
C1725  C     0.42078   0.83560   0.87486   0.00000  Uiso   1.00
C1726  C     0.40219   0.88239   0.87275   0.00000  Uiso   1.00
C1727  C     0.57870   0.84003   0.62446   0.00000  Uiso   1.00
C1728  C     0.59913   0.79509   0.63608   0.00000  Uiso   1.00
C1729  C     0.56382   0.71162   0.80268   0.00000  Uiso   1.00
C1730  C     0.57654   0.82608   0.98206   0.00000  Uiso   1.00
C1731  C     0.60482   0.70314   0.77899   0.00000  Uiso   1.00
C1732  C     0.45188   0.95384   0.68158   0.00000  Uiso   1.00
C1733  C     0.47683   0.95625   0.63923   0.00000  Uiso   1.00
C1734  C     0.43712   0.71532   0.69573   0.00000  Uiso   1.00
C1735  C     0.39543   0.71208   0.71884   0.00000  Uiso   1.00
C1736  C     0.54864   0.95122   0.81842   0.00000  Uiso   1.00
C1737  C     0.52491   0.95368   0.86153   0.00000  Uiso   1.00
C1738  C     0.35667   0.80421   0.77855   0.00000  Uiso   1.00
C1739  C     0.64354   0.86585   0.72568   0.00000  Uiso   1.00
C1740  C     0.64699   0.80494   0.77948   0.00000  Uiso   1.00
C1741  C     0.35327   0.86621   0.72583   0.00000  Uiso   1.00
C1742  C     0.62405   0.83414   0.75142   0.00000  Uiso   1.00
H1743  H     0.39319   0.82979   0.95459   0.00000  Uiso   1.00
H1744  H     0.60706   0.87943   0.91507   0.00000  Uiso   1.00
H1745  H     0.64232   0.84795   0.88197   0.00000  Uiso   1.00
H1746  H     0.59795   0.79028   0.90223   0.00000  Uiso   1.00
H1747  H     0.57551   0.80761   0.85075   0.00000  Uiso   1.00
H1748  H     0.40403   0.89049   0.63599   0.00000  Uiso   1.00
H1749  H     0.38850   0.88098   0.57898   0.00000  Uiso   1.00
H1750  H     0.35889   0.85746   0.62282   0.00000  Uiso   1.00
H1751  H     0.40120   0.79562   0.60033   0.00000  Uiso   1.00
H1752  H     0.42366   0.81477   0.65066   0.00000  Uiso   1.00
H1753  H     0.39480   0.89404   0.90646   0.00000  Uiso   1.00
H1754  H     0.60643   0.82718   0.54566   0.00000  Uiso   1.00
H1755  H     0.42470   0.90541   0.85807   0.00000  Uiso   1.00
H1756  H     0.37279   0.88289   0.85120   0.00000  Uiso   1.00
H1757  H     0.42529   0.82513   0.84034   0.00000  Uiso   1.00
H1758  H     0.39753   0.81160   0.88641   0.00000  Uiso   1.00
H1759  H     0.57857   0.77553   0.65739   0.00000  Uiso   1.00
H1760  H     0.60487   0.77606   0.60550   0.00000  Uiso   1.00
H1761  H     0.62974   0.79990   0.65465   0.00000  Uiso   1.00
H1762  H     0.60111   0.86170   0.60778   0.00000  Uiso   1.00
H1763  H     0.57334   0.85768   0.65582   0.00000  Uiso   1.00
H1764  H     0.60609   0.72453   0.74885   0.00000  Uiso   1.00
H1765  H     0.39273   0.82443   0.53187   0.00000  Uiso   1.00
H1766  H     0.63232   0.70957   0.80207   0.00000  Uiso   1.00
H1767  H     0.60772   0.66841   0.76789   0.00000  Uiso   1.00
H1768  H     0.55825   0.74684   0.80687   0.00000  Uiso   1.00
H1769  H     0.56739   0.69989   0.83772   0.00000  Uiso   1.00
H1770  H     0.47776   0.99064   0.62624   0.00000  Uiso   1.00
H1771  H     0.50977   0.94462   0.64603   0.00000  Uiso   1.00
H1772  H     0.46193   0.93533   0.61288   0.00000  Uiso   1.00
H1773  H     0.44586   0.91969   0.69059   0.00000  Uiso   1.00
H1774  H     0.41973   0.96707   0.67435   0.00000  Uiso   1.00
H1775  H     0.39972   0.72118   0.75448   0.00000  Uiso   1.00
H1776  H     0.60710   0.82315   0.96822   0.00000  Uiso   1.00
H1777  H     0.37175   0.73483   0.70217   0.00000  Uiso   1.00
H1778  H     0.38294   0.67808   0.71748   0.00000  Uiso   1.00
H1779  H     0.44430   0.74988   0.69066   0.00000  Uiso   1.00
H1780  H     0.43315   0.70348   0.66104   0.00000  Uiso   1.00
H1781  H     0.52492   0.98773   0.87483   0.00000  Uiso   1.00
H1782  H     0.49170   0.94378   0.85559   0.00000  Uiso   1.00
H1783  H     0.54017   0.93129   0.88722   0.00000  Uiso   1.00
H1784  H     0.55453   0.91709   0.80969   0.00000  Uiso   1.00
H1785  H     0.58100   0.96322   0.82487   0.00000  Uiso   1.00
H1786  H     0.37467   0.78091   0.79972   0.00000  Uiso   1.00
H1787  H     0.62556   0.88983   0.70528   0.00000  Uiso   1.00
H1788  H     0.63167   0.78378   0.80258   0.00000  Uiso   1.00
H1789  H     0.36864   0.89048   0.70573   0.00000  Uiso   1.00
H1790  H     0.60053   0.87996   0.85522   0.00000  Uiso   1.00
N1791  N     0.50000   0.95240   0.75000   0.00000  Uiso   1.00
N1792  N     0.50000   0.71427   0.75000   0.00000  Uiso   1.00
O1793  O     0.43892   0.87154   0.74999   0.00000  Uiso   1.00
O1794  O     0.56108   0.79513   0.75000   0.00000  Uiso   1.00
O1795  O     0.56108   0.87154   0.75000   0.00000  Uiso   1.00
O1796  O     0.43892   0.79513   0.74999   0.00000  Uiso   1.00
O1797  O     0.49999   0.87156   0.68392   0.00000  Uiso   1.00
O1798  O     0.50001   0.79511   0.81607   0.00000  Uiso   1.00
O1799  O     0.50001   0.87156   0.81607   0.00000  Uiso   1.00
O1800  O     0.49999   0.79511   0.68392   0.00000  Uiso   1.00
Zn1801 Zn    0.50000   0.88437   0.75000   0.00000  Uiso   1.00
Zn1802 Zn    0.50000   0.78229   0.75000   0.00000  Uiso   1.00
C1803  C     0.75361   0.83362   0.74986   0.00000  Uiso   1.00
C1804  C     0.70943   0.83444   0.75115   0.00000  Uiso   1.00
C1805  C     0.86089   0.68965   0.77762   0.00000  Uiso   1.00
C1806  C     0.80825   0.97690   0.71979   0.00000  Uiso   1.00
C1807  C     0.80560   0.69108   0.72237   0.00000  Uiso   1.00
C1808  C     0.85814   0.97557   0.78043   0.00000  Uiso   1.00
C1809  C     0.83229   0.83350   0.66392   0.00000  Uiso   1.00
C1810  C     0.83466   0.83305   0.83607   0.00000  Uiso   1.00
C1811  C     0.87294   0.82726   0.90868   0.00000  Uiso   1.00
C1812  C     0.79343   0.82966   0.59148   0.00000  Uiso   1.00
C1813  C     0.83436   0.83181   0.88375   0.00000  Uiso   1.00
C1814  C     0.91308   0.83332   0.75061   0.00000  Uiso   1.00
C1815  C     0.83211   0.83358   0.61619   0.00000  Uiso   1.00
C1816  C     0.79520   0.83325   0.90375   0.00000  Uiso   1.00
C1817  C     0.87110   0.83514   0.59597   0.00000  Uiso   1.00
C1818  C     0.79488   0.83139   0.95056   0.00000  Uiso   1.00
C1819  C     0.87145   0.83172   0.54934   0.00000  Uiso   1.00
C1820  C     0.83339   0.83035   0.97643   0.00000  Uiso   1.00
C1821  C     0.83294   0.83076   0.52355   0.00000  Uiso   1.00
C1822  C     0.87234   0.82813   0.95550   0.00000  Uiso   1.00
C1823  C     0.79403   0.82949   0.54458   0.00000  Uiso   1.00
C1824  C     0.75688   0.82972   0.97225   0.00000  Uiso   1.00
C1825  C     0.75657   0.82734   0.51805   0.00000  Uiso   1.00
C1826  C     0.90948   0.82860   0.52781   0.00000  Uiso   1.00
C1827  C     0.91414   0.81861   0.88556   0.00000  Uiso   1.00
C1828  C     0.94251   0.85902   0.88472   0.00000  Uiso   1.00
C1829  C     0.75204   0.82393   0.61497   0.00000  Uiso   1.00
C1830  C     0.72431   0.86568   0.61272   0.00000  Uiso   1.00
C1831  C     0.75411   0.83560   0.87486   0.00000  Uiso   1.00
C1832  C     0.73552   0.88239   0.87275   0.00000  Uiso   1.00
C1833  C     0.91203   0.84003   0.62446   0.00000  Uiso   1.00
C1834  C     0.93247   0.79509   0.63608   0.00000  Uiso   1.00
C1835  C     0.89716   0.71162   0.80268   0.00000  Uiso   1.00
C1836  C     0.90988   0.82608   0.98206   0.00000  Uiso   1.00
C1837  C     0.93815   0.70314   0.77899   0.00000  Uiso   1.00
C1838  C     0.78521   0.95384   0.68158   0.00000  Uiso   1.00
C1839  C     0.81016   0.95625   0.63923   0.00000  Uiso   1.00
C1840  C     0.77045   0.71532   0.69573   0.00000  Uiso   1.00
C1841  C     0.72876   0.71208   0.71884   0.00000  Uiso   1.00
C1842  C     0.88197   0.95122   0.81842   0.00000  Uiso   1.00
C1843  C     0.85824   0.95368   0.86153   0.00000  Uiso   1.00
C1844  C     0.69000   0.80421   0.77855   0.00000  Uiso   1.00
C1845  C     0.97687   0.86585   0.72568   0.00000  Uiso   1.00
C1846  C     0.98033   0.80494   0.77948   0.00000  Uiso   1.00
C1847  C     0.68660   0.86621   0.72583   0.00000  Uiso   1.00
C1848  C     0.95738   0.83414   0.75142   0.00000  Uiso   1.00
H1849  H     0.72652   0.82979   0.95459   0.00000  Uiso   1.00
H1850  H     0.94039   0.87943   0.91507   0.00000  Uiso   1.00
H1851  H     0.97566   0.84795   0.88197   0.00000  Uiso   1.00
H1852  H     0.93128   0.79028   0.90223   0.00000  Uiso   1.00
H1853  H     0.90884   0.80761   0.85075   0.00000  Uiso   1.00
H1854  H     0.73737   0.89049   0.63599   0.00000  Uiso   1.00
H1855  H     0.72184   0.88098   0.57898   0.00000  Uiso   1.00
H1856  H     0.69222   0.85746   0.62282   0.00000  Uiso   1.00
H1857  H     0.73453   0.79562   0.60033   0.00000  Uiso   1.00
H1858  H     0.75699   0.81477   0.65066   0.00000  Uiso   1.00
H1859  H     0.72814   0.89404   0.90646   0.00000  Uiso   1.00
H1860  H     0.93976   0.82718   0.54566   0.00000  Uiso   1.00
H1861  H     0.75803   0.90541   0.85807   0.00000  Uiso   1.00
H1862  H     0.70612   0.88289   0.85120   0.00000  Uiso   1.00
H1863  H     0.75863   0.82513   0.84034   0.00000  Uiso   1.00
H1864  H     0.73087   0.81160   0.88641   0.00000  Uiso   1.00
H1865  H     0.91191   0.77553   0.65739   0.00000  Uiso   1.00
H1866  H     0.93820   0.77606   0.60550   0.00000  Uiso   1.00
H1867  H     0.96307   0.79990   0.65465   0.00000  Uiso   1.00
H1868  H     0.93445   0.86170   0.60778   0.00000  Uiso   1.00
H1869  H     0.90668   0.85768   0.65582   0.00000  Uiso   1.00
H1870  H     0.93942   0.72453   0.74885   0.00000  Uiso   1.00
H1871  H     0.72606   0.82443   0.53187   0.00000  Uiso   1.00
H1872  H     0.96565   0.70957   0.80207   0.00000  Uiso   1.00
H1873  H     0.94106   0.66841   0.76789   0.00000  Uiso   1.00
H1874  H     0.89159   0.74684   0.80687   0.00000  Uiso   1.00
H1875  H     0.90072   0.69989   0.83772   0.00000  Uiso   1.00
H1876  H     0.81109   0.99064   0.62624   0.00000  Uiso   1.00
H1877  H     0.84310   0.94462   0.64603   0.00000  Uiso   1.00
H1878  H     0.79526   0.93533   0.61288   0.00000  Uiso   1.00
H1879  H     0.77919   0.91969   0.69059   0.00000  Uiso   1.00
H1880  H     0.75306   0.96707   0.67435   0.00000  Uiso   1.00
H1881  H     0.73306   0.72118   0.75448   0.00000  Uiso   1.00
H1882  H     0.94043   0.82315   0.96822   0.00000  Uiso   1.00
H1883  H     0.70508   0.73483   0.70217   0.00000  Uiso   1.00
H1884  H     0.71628   0.67808   0.71748   0.00000  Uiso   1.00
H1885  H     0.77763   0.74988   0.69066   0.00000  Uiso   1.00
H1886  H     0.76648   0.70348   0.66104   0.00000  Uiso   1.00
H1887  H     0.85825   0.98773   0.87483   0.00000  Uiso   1.00
H1888  H     0.82503   0.94378   0.85559   0.00000  Uiso   1.00
H1889  H     0.87350   0.93129   0.88722   0.00000  Uiso   1.00
H1890  H     0.88786   0.91709   0.80969   0.00000  Uiso   1.00
H1891  H     0.91433   0.96322   0.82487   0.00000  Uiso   1.00
H1892  H     0.70800   0.78091   0.79972   0.00000  Uiso   1.00
H1893  H     0.95889   0.88983   0.70528   0.00000  Uiso   1.00
H1894  H     0.96501   0.78378   0.80258   0.00000  Uiso   1.00
H1895  H     0.70197   0.89048   0.70573   0.00000  Uiso   1.00
H1896  H     0.93386   0.87996   0.85522   0.00000  Uiso   1.00
N1897  N     0.83333   0.95240   0.75000   0.00000  Uiso   1.00
N1898  N     0.83333   0.71427   0.75000   0.00000  Uiso   1.00
O1899  O     0.77226   0.87154   0.74999   0.00000  Uiso   1.00
O1900  O     0.89441   0.79513   0.75000   0.00000  Uiso   1.00
O1901  O     0.89441   0.87154   0.75000   0.00000  Uiso   1.00
O1902  O     0.77226   0.79513   0.74999   0.00000  Uiso   1.00
O1903  O     0.83333   0.87156   0.68392   0.00000  Uiso   1.00
O1904  O     0.83334   0.79511   0.81607   0.00000  Uiso   1.00
O1905  O     0.83334   0.87156   0.81607   0.00000  Uiso   1.00
O1906  O     0.83333   0.79511   0.68392   0.00000  Uiso   1.00
Zn1907 Zn    0.83333   0.88437   0.75000   0.00000  Uiso   1.00
Zn1908 Zn    0.83333   0.78229   0.75000   0.00000  Uiso   1.00
loop_
_geom_bond_atom_site_label_1
_geom_bond_atom_site_label_2
_geom_bond_distance
_geom_bond_site_symmetry_2
_ccdc_geom_bond_type
C1     C2      1.409   .     S
C1     O100    1.300   .     A
C1     O97     1.299   .     A
C2     C45     1.393   .     A
C2     C42     1.395   .     A
C3     C33     1.511   .     S
C3     N96     1.381   .     A
C3     C642    1.440   1_545 S
C4     C36     1.511   .     S
C4     N95     1.381   .     A
C4     C323    1.442   .     S
C5     C38     1.518   .     S
C5     N96     1.383   .     A
C5     C640    1.442   1_545 S
C6     C40     1.516   .     S
C6     N95     1.380   .     A
C6     C321    1.440   .     S
C7     O104    1.301   .     A
C7     C13     1.431   .     S
C7     O101    1.304   .     A
C8     O103    1.304   .     A
C8     C11     1.431   .     S
C8     O102    1.301   .     A
C9     C25     1.534   .     S
C9     C11     1.410   .     A
C9     C20     1.406   .     A
C10    C27     1.536   .     S
C10    C21     1.408   .     A
C10    C13     1.412   .     A
C11    C14     1.410   .     A
C12    O99     1.293   .     A
C12    O98     1.306   .     A
C12    C46     1.410   .     S
C13    C15     1.410   .     A
C14    C16     1.405   .     A
C14    C29     1.533   .     S
C15    C17     1.404   .     A
C15    C31     1.532   .     S
C16    C18     1.418   .     A
C16    C22     1.403   .     A
C17    C24     1.403   .     A
C17    C19     1.417   .     A
C18    C20     1.418   .     A
C18    C973    1.414   .     S
C19    C21     1.419   .     A
C19    C972    1.414   1_554 S
C20    C34     1.403   .     A
C21    C23     1.403   .     A
C22    H47     1.079   .     S
C22    C977    1.376   .     S
C23    H69     1.079   .     S
C23    C976    1.376   1_554 S
C24    H58     1.079   .     S
C24    C988    1.376   1_554 S
C25    H50     1.111   .     S
C25    C26     1.530   .     S
C25    H51     1.105   .     S
C26    H94     1.104   .     S
C26    H48     1.109   .     S
C26    H49     1.110   .     S
C27    H55     1.111   .     S
C27    H56     1.106   .     S
C27    C28     1.530   .     S
C28    H54     1.111   .     S
C28    H53     1.108   .     S
C28    H52     1.101   .     S
C29    H61     1.102   .     S
C29    C30     1.527   .     S
C29    H62     1.109   .     S
C30    H57     1.109   .     S
C30    H60     1.110   .     S
C30    H59     1.110   .     S
C31    H66     1.109   .     S
C31    H67     1.106   .     S
C31    C32     1.529   .     S
C32    H64     1.109   .     S
C32    H63     1.110   .     S
C32    H65     1.110   .     S
C33    H72     1.088   .     S
C33    H73     1.106   .     S
C33    C35     1.536   .     S
C34    H80     1.079   .     S
C34    C978    1.376   .     S
C35    H70     1.109   .     S
C35    H71     1.110   .     S
C35    H68     1.109   .     S
C36    C37     1.533   .     S
C36    H77     1.087   .     S
C36    H78     1.105   .     S
C37    H74     1.109   .     S
C37    H75     1.110   .     S
C37    H76     1.110   .     S
C38    H83     1.084   .     S
C38    C39     1.531   .     S
C38    H84     1.106   .     S
C39    H79     1.109   .     S
C39    H81     1.111   .     S
C39    H82     1.108   .     S
C40    H89     1.105   .     S
C40    C41     1.532   .     S
C40    H88     1.084   .     S
C41    H86     1.109   .     S
C41    H87     1.110   .     S
C41    H85     1.109   .     S
C42    H90     1.083   .     S
C42    C256    1.371   1_455 S
C43    H91     1.083   .     S
C43    C46     1.397   .     A
C43    C151    1.371   .     S
C44    H92     1.078   .     S
C44    C46     1.389   .     A
C44    C148    1.371   .     S
C45    H93     1.083   .     S
C45    C255    1.371   1_455 S
N95    Zn105   2.058   .     S
N96    Zn106   2.058   .     S
O97    Zn105   1.988   .     S
O98    Zn106   1.988   .     S
O99    Zn105   1.978   .     S
O100   Zn106   1.978   .     S
O101   Zn105   2.023   .     S
O102   Zn106   2.023   .     S
O103   Zn105   2.016   .     S
O104   Zn106   2.016   .     S
C107   C108    1.409   .     S
C107   O206    1.300   .     A
C107   O203    1.299   .     A
C108   C151    1.393   .     A
C108   C148    1.395   .     A
C109   C139    1.511   .     S
C109   N202    1.381   .     A
C109   C748    1.440   1_545 S
C110   C142    1.511   .     S
C110   N201    1.381   .     A
C110   C429    1.442   .     S
C111   C144    1.518   .     S
C111   N202    1.383   .     A
C111   C746    1.442   1_545 S
C112   C146    1.516   .     S
C112   N201    1.380   .     A
C112   C427    1.440   .     S
C113   O210    1.301   .     A
C113   C119    1.431   .     S
C113   O207    1.304   .     A
C114   O209    1.304   .     A
C114   C117    1.431   .     S
C114   O208    1.301   .     A
C115   C131    1.534   .     S
C115   C117    1.410   .     A
C115   C126    1.406   .     A
C116   C133    1.536   .     S
C116   C127    1.408   .     A
C116   C119    1.412   .     A
C117   C120    1.410   .     A
C118   O205    1.293   .     A
C118   O204    1.306   .     A
C118   C152    1.410   .     S
C119   C121    1.410   .     A
C120   C122    1.405   .     A
C120   C135    1.533   .     S
C121   C123    1.404   .     A
C121   C137    1.532   .     S
C122   C124    1.418   .     A
C122   C128    1.403   .     A
C123   C130    1.403   .     A
C123   C125    1.417   .     A
C124   C126    1.418   .     A
C124   C1079   1.414   .     S
C125   C127    1.419   .     A
C125   C1078   1.414   1_554 S
C126   C140    1.403   .     A
C127   C129    1.403   .     A
C128   H153    1.079   .     S
C128   C1083   1.376   .     S
C129   H175    1.079   .     S
C129   C1082   1.376   1_554 S
C130   H164    1.079   .     S
C130   C1094   1.376   1_554 S
C131   H156    1.111   .     S
C131   C132    1.530   .     S
C131   H157    1.105   .     S
C132   H200    1.104   .     S
C132   H154    1.109   .     S
C132   H155    1.110   .     S
C133   H161    1.111   .     S
C133   H162    1.106   .     S
C133   C134    1.530   .     S
C134   H160    1.111   .     S
C134   H159    1.108   .     S
C134   H158    1.101   .     S
C135   H167    1.102   .     S
C135   C136    1.527   .     S
C135   H168    1.109   .     S
C136   H163    1.109   .     S
C136   H166    1.110   .     S
C136   H165    1.110   .     S
C137   H172    1.109   .     S
C137   H173    1.106   .     S
C137   C138    1.529   .     S
C138   H170    1.109   .     S
C138   H169    1.110   .     S
C138   H171    1.110   .     S
C139   H178    1.088   .     S
C139   H179    1.106   .     S
C139   C141    1.536   .     S
C140   H186    1.079   .     S
C140   C1084   1.376   .     S
C141   H176    1.109   .     S
C141   H177    1.110   .     S
C141   H174    1.109   .     S
C142   C143    1.533   .     S
C142   H183    1.087   .     S
C142   H184    1.105   .     S
C143   H180    1.109   .     S
C143   H181    1.110   .     S
C143   H182    1.110   .     S
C144   H189    1.084   .     S
C144   C145    1.531   .     S
C144   H190    1.106   .     S
C145   H185    1.109   .     S
C145   H187    1.111   .     S
C145   H188    1.108   .     S
C146   H195    1.105   .     S
C146   C147    1.532   .     S
C146   H194    1.084   .     S
C147   H192    1.109   .     S
C147   H193    1.110   .     S
C147   H191    1.109   .     S
C148   H196    1.083   .     S
C149   H197    1.083   .     S
C149   C152    1.397   .     A
C149   C257    1.371   .     S
C150   H198    1.078   .     S
C150   C152    1.389   .     A
C150   C254    1.371   .     S
C151   H199    1.083   .     S
N201   Zn211   2.058   .     S
N202   Zn212   2.058   .     S
O203   Zn211   1.988   .     S
O204   Zn212   1.988   .     S
O205   Zn211   1.978   .     S
O206   Zn212   1.978   .     S
O207   Zn211   2.023   .     S
O208   Zn212   2.023   .     S
O209   Zn211   2.016   .     S
O210   Zn212   2.016   .     S
C213   C214    1.409   .     S
C213   O312    1.300   .     A
C213   O309    1.299   .     A
C214   C257    1.393   .     A
C214   C254    1.395   .     A
C215   C245    1.511   .     S
C215   N308    1.381   .     A
C215   C854    1.440   1_545 S
C216   C248    1.511   .     S
C216   N307    1.381   .     A
C216   C535    1.442   .     S
C217   C250    1.518   .     S
C217   N308    1.383   .     A
C217   C852    1.442   1_545 S
C218   C252    1.516   .     S
C218   N307    1.380   .     A
C218   C533    1.440   .     S
C219   O316    1.301   .     A
C219   C225    1.431   .     S
C219   O313    1.304   .     A
C220   O315    1.304   .     A
C220   C223    1.431   .     S
C220   O314    1.301   .     A
C221   C237    1.534   .     S
C221   C223    1.410   .     A
C221   C232    1.406   .     A
C222   C239    1.536   .     S
C222   C233    1.408   .     A
C222   C225    1.412   .     A
C223   C226    1.410   .     A
C224   O311    1.293   .     A
C224   O310    1.306   .     A
C224   C258    1.410   .     S
C225   C227    1.410   .     A
C226   C228    1.405   .     A
C226   C241    1.533   .     S
C227   C229    1.404   .     A
C227   C243    1.532   .     S
C228   C230    1.418   .     A
C228   C234    1.403   .     A
C229   C236    1.403   .     A
C229   C231    1.417   .     A
C230   C232    1.418   .     A
C230   C1185   1.414   .     S
C231   C233    1.419   .     A
C231   C1184   1.414   1_554 S
C232   C246    1.403   .     A
C233   C235    1.403   .     A
C234   H259    1.079   .     S
C234   C1189   1.376   .     S
C235   H281    1.079   .     S
C235   C1188   1.376   1_554 S
C236   H270    1.079   .     S
C236   C1200   1.376   1_554 S
C237   H262    1.111   .     S
C237   C238    1.530   .     S
C237   H263    1.105   .     S
C238   H306    1.104   .     S
C238   H260    1.109   .     S
C238   H261    1.110   .     S
C239   H267    1.111   .     S
C239   H268    1.106   .     S
C239   C240    1.530   .     S
C240   H266    1.111   .     S
C240   H265    1.108   .     S
C240   H264    1.101   .     S
C241   H273    1.102   .     S
C241   C242    1.527   .     S
C241   H274    1.109   .     S
C242   H269    1.109   .     S
C242   H272    1.110   .     S
C242   H271    1.110   .     S
C243   H278    1.109   .     S
C243   H279    1.106   .     S
C243   C244    1.529   .     S
C244   H276    1.109   .     S
C244   H275    1.110   .     S
C244   H277    1.110   .     S
C245   H284    1.088   .     S
C245   H285    1.106   .     S
C245   C247    1.536   .     S
C246   H292    1.079   .     S
C246   C1190   1.376   .     S
C247   H282    1.109   .     S
C247   H283    1.110   .     S
C247   H280    1.109   .     S
C248   C249    1.533   .     S
C248   H289    1.087   .     S
C248   H290    1.105   .     S
C249   H286    1.109   .     S
C249   H287    1.110   .     S
C249   H288    1.110   .     S
C250   H295    1.084   .     S
C250   C251    1.531   .     S
C250   H296    1.106   .     S
C251   H291    1.109   .     S
C251   H293    1.111   .     S
C251   H294    1.108   .     S
C252   H301    1.105   .     S
C252   C253    1.532   .     S
C252   H300    1.084   .     S
C253   H298    1.109   .     S
C253   H299    1.110   .     S
C253   H297    1.109   .     S
C254   H302    1.083   .     S
C255   H303    1.083   .     S
C255   C258    1.397   .     A
C255   C45     1.371   1_655 S
C256   H304    1.078   .     S
C256   C258    1.389   .     A
C256   C42     1.371   1_655 S
C257   H305    1.083   .     S
N307   Zn317   2.058   .     S
N308   Zn318   2.058   .     S
O309   Zn317   1.988   .     S
O310   Zn318   1.988   .     S
O311   Zn317   1.978   .     S
O312   Zn318   1.978   .     S
O313   Zn317   2.023   .     S
O314   Zn318   2.023   .     S
O315   Zn317   2.016   .     S
O316   Zn318   2.016   .     S
C319   C320    1.409   .     S
C319   O418    1.300   .     A
C319   O415    1.299   .     A
C320   C363    1.393   .     A
C320   C360    1.395   .     A
C321   C351    1.511   .     S
C321   N414    1.381   .     A
C322   C354    1.511   .     S
C322   N413    1.381   .     A
C322   C641    1.442   .     S
C323   C356    1.518   .     S
C323   N414    1.383   .     A
C324   C358    1.516   .     S
C324   N413    1.380   .     A
C324   C639    1.440   .     S
C325   O422    1.301   .     A
C325   C331    1.431   .     S
C325   O419    1.304   .     A
C326   O421    1.304   .     A
C326   C329    1.431   .     S
C326   O420    1.301   .     A
C327   C343    1.534   .     S
C327   C329    1.410   .     A
C327   C338    1.406   .     A
C328   C345    1.536   .     S
C328   C339    1.408   .     A
C328   C331    1.412   .     A
C329   C332    1.410   .     A
C330   O417    1.293   .     A
C330   O416    1.306   .     A
C330   C364    1.410   .     S
C331   C333    1.410   .     A
C332   C334    1.405   .     A
C332   C347    1.533   .     S
C333   C335    1.404   .     A
C333   C349    1.532   .     S
C334   C336    1.418   .     A
C334   C340    1.403   .     A
C335   C342    1.403   .     A
C335   C337    1.417   .     A
C336   C338    1.418   .     A
C336   C1291   1.414   .     S
C337   C339    1.419   .     A
C337   C1290   1.414   1_554 S
C338   C352    1.403   .     A
C339   C341    1.403   .     A
C340   H365    1.079   .     S
C340   C1295   1.376   .     S
C341   H387    1.079   .     S
C341   C1294   1.376   1_554 S
C342   H376    1.079   .     S
C342   C1306   1.376   1_554 S
C343   H368    1.111   .     S
C343   C344    1.530   .     S
C343   H369    1.105   .     S
C344   H412    1.104   .     S
C344   H366    1.109   .     S
C344   H367    1.110   .     S
C345   H373    1.111   .     S
C345   H374    1.106   .     S
C345   C346    1.530   .     S
C346   H372    1.111   .     S
C346   H371    1.108   .     S
C346   H370    1.101   .     S
C347   H379    1.102   .     S
C347   C348    1.527   .     S
C347   H380    1.109   .     S
C348   H375    1.109   .     S
C348   H378    1.110   .     S
C348   H377    1.110   .     S
C349   H384    1.109   .     S
C349   H385    1.106   .     S
C349   C350    1.529   .     S
C350   H382    1.109   .     S
C350   H381    1.110   .     S
C350   H383    1.110   .     S
C351   H390    1.088   .     S
C351   H391    1.106   .     S
C351   C353    1.536   .     S
C352   H398    1.079   .     S
C352   C1296   1.376   .     S
C353   H388    1.109   .     S
C353   H389    1.110   .     S
C353   H386    1.109   .     S
C354   C355    1.533   .     S
C354   H395    1.087   .     S
C354   H396    1.105   .     S
C355   H392    1.109   .     S
C355   H393    1.110   .     S
C355   H394    1.110   .     S
C356   H401    1.084   .     S
C356   C357    1.531   .     S
C356   H402    1.106   .     S
C357   H397    1.109   .     S
C357   H399    1.111   .     S
C357   H400    1.108   .     S
C358   H407    1.105   .     S
C358   C359    1.532   .     S
C358   H406    1.084   .     S
C359   H404    1.109   .     S
C359   H405    1.110   .     S
C359   H403    1.109   .     S
C360   H408    1.083   .     S
C360   C574    1.371   1_455 S
C361   H409    1.083   .     S
C361   C364    1.397   .     A
C361   C469    1.371   .     S
C362   H410    1.078   .     S
C362   C364    1.389   .     A
C362   C466    1.371   .     S
C363   H411    1.083   .     S
C363   C573    1.371   1_455 S
N413   Zn423   2.058   .     S
N414   Zn424   2.058   .     S
O415   Zn423   1.988   .     S
O416   Zn424   1.988   .     S
O417   Zn423   1.978   .     S
O418   Zn424   1.978   .     S
O419   Zn423   2.023   .     S
O420   Zn424   2.023   .     S
O421   Zn423   2.016   .     S
O422   Zn424   2.016   .     S
C425   C426    1.409   .     S
C425   O524    1.300   .     A
C425   O521    1.299   .     A
C426   C469    1.393   .     A
C426   C466    1.395   .     A
C427   C457    1.511   .     S
C427   N520    1.381   .     A
C428   C460    1.511   .     S
C428   N519    1.381   .     A
C428   C747    1.442   .     S
C429   C462    1.518   .     S
C429   N520    1.383   .     A
C430   C464    1.516   .     S
C430   N519    1.380   .     A
C430   C745    1.440   .     S
C431   O528    1.301   .     A
C431   C437    1.431   .     S
C431   O525    1.304   .     A
C432   O527    1.304   .     A
C432   C435    1.431   .     S
C432   O526    1.301   .     A
C433   C449    1.534   .     S
C433   C435    1.410   .     A
C433   C444    1.406   .     A
C434   C451    1.536   .     S
C434   C445    1.408   .     A
C434   C437    1.412   .     A
C435   C438    1.410   .     A
C436   O523    1.293   .     A
C436   O522    1.306   .     A
C436   C470    1.410   .     S
C437   C439    1.410   .     A
C438   C440    1.405   .     A
C438   C453    1.533   .     S
C439   C441    1.404   .     A
C439   C455    1.532   .     S
C440   C442    1.418   .     A
C440   C446    1.403   .     A
C441   C448    1.403   .     A
C441   C443    1.417   .     A
C442   C444    1.418   .     A
C442   C1397   1.414   .     S
C443   C445    1.419   .     A
C443   C1396   1.414   1_554 S
C444   C458    1.403   .     A
C445   C447    1.403   .     A
C446   H471    1.079   .     S
C446   C1401   1.376   .     S
C447   H493    1.079   .     S
C447   C1400   1.376   1_554 S
C448   H482    1.079   .     S
C448   C1412   1.376   1_554 S
C449   H474    1.111   .     S
C449   C450    1.530   .     S
C449   H475    1.105   .     S
C450   H518    1.104   .     S
C450   H472    1.109   .     S
C450   H473    1.110   .     S
C451   H479    1.111   .     S
C451   H480    1.106   .     S
C451   C452    1.530   .     S
C452   H478    1.111   .     S
C452   H477    1.108   .     S
C452   H476    1.101   .     S
C453   H485    1.102   .     S
C453   C454    1.527   .     S
C453   H486    1.109   .     S
C454   H481    1.109   .     S
C454   H484    1.110   .     S
C454   H483    1.110   .     S
C455   H490    1.109   .     S
C455   H491    1.106   .     S
C455   C456    1.529   .     S
C456   H488    1.109   .     S
C456   H487    1.110   .     S
C456   H489    1.110   .     S
C457   H496    1.088   .     S
C457   H497    1.106   .     S
C457   C459    1.536   .     S
C458   H504    1.079   .     S
C458   C1402   1.376   .     S
C459   H494    1.109   .     S
C459   H495    1.110   .     S
C459   H492    1.109   .     S
C460   C461    1.533   .     S
C460   H501    1.087   .     S
C460   H502    1.105   .     S
C461   H498    1.109   .     S
C461   H499    1.110   .     S
C461   H500    1.110   .     S
C462   H507    1.084   .     S
C462   C463    1.531   .     S
C462   H508    1.106   .     S
C463   H503    1.109   .     S
C463   H505    1.111   .     S
C463   H506    1.108   .     S
C464   H513    1.105   .     S
C464   C465    1.532   .     S
C464   H512    1.084   .     S
C465   H510    1.109   .     S
C465   H511    1.110   .     S
C465   H509    1.109   .     S
C466   H514    1.083   .     S
C467   H515    1.083   .     S
C467   C470    1.397   .     A
C467   C575    1.371   .     S
C468   H516    1.078   .     S
C468   C470    1.389   .     A
C468   C572    1.371   .     S
C469   H517    1.083   .     S
N519   Zn529   2.058   .     S
N520   Zn530   2.058   .     S
O521   Zn529   1.988   .     S
O522   Zn530   1.988   .     S
O523   Zn529   1.978   .     S
O524   Zn530   1.978   .     S
O525   Zn529   2.023   .     S
O526   Zn530   2.023   .     S
O527   Zn529   2.016   .     S
O528   Zn530   2.016   .     S
C531   C532    1.409   .     S
C531   O630    1.300   .     A
C531   O627    1.299   .     A
C532   C575    1.393   .     A
C532   C572    1.395   .     A
C533   C563    1.511   .     S
C533   N626    1.381   .     A
C534   C566    1.511   .     S
C534   N625    1.381   .     A
C534   C853    1.442   .     S
C535   C568    1.518   .     S
C535   N626    1.383   .     A
C536   C570    1.516   .     S
C536   N625    1.380   .     A
C536   C851    1.440   .     S
C537   O634    1.301   .     A
C537   C543    1.431   .     S
C537   O631    1.304   .     A
C538   O633    1.304   .     A
C538   C541    1.431   .     S
C538   O632    1.301   .     A
C539   C555    1.534   .     S
C539   C541    1.410   .     A
C539   C550    1.406   .     A
C540   C557    1.536   .     S
C540   C551    1.408   .     A
C540   C543    1.412   .     A
C541   C544    1.410   .     A
C542   O629    1.293   .     A
C542   O628    1.306   .     A
C542   C576    1.410   .     S
C543   C545    1.410   .     A
C544   C546    1.405   .     A
C544   C559    1.533   .     S
C545   C547    1.404   .     A
C545   C561    1.532   .     S
C546   C548    1.418   .     A
C546   C552    1.403   .     A
C547   C554    1.403   .     A
C547   C549    1.417   .     A
C548   C550    1.418   .     A
C548   C1503   1.414   .     S
C549   C551    1.419   .     A
C549   C1502   1.414   1_554 S
C550   C564    1.403   .     A
C551   C553    1.403   .     A
C552   H577    1.079   .     S
C552   C1507   1.376   .     S
C553   H599    1.079   .     S
C553   C1506   1.376   1_554 S
C554   H588    1.079   .     S
C554   C1518   1.376   1_554 S
C555   H580    1.111   .     S
C555   C556    1.530   .     S
C555   H581    1.105   .     S
C556   H624    1.104   .     S
C556   H578    1.109   .     S
C556   H579    1.110   .     S
C557   H585    1.111   .     S
C557   H586    1.106   .     S
C557   C558    1.530   .     S
C558   H584    1.111   .     S
C558   H583    1.108   .     S
C558   H582    1.101   .     S
C559   H591    1.102   .     S
C559   C560    1.527   .     S
C559   H592    1.109   .     S
C560   H587    1.109   .     S
C560   H590    1.110   .     S
C560   H589    1.110   .     S
C561   H596    1.109   .     S
C561   H597    1.106   .     S
C561   C562    1.529   .     S
C562   H594    1.109   .     S
C562   H593    1.110   .     S
C562   H595    1.110   .     S
C563   H602    1.088   .     S
C563   H603    1.106   .     S
C563   C565    1.536   .     S
C564   H610    1.079   .     S
C564   C1508   1.376   .     S
C565   H600    1.109   .     S
C565   H601    1.110   .     S
C565   H598    1.109   .     S
C566   C567    1.533   .     S
C566   H607    1.087   .     S
C566   H608    1.105   .     S
C567   H604    1.109   .     S
C567   H605    1.110   .     S
C567   H606    1.110   .     S
C568   H613    1.084   .     S
C568   C569    1.531   .     S
C568   H614    1.106   .     S
C569   H609    1.109   .     S
C569   H611    1.111   .     S
C569   H612    1.108   .     S
C570   H619    1.105   .     S
C570   C571    1.532   .     S
C570   H618    1.084   .     S
C571   H616    1.109   .     S
C571   H617    1.110   .     S
C571   H615    1.109   .     S
C572   H620    1.083   .     S
C573   H621    1.083   .     S
C573   C576    1.397   .     A
C573   C363    1.371   1_655 S
C574   H622    1.078   .     S
C574   C576    1.389   .     A
C574   C360    1.371   1_655 S
C575   H623    1.083   .     S
N625   Zn635   2.058   .     S
N626   Zn636   2.058   .     S
O627   Zn635   1.988   .     S
O628   Zn636   1.988   .     S
O629   Zn635   1.978   .     S
O630   Zn636   1.978   .     S
O631   Zn635   2.023   .     S
O632   Zn636   2.023   .     S
O633   Zn635   2.016   .     S
O634   Zn636   2.016   .     S
C637   C638    1.409   .     S
C637   O736    1.300   .     A
C637   O733    1.299   .     A
C638   C681    1.393   .     A
C638   C678    1.395   .     A
C639   C669    1.511   .     S
C639   N732    1.381   .     A
C640   C672    1.511   .     S
C640   N731    1.381   .     A
C640   C5      1.442   1_565 S
C641   C674    1.518   .     S
C641   N732    1.383   .     A
C642   C676    1.516   .     S
C642   N731    1.380   .     A
C642   C3      1.440   1_565 S
C643   O740    1.301   .     A
C643   C649    1.431   .     S
C643   O737    1.304   .     A
C644   O739    1.304   .     A
C644   C647    1.431   .     S
C644   O738    1.301   .     A
C645   C661    1.534   .     S
C645   C647    1.410   .     A
C645   C656    1.406   .     A
C646   C663    1.536   .     S
C646   C657    1.408   .     A
C646   C649    1.412   .     A
C647   C650    1.410   .     A
C648   O735    1.293   .     A
C648   O734    1.306   .     A
C648   C682    1.410   .     S
C649   C651    1.410   .     A
C650   C652    1.405   .     A
C650   C665    1.533   .     S
C651   C653    1.404   .     A
C651   C667    1.532   .     S
C652   C654    1.418   .     A
C652   C658    1.403   .     A
C653   C660    1.403   .     A
C653   C655    1.417   .     A
C654   C656    1.418   .     A
C654   C1609   1.414   .     S
C655   C657    1.419   .     A
C655   C1608   1.414   1_554 S
C656   C670    1.403   .     A
C657   C659    1.403   .     A
C658   H683    1.079   .     S
C658   C1613   1.376   .     S
C659   H705    1.079   .     S
C659   C1612   1.376   1_554 S
C660   H694    1.079   .     S
C660   C1624   1.376   1_554 S
C661   H686    1.111   .     S
C661   C662    1.530   .     S
C661   H687    1.105   .     S
C662   H730    1.104   .     S
C662   H684    1.109   .     S
C662   H685    1.110   .     S
C663   H691    1.111   .     S
C663   H692    1.106   .     S
C663   C664    1.530   .     S
C664   H690    1.111   .     S
C664   H689    1.108   .     S
C664   H688    1.101   .     S
C665   H697    1.102   .     S
C665   C666    1.527   .     S
C665   H698    1.109   .     S
C666   H693    1.109   .     S
C666   H696    1.110   .     S
C666   H695    1.110   .     S
C667   H702    1.109   .     S
C667   H703    1.106   .     S
C667   C668    1.529   .     S
C668   H700    1.109   .     S
C668   H699    1.110   .     S
C668   H701    1.110   .     S
C669   H708    1.088   .     S
C669   H709    1.106   .     S
C669   C671    1.536   .     S
C670   H716    1.079   .     S
C670   C1614   1.376   .     S
C671   H706    1.109   .     S
C671   H707    1.110   .     S
C671   H704    1.109   .     S
C672   C673    1.533   .     S
C672   H713    1.087   .     S
C672   H714    1.105   .     S
C673   H710    1.109   .     S
C673   H711    1.110   .     S
C673   H712    1.110   .     S
C674   H719    1.084   .     S
C674   C675    1.531   .     S
C674   H720    1.106   .     S
C675   H715    1.109   .     S
C675   H717    1.111   .     S
C675   H718    1.108   .     S
C676   H725    1.105   .     S
C676   C677    1.532   .     S
C676   H724    1.084   .     S
C677   H722    1.109   .     S
C677   H723    1.110   .     S
C677   H721    1.109   .     S
C678   H726    1.083   .     S
C678   C892    1.371   1_455 S
C679   H727    1.083   .     S
C679   C682    1.397   .     A
C679   C787    1.371   .     S
C680   H728    1.078   .     S
C680   C682    1.389   .     A
C680   C784    1.371   .     S
C681   H729    1.083   .     S
C681   C891    1.371   1_455 S
N731   Zn741   2.058   .     S
N732   Zn742   2.058   .     S
O733   Zn741   1.988   .     S
O734   Zn742   1.988   .     S
O735   Zn741   1.978   .     S
O736   Zn742   1.978   .     S
O737   Zn741   2.023   .     S
O738   Zn742   2.023   .     S
O739   Zn741   2.016   .     S
O740   Zn742   2.016   .     S
C743   C744    1.409   .     S
C743   O842    1.300   .     A
C743   O839    1.299   .     A
C744   C787    1.393   .     A
C744   C784    1.395   .     A
C745   C775    1.511   .     S
C745   N838    1.381   .     A
C746   C778    1.511   .     S
C746   N837    1.381   .     A
C746   C111    1.442   1_565 S
C747   C780    1.518   .     S
C747   N838    1.383   .     A
C748   C782    1.516   .     S
C748   N837    1.380   .     A
C748   C109    1.440   1_565 S
C749   O846    1.301   .     A
C749   C755    1.431   .     S
C749   O843    1.304   .     A
C750   O845    1.304   .     A
C750   C753    1.431   .     S
C750   O844    1.301   .     A
C751   C767    1.534   .     S
C751   C753    1.410   .     A
C751   C762    1.406   .     A
C752   C769    1.536   .     S
C752   C763    1.408   .     A
C752   C755    1.412   .     A
C753   C756    1.410   .     A
C754   O841    1.293   .     A
C754   O840    1.306   .     A
C754   C788    1.410   .     S
C755   C757    1.410   .     A
C756   C758    1.405   .     A
C756   C771    1.533   .     S
C757   C759    1.404   .     A
C757   C773    1.532   .     S
C758   C760    1.418   .     A
C758   C764    1.403   .     A
C759   C766    1.403   .     A
C759   C761    1.417   .     A
C760   C762    1.418   .     A
C760   C1715   1.414   .     S
C761   C763    1.419   .     A
C761   C1714   1.414   1_554 S
C762   C776    1.403   .     A
C763   C765    1.403   .     A
C764   H789    1.079   .     S
C764   C1719   1.376   .     S
C765   H811    1.079   .     S
C765   C1718   1.376   1_554 S
C766   H800    1.079   .     S
C766   C1730   1.376   1_554 S
C767   H792    1.111   .     S
C767   C768    1.530   .     S
C767   H793    1.105   .     S
C768   H836    1.104   .     S
C768   H790    1.109   .     S
C768   H791    1.110   .     S
C769   H797    1.111   .     S
C769   H798    1.106   .     S
C769   C770    1.530   .     S
C770   H796    1.111   .     S
C770   H795    1.108   .     S
C770   H794    1.101   .     S
C771   H803    1.102   .     S
C771   C772    1.527   .     S
C771   H804    1.109   .     S
C772   H799    1.109   .     S
C772   H802    1.110   .     S
C772   H801    1.110   .     S
C773   H808    1.109   .     S
C773   H809    1.106   .     S
C773   C774    1.529   .     S
C774   H806    1.109   .     S
C774   H805    1.110   .     S
C774   H807    1.110   .     S
C775   H814    1.088   .     S
C775   H815    1.106   .     S
C775   C777    1.536   .     S
C776   H822    1.079   .     S
C776   C1720   1.376   .     S
C777   H812    1.109   .     S
C777   H813    1.110   .     S
C777   H810    1.109   .     S
C778   C779    1.533   .     S
C778   H819    1.087   .     S
C778   H820    1.105   .     S
C779   H816    1.109   .     S
C779   H817    1.110   .     S
C779   H818    1.110   .     S
C780   H825    1.084   .     S
C780   C781    1.531   .     S
C780   H826    1.106   .     S
C781   H821    1.109   .     S
C781   H823    1.111   .     S
C781   H824    1.108   .     S
C782   H831    1.105   .     S
C782   C783    1.532   .     S
C782   H830    1.084   .     S
C783   H828    1.109   .     S
C783   H829    1.110   .     S
C783   H827    1.109   .     S
C784   H832    1.083   .     S
C785   H833    1.083   .     S
C785   C788    1.397   .     A
C785   C893    1.371   .     S
C786   H834    1.078   .     S
C786   C788    1.389   .     A
C786   C890    1.371   .     S
C787   H835    1.083   .     S
N837   Zn847   2.058   .     S
N838   Zn848   2.058   .     S
O839   Zn847   1.988   .     S
O840   Zn848   1.988   .     S
O841   Zn847   1.978   .     S
O842   Zn848   1.978   .     S
O843   Zn847   2.023   .     S
O844   Zn848   2.023   .     S
O845   Zn847   2.016   .     S
O846   Zn848   2.016   .     S
C849   C850    1.409   .     S
C849   O948    1.300   .     A
C849   O945    1.299   .     A
C850   C893    1.393   .     A
C850   C890    1.395   .     A
C851   C881    1.511   .     S
C851   N944    1.381   .     A
C852   C884    1.511   .     S
C852   N943    1.381   .     A
C852   C217    1.442   1_565 S
C853   C886    1.518   .     S
C853   N944    1.383   .     A
C854   C888    1.516   .     S
C854   N943    1.380   .     A
C854   C215    1.440   1_565 S
C855   O952    1.301   .     A
C855   C861    1.431   .     S
C855   O949    1.304   .     A
C856   O951    1.304   .     A
C856   C859    1.431   .     S
C856   O950    1.301   .     A
C857   C873    1.534   .     S
C857   C859    1.410   .     A
C857   C868    1.406   .     A
C858   C875    1.536   .     S
C858   C869    1.408   .     A
C858   C861    1.412   .     A
C859   C862    1.410   .     A
C860   O947    1.293   .     A
C860   O946    1.306   .     A
C860   C894    1.410   .     S
C861   C863    1.410   .     A
C862   C864    1.405   .     A
C862   C877    1.533   .     S
C863   C865    1.404   .     A
C863   C879    1.532   .     S
C864   C866    1.418   .     A
C864   C870    1.403   .     A
C865   C872    1.403   .     A
C865   C867    1.417   .     A
C866   C868    1.418   .     A
C866   C1821   1.414   .     S
C867   C869    1.419   .     A
C867   C1820   1.414   1_554 S
C868   C882    1.403   .     A
C869   C871    1.403   .     A
C870   H895    1.079   .     S
C870   C1825   1.376   .     S
C871   H917    1.079   .     S
C871   C1824   1.376   1_554 S
C872   H906    1.079   .     S
C872   C1836   1.376   1_554 S
C873   H898    1.111   .     S
C873   C874    1.530   .     S
C873   H899    1.105   .     S
C874   H942    1.104   .     S
C874   H896    1.109   .     S
C874   H897    1.110   .     S
C875   H903    1.111   .     S
C875   H904    1.106   .     S
C875   C876    1.530   .     S
C876   H902    1.111   .     S
C876   H901    1.108   .     S
C876   H900    1.101   .     S
C877   H909    1.102   .     S
C877   C878    1.527   .     S
C877   H910    1.109   .     S
C878   H905    1.109   .     S
C878   H908    1.110   .     S
C878   H907    1.110   .     S
C879   H914    1.109   .     S
C879   H915    1.106   .     S
C879   C880    1.529   .     S
C880   H912    1.109   .     S
C880   H911    1.110   .     S
C880   H913    1.110   .     S
C881   H920    1.088   .     S
C881   H921    1.106   .     S
C881   C883    1.536   .     S
C882   H928    1.079   .     S
C882   C1826   1.376   .     S
C883   H918    1.109   .     S
C883   H919    1.110   .     S
C883   H916    1.109   .     S
C884   C885    1.533   .     S
C884   H925    1.087   .     S
C884   H926    1.105   .     S
C885   H922    1.109   .     S
C885   H923    1.110   .     S
C885   H924    1.110   .     S
C886   H931    1.084   .     S
C886   C887    1.531   .     S
C886   H932    1.106   .     S
C887   H927    1.109   .     S
C887   H929    1.111   .     S
C887   H930    1.108   .     S
C888   H937    1.105   .     S
C888   C889    1.532   .     S
C888   H936    1.084   .     S
C889   H934    1.109   .     S
C889   H935    1.110   .     S
C889   H933    1.109   .     S
C890   H938    1.083   .     S
C891   H939    1.083   .     S
C891   C894    1.397   .     A
C891   C681    1.371   1_655 S
C892   H940    1.078   .     S
C892   C894    1.389   .     A
C892   C678    1.371   1_655 S
C893   H941    1.083   .     S
N943   Zn953   2.058   .     S
N944   Zn954   2.058   .     S
O945   Zn953   1.988   .     S
O946   Zn954   1.988   .     S
O947   Zn953   1.978   .     S
O948   Zn954   1.978   .     S
O949   Zn953   2.023   .     S
O950   Zn954   2.023   .     S
O951   Zn953   2.016   .     S
O952   Zn954   2.016   .     S
C955   C956    1.409   .     S
C955   O1054   1.300   .     A
C955   O1051   1.299   .     A
C956   C999    1.393   .     A
C956   C996    1.395   .     A
C957   C987    1.511   .     S
C957   N1050   1.381   .     A
C957   C1596   1.440   1_545 S
C958   C990    1.511   .     S
C958   N1049   1.381   .     A
C958   C1277   1.442   .     S
C959   C992    1.518   .     S
C959   N1050   1.383   .     A
C959   C1594   1.442   1_545 S
C960   C994    1.516   .     S
C960   N1049   1.380   .     A
C960   C1275   1.440   .     S
C961   O1058   1.301   .     A
C961   C967    1.431   .     S
C961   O1055   1.304   .     A
C962   O1057   1.304   .     A
C962   C965    1.431   .     S
C962   O1056   1.301   .     A
C963   C979    1.534   .     S
C963   C965    1.410   .     A
C963   C974    1.406   .     A
C964   C981    1.536   .     S
C964   C975    1.408   .     A
C964   C967    1.412   .     A
C965   C968    1.410   .     A
C966   O1053   1.293   .     A
C966   O1052   1.306   .     A
C966   C1000   1.410   .     S
C967   C969    1.410   .     A
C968   C970    1.405   .     A
C968   C983    1.533   .     S
C969   C971    1.404   .     A
C969   C985    1.532   .     S
C970   C972    1.418   .     A
C970   C976    1.403   .     A
C971   C978    1.403   .     A
C971   C973    1.417   .     A
C972   C974    1.418   .     A
C972   C19     1.414   1_556 S
C973   C975    1.419   .     A
C974   C988    1.403   .     A
C975   C977    1.403   .     A
C976   H1001   1.079   .     S
C976   C23     1.376   1_556 S
C977   H1023   1.079   .     S
C978   H1012   1.079   .     S
C979   H1004   1.111   .     S
C979   C980    1.530   .     S
C979   H1005   1.105   .     S
C980   H1048   1.104   .     S
C980   H1002   1.109   .     S
C980   H1003   1.110   .     S
C981   H1009   1.111   .     S
C981   H1010   1.106   .     S
C981   C982    1.530   .     S
C982   H1008   1.111   .     S
C982   H1007   1.108   .     S
C982   H1006   1.101   .     S
C983   H1015   1.102   .     S
C983   C984    1.527   .     S
C983   H1016   1.109   .     S
C984   H1011   1.109   .     S
C984   H1014   1.110   .     S
C984   H1013   1.110   .     S
C985   H1020   1.109   .     S
C985   H1021   1.106   .     S
C985   C986    1.529   .     S
C986   H1018   1.109   .     S
C986   H1017   1.110   .     S
C986   H1019   1.110   .     S
C987   H1026   1.088   .     S
C987   H1027   1.106   .     S
C987   C989    1.536   .     S
C988   H1034   1.079   .     S
C988   C24     1.376   1_556 S
C989   H1024   1.109   .     S
C989   H1025   1.110   .     S
C989   H1022   1.109   .     S
C990   C991    1.533   .     S
C990   H1031   1.087   .     S
C990   H1032   1.105   .     S
C991   H1028   1.109   .     S
C991   H1029   1.110   .     S
C991   H1030   1.110   .     S
C992   H1037   1.084   .     S
C992   C993    1.531   .     S
C992   H1038   1.106   .     S
C993   H1033   1.109   .     S
C993   H1035   1.111   .     S
C993   H1036   1.108   .     S
C994   H1043   1.105   .     S
C994   C995    1.532   .     S
C994   H1042   1.084   .     S
C995   H1040   1.109   .     S
C995   H1041   1.110   .     S
C995   H1039   1.109   .     S
C996   H1044   1.083   .     S
C996   C1210   1.371   1_455 S
C997   H1045   1.083   .     S
C997   C1000   1.397   .     A
C997   C1105   1.371   .     S
C998   H1046   1.078   .     S
C998   C1000   1.389   .     A
C998   C1102   1.371   .     S
C999   H1047   1.083   .     S
C999   C1209   1.371   1_455 S
N1049  Zn1059  2.058   .     S
N1050  Zn1060  2.058   .     S
O1051  Zn1059  1.988   .     S
O1052  Zn1060  1.988   .     S
O1053  Zn1059  1.978   .     S
O1054  Zn1060  1.978   .     S
O1055  Zn1059  2.023   .     S
O1056  Zn1060  2.023   .     S
O1057  Zn1059  2.016   .     S
O1058  Zn1060  2.016   .     S
C1061  C1062   1.409   .     S
C1061  O1160   1.300   .     A
C1061  O1157   1.299   .     A
C1062  C1105   1.393   .     A
C1062  C1102   1.395   .     A
C1063  C1093   1.511   .     S
C1063  N1156   1.381   .     A
C1063  C1702   1.440   1_545 S
C1064  C1096   1.511   .     S
C1064  N1155   1.381   .     A
C1064  C1383   1.442   .     S
C1065  C1098   1.518   .     S
C1065  N1156   1.383   .     A
C1065  C1700   1.442   1_545 S
C1066  C1100   1.516   .     S
C1066  N1155   1.380   .     A
C1066  C1381   1.440   .     S
C1067  O1164   1.301   .     A
C1067  C1073   1.431   .     S
C1067  O1161   1.304   .     A
C1068  O1163   1.304   .     A
C1068  C1071   1.431   .     S
C1068  O1162   1.301   .     A
C1069  C1085   1.534   .     S
C1069  C1071   1.410   .     A
C1069  C1080   1.406   .     A
C1070  C1087   1.536   .     S
C1070  C1081   1.408   .     A
C1070  C1073   1.412   .     A
C1071  C1074   1.410   .     A
C1072  O1159   1.293   .     A
C1072  O1158   1.306   .     A
C1072  C1106   1.410   .     S
C1073  C1075   1.410   .     A
C1074  C1076   1.405   .     A
C1074  C1089   1.533   .     S
C1075  C1077   1.404   .     A
C1075  C1091   1.532   .     S
C1076  C1078   1.418   .     A
C1076  C1082   1.403   .     A
C1077  C1084   1.403   .     A
C1077  C1079   1.417   .     A
C1078  C1080   1.418   .     A
C1078  C125    1.414   1_556 S
C1079  C1081   1.419   .     A
C1080  C1094   1.403   .     A
C1081  C1083   1.403   .     A
C1082  H1107   1.079   .     S
C1082  C129    1.376   1_556 S
C1083  H1129   1.079   .     S
C1084  H1118   1.079   .     S
C1085  H1110   1.111   .     S
C1085  C1086   1.530   .     S
C1085  H1111   1.105   .     S
C1086  H1154   1.104   .     S
C1086  H1108   1.109   .     S
C1086  H1109   1.110   .     S
C1087  H1115   1.111   .     S
C1087  H1116   1.106   .     S
C1087  C1088   1.530   .     S
C1088  H1114   1.111   .     S
C1088  H1113   1.108   .     S
C1088  H1112   1.101   .     S
C1089  H1121   1.102   .     S
C1089  C1090   1.527   .     S
C1089  H1122   1.109   .     S
C1090  H1117   1.109   .     S
C1090  H1120   1.110   .     S
C1090  H1119   1.110   .     S
C1091  H1126   1.109   .     S
C1091  H1127   1.106   .     S
C1091  C1092   1.529   .     S
C1092  H1124   1.109   .     S
C1092  H1123   1.110   .     S
C1092  H1125   1.110   .     S
C1093  H1132   1.088   .     S
C1093  H1133   1.106   .     S
C1093  C1095   1.536   .     S
C1094  H1140   1.079   .     S
C1094  C130    1.376   1_556 S
C1095  H1130   1.109   .     S
C1095  H1131   1.110   .     S
C1095  H1128   1.109   .     S
C1096  C1097   1.533   .     S
C1096  H1137   1.087   .     S
C1096  H1138   1.105   .     S
C1097  H1134   1.109   .     S
C1097  H1135   1.110   .     S
C1097  H1136   1.110   .     S
C1098  H1143   1.084   .     S
C1098  C1099   1.531   .     S
C1098  H1144   1.106   .     S
C1099  H1139   1.109   .     S
C1099  H1141   1.111   .     S
C1099  H1142   1.108   .     S
C1100  H1149   1.105   .     S
C1100  C1101   1.532   .     S
C1100  H1148   1.084   .     S
C1101  H1146   1.109   .     S
C1101  H1147   1.110   .     S
C1101  H1145   1.109   .     S
C1102  H1150   1.083   .     S
C1103  H1151   1.083   .     S
C1103  C1106   1.397   .     A
C1103  C1211   1.371   .     S
C1104  H1152   1.078   .     S
C1104  C1106   1.389   .     A
C1104  C1208   1.371   .     S
C1105  H1153   1.083   .     S
N1155  Zn1165  2.058   .     S
N1156  Zn1166  2.058   .     S
O1157  Zn1165  1.988   .     S
O1158  Zn1166  1.988   .     S
O1159  Zn1165  1.978   .     S
O1160  Zn1166  1.978   .     S
O1161  Zn1165  2.023   .     S
O1162  Zn1166  2.023   .     S
O1163  Zn1165  2.016   .     S
O1164  Zn1166  2.016   .     S
C1167  C1168   1.409   .     S
C1167  O1266   1.300   .     A
C1167  O1263   1.299   .     A
C1168  C1211   1.393   .     A
C1168  C1208   1.395   .     A
C1169  C1199   1.511   .     S
C1169  N1262   1.381   .     A
C1169  C1808   1.440   1_545 S
C1170  C1202   1.511   .     S
C1170  N1261   1.381   .     A
C1170  C1489   1.442   .     S
C1171  C1204   1.518   .     S
C1171  N1262   1.383   .     A
C1171  C1806   1.442   1_545 S
C1172  C1206   1.516   .     S
C1172  N1261   1.380   .     A
C1172  C1487   1.440   .     S
C1173  O1270   1.301   .     A
C1173  C1179   1.431   .     S
C1173  O1267   1.304   .     A
C1174  O1269   1.304   .     A
C1174  C1177   1.431   .     S
C1174  O1268   1.301   .     A
C1175  C1191   1.534   .     S
C1175  C1177   1.410   .     A
C1175  C1186   1.406   .     A
C1176  C1193   1.536   .     S
C1176  C1187   1.408   .     A
C1176  C1179   1.412   .     A
C1177  C1180   1.410   .     A
C1178  O1265   1.293   .     A
C1178  O1264   1.306   .     A
C1178  C1212   1.410   .     S
C1179  C1181   1.410   .     A
C1180  C1182   1.405   .     A
C1180  C1195   1.533   .     S
C1181  C1183   1.404   .     A
C1181  C1197   1.532   .     S
C1182  C1184   1.418   .     A
C1182  C1188   1.403   .     A
C1183  C1190   1.403   .     A
C1183  C1185   1.417   .     A
C1184  C1186   1.418   .     A
C1184  C231    1.414   1_556 S
C1185  C1187   1.419   .     A
C1186  C1200   1.403   .     A
C1187  C1189   1.403   .     A
C1188  H1213   1.079   .     S
C1188  C235    1.376   1_556 S
C1189  H1235   1.079   .     S
C1190  H1224   1.079   .     S
C1191  H1216   1.111   .     S
C1191  C1192   1.530   .     S
C1191  H1217   1.105   .     S
C1192  H1260   1.104   .     S
C1192  H1214   1.109   .     S
C1192  H1215   1.110   .     S
C1193  H1221   1.111   .     S
C1193  H1222   1.106   .     S
C1193  C1194   1.530   .     S
C1194  H1220   1.111   .     S
C1194  H1219   1.108   .     S
C1194  H1218   1.101   .     S
C1195  H1227   1.102   .     S
C1195  C1196   1.527   .     S
C1195  H1228   1.109   .     S
C1196  H1223   1.109   .     S
C1196  H1226   1.110   .     S
C1196  H1225   1.110   .     S
C1197  H1232   1.109   .     S
C1197  H1233   1.106   .     S
C1197  C1198   1.529   .     S
C1198  H1230   1.109   .     S
C1198  H1229   1.110   .     S
C1198  H1231   1.110   .     S
C1199  H1238   1.088   .     S
C1199  H1239   1.106   .     S
C1199  C1201   1.536   .     S
C1200  H1246   1.079   .     S
C1200  C236    1.376   1_556 S
C1201  H1236   1.109   .     S
C1201  H1237   1.110   .     S
C1201  H1234   1.109   .     S
C1202  C1203   1.533   .     S
C1202  H1243   1.087   .     S
C1202  H1244   1.105   .     S
C1203  H1240   1.109   .     S
C1203  H1241   1.110   .     S
C1203  H1242   1.110   .     S
C1204  H1249   1.084   .     S
C1204  C1205   1.531   .     S
C1204  H1250   1.106   .     S
C1205  H1245   1.109   .     S
C1205  H1247   1.111   .     S
C1205  H1248   1.108   .     S
C1206  H1255   1.105   .     S
C1206  C1207   1.532   .     S
C1206  H1254   1.084   .     S
C1207  H1252   1.109   .     S
C1207  H1253   1.110   .     S
C1207  H1251   1.109   .     S
C1208  H1256   1.083   .     S
C1209  H1257   1.083   .     S
C1209  C1212   1.397   .     A
C1209  C999    1.371   1_655 S
C1210  H1258   1.078   .     S
C1210  C1212   1.389   .     A
C1210  C996    1.371   1_655 S
C1211  H1259   1.083   .     S
N1261  Zn1271  2.058   .     S
N1262  Zn1272  2.058   .     S
O1263  Zn1271  1.988   .     S
O1264  Zn1272  1.988   .     S
O1265  Zn1271  1.978   .     S
O1266  Zn1272  1.978   .     S
O1267  Zn1271  2.023   .     S
O1268  Zn1272  2.023   .     S
O1269  Zn1271  2.016   .     S
O1270  Zn1272  2.016   .     S
C1273  C1274   1.409   .     S
C1273  O1372   1.300   .     A
C1273  O1369   1.299   .     A
C1274  C1317   1.393   .     A
C1274  C1314   1.395   .     A
C1275  C1305   1.511   .     S
C1275  N1368   1.381   .     A
C1276  C1308   1.511   .     S
C1276  N1367   1.381   .     A
C1276  C1595   1.442   .     S
C1277  C1310   1.518   .     S
C1277  N1368   1.383   .     A
C1278  C1312   1.516   .     S
C1278  N1367   1.380   .     A
C1278  C1593   1.440   .     S
C1279  O1376   1.301   .     A
C1279  C1285   1.431   .     S
C1279  O1373   1.304   .     A
C1280  O1375   1.304   .     A
C1280  C1283   1.431   .     S
C1280  O1374   1.301   .     A
C1281  C1297   1.534   .     S
C1281  C1283   1.410   .     A
C1281  C1292   1.406   .     A
C1282  C1299   1.536   .     S
C1282  C1293   1.408   .     A
C1282  C1285   1.412   .     A
C1283  C1286   1.410   .     A
C1284  O1371   1.293   .     A
C1284  O1370   1.306   .     A
C1284  C1318   1.410   .     S
C1285  C1287   1.410   .     A
C1286  C1288   1.405   .     A
C1286  C1301   1.533   .     S
C1287  C1289   1.404   .     A
C1287  C1303   1.532   .     S
C1288  C1290   1.418   .     A
C1288  C1294   1.403   .     A
C1289  C1296   1.403   .     A
C1289  C1291   1.417   .     A
C1290  C1292   1.418   .     A
C1290  C337    1.414   1_556 S
C1291  C1293   1.419   .     A
C1292  C1306   1.403   .     A
C1293  C1295   1.403   .     A
C1294  H1319   1.079   .     S
C1294  C341    1.376   1_556 S
C1295  H1341   1.079   .     S
C1296  H1330   1.079   .     S
C1297  H1322   1.111   .     S
C1297  C1298   1.530   .     S
C1297  H1323   1.105   .     S
C1298  H1366   1.104   .     S
C1298  H1320   1.109   .     S
C1298  H1321   1.110   .     S
C1299  H1327   1.111   .     S
C1299  H1328   1.106   .     S
C1299  C1300   1.530   .     S
C1300  H1326   1.111   .     S
C1300  H1325   1.108   .     S
C1300  H1324   1.101   .     S
C1301  H1333   1.102   .     S
C1301  C1302   1.527   .     S
C1301  H1334   1.109   .     S
C1302  H1329   1.109   .     S
C1302  H1332   1.110   .     S
C1302  H1331   1.110   .     S
C1303  H1338   1.109   .     S
C1303  H1339   1.106   .     S
C1303  C1304   1.529   .     S
C1304  H1336   1.109   .     S
C1304  H1335   1.110   .     S
C1304  H1337   1.110   .     S
C1305  H1344   1.088   .     S
C1305  H1345   1.106   .     S
C1305  C1307   1.536   .     S
C1306  H1352   1.079   .     S
C1306  C342    1.376   1_556 S
C1307  H1342   1.109   .     S
C1307  H1343   1.110   .     S
C1307  H1340   1.109   .     S
C1308  C1309   1.533   .     S
C1308  H1349   1.087   .     S
C1308  H1350   1.105   .     S
C1309  H1346   1.109   .     S
C1309  H1347   1.110   .     S
C1309  H1348   1.110   .     S
C1310  H1355   1.084   .     S
C1310  C1311   1.531   .     S
C1310  H1356   1.106   .     S
C1311  H1351   1.109   .     S
C1311  H1353   1.111   .     S
C1311  H1354   1.108   .     S
C1312  H1361   1.105   .     S
C1312  C1313   1.532   .     S
C1312  H1360   1.084   .     S
C1313  H1358   1.109   .     S
C1313  H1359   1.110   .     S
C1313  H1357   1.109   .     S
C1314  H1362   1.083   .     S
C1314  C1528   1.371   1_455 S
C1315  H1363   1.083   .     S
C1315  C1318   1.397   .     A
C1315  C1423   1.371   .     S
C1316  H1364   1.078   .     S
C1316  C1318   1.389   .     A
C1316  C1420   1.371   .     S
C1317  H1365   1.083   .     S
C1317  C1527   1.371   1_455 S
N1367  Zn1377  2.058   .     S
N1368  Zn1378  2.058   .     S
O1369  Zn1377  1.988   .     S
O1370  Zn1378  1.988   .     S
O1371  Zn1377  1.978   .     S
O1372  Zn1378  1.978   .     S
O1373  Zn1377  2.023   .     S
O1374  Zn1378  2.023   .     S
O1375  Zn1377  2.016   .     S
O1376  Zn1378  2.016   .     S
C1379  C1380   1.409   .     S
C1379  O1478   1.300   .     A
C1379  O1475   1.299   .     A
C1380  C1423   1.393   .     A
C1380  C1420   1.395   .     A
C1381  C1411   1.511   .     S
C1381  N1474   1.381   .     A
C1382  C1414   1.511   .     S
C1382  N1473   1.381   .     A
C1382  C1701   1.442   .     S
C1383  C1416   1.518   .     S
C1383  N1474   1.383   .     A
C1384  C1418   1.516   .     S
C1384  N1473   1.380   .     A
C1384  C1699   1.440   .     S
C1385  O1482   1.301   .     A
C1385  C1391   1.431   .     S
C1385  O1479   1.304   .     A
C1386  O1481   1.304   .     A
C1386  C1389   1.431   .     S
C1386  O1480   1.301   .     A
C1387  C1403   1.534   .     S
C1387  C1389   1.410   .     A
C1387  C1398   1.406   .     A
C1388  C1405   1.536   .     S
C1388  C1399   1.408   .     A
C1388  C1391   1.412   .     A
C1389  C1392   1.410   .     A
C1390  O1477   1.293   .     A
C1390  O1476   1.306   .     A
C1390  C1424   1.410   .     S
C1391  C1393   1.410   .     A
C1392  C1394   1.405   .     A
C1392  C1407   1.533   .     S
C1393  C1395   1.404   .     A
C1393  C1409   1.532   .     S
C1394  C1396   1.418   .     A
C1394  C1400   1.403   .     A
C1395  C1402   1.403   .     A
C1395  C1397   1.417   .     A
C1396  C1398   1.418   .     A
C1396  C443    1.414   1_556 S
C1397  C1399   1.419   .     A
C1398  C1412   1.403   .     A
C1399  C1401   1.403   .     A
C1400  H1425   1.079   .     S
C1400  C447    1.376   1_556 S
C1401  H1447   1.079   .     S
C1402  H1436   1.079   .     S
C1403  H1428   1.111   .     S
C1403  C1404   1.530   .     S
C1403  H1429   1.105   .     S
C1404  H1472   1.104   .     S
C1404  H1426   1.109   .     S
C1404  H1427   1.110   .     S
C1405  H1433   1.111   .     S
C1405  H1434   1.106   .     S
C1405  C1406   1.530   .     S
C1406  H1432   1.111   .     S
C1406  H1431   1.108   .     S
C1406  H1430   1.101   .     S
C1407  H1439   1.102   .     S
C1407  C1408   1.527   .     S
C1407  H1440   1.109   .     S
C1408  H1435   1.109   .     S
C1408  H1438   1.110   .     S
C1408  H1437   1.110   .     S
C1409  H1444   1.109   .     S
C1409  H1445   1.106   .     S
C1409  C1410   1.529   .     S
C1410  H1442   1.109   .     S
C1410  H1441   1.110   .     S
C1410  H1443   1.110   .     S
C1411  H1450   1.088   .     S
C1411  H1451   1.106   .     S
C1411  C1413   1.536   .     S
C1412  H1458   1.079   .     S
C1412  C448    1.376   1_556 S
C1413  H1448   1.109   .     S
C1413  H1449   1.110   .     S
C1413  H1446   1.109   .     S
C1414  C1415   1.533   .     S
C1414  H1455   1.087   .     S
C1414  H1456   1.105   .     S
C1415  H1452   1.109   .     S
C1415  H1453   1.110   .     S
C1415  H1454   1.110   .     S
C1416  H1461   1.084   .     S
C1416  C1417   1.531   .     S
C1416  H1462   1.106   .     S
C1417  H1457   1.109   .     S
C1417  H1459   1.111   .     S
C1417  H1460   1.108   .     S
C1418  H1467   1.105   .     S
C1418  C1419   1.532   .     S
C1418  H1466   1.084   .     S
C1419  H1464   1.109   .     S
C1419  H1465   1.110   .     S
C1419  H1463   1.109   .     S
C1420  H1468   1.083   .     S
C1421  H1469   1.083   .     S
C1421  C1424   1.397   .     A
C1421  C1529   1.371   .     S
C1422  H1470   1.078   .     S
C1422  C1424   1.389   .     A
C1422  C1526   1.371   .     S
C1423  H1471   1.083   .     S
N1473  Zn1483  2.058   .     S
N1474  Zn1484  2.058   .     S
O1475  Zn1483  1.988   .     S
O1476  Zn1484  1.988   .     S
O1477  Zn1483  1.978   .     S
O1478  Zn1484  1.978   .     S
O1479  Zn1483  2.023   .     S
O1480  Zn1484  2.023   .     S
O1481  Zn1483  2.016   .     S
O1482  Zn1484  2.016   .     S
C1485  C1486   1.409   .     S
C1485  O1584   1.300   .     A
C1485  O1581   1.299   .     A
C1486  C1529   1.393   .     A
C1486  C1526   1.395   .     A
C1487  C1517   1.511   .     S
C1487  N1580   1.381   .     A
C1488  C1520   1.511   .     S
C1488  N1579   1.381   .     A
C1488  C1807   1.442   .     S
C1489  C1522   1.518   .     S
C1489  N1580   1.383   .     A
C1490  C1524   1.516   .     S
C1490  N1579   1.380   .     A
C1490  C1805   1.440   .     S
C1491  O1588   1.301   .     A
C1491  C1497   1.431   .     S
C1491  O1585   1.304   .     A
C1492  O1587   1.304   .     A
C1492  C1495   1.431   .     S
C1492  O1586   1.301   .     A
C1493  C1509   1.534   .     S
C1493  C1495   1.410   .     A
C1493  C1504   1.406   .     A
C1494  C1511   1.536   .     S
C1494  C1505   1.408   .     A
C1494  C1497   1.412   .     A
C1495  C1498   1.410   .     A
C1496  O1583   1.293   .     A
C1496  O1582   1.306   .     A
C1496  C1530   1.410   .     S
C1497  C1499   1.410   .     A
C1498  C1500   1.405   .     A
C1498  C1513   1.533   .     S
C1499  C1501   1.404   .     A
C1499  C1515   1.532   .     S
C1500  C1502   1.418   .     A
C1500  C1506   1.403   .     A
C1501  C1508   1.403   .     A
C1501  C1503   1.417   .     A
C1502  C1504   1.418   .     A
C1502  C549    1.414   1_556 S
C1503  C1505   1.419   .     A
C1504  C1518   1.403   .     A
C1505  C1507   1.403   .     A
C1506  H1531   1.079   .     S
C1506  C553    1.376   1_556 S
C1507  H1553   1.079   .     S
C1508  H1542   1.079   .     S
C1509  H1534   1.111   .     S
C1509  C1510   1.530   .     S
C1509  H1535   1.105   .     S
C1510  H1578   1.104   .     S
C1510  H1532   1.109   .     S
C1510  H1533   1.110   .     S
C1511  H1539   1.111   .     S
C1511  H1540   1.106   .     S
C1511  C1512   1.530   .     S
C1512  H1538   1.111   .     S
C1512  H1537   1.108   .     S
C1512  H1536   1.101   .     S
C1513  H1545   1.102   .     S
C1513  C1514   1.527   .     S
C1513  H1546   1.109   .     S
C1514  H1541   1.109   .     S
C1514  H1544   1.110   .     S
C1514  H1543   1.110   .     S
C1515  H1550   1.109   .     S
C1515  H1551   1.106   .     S
C1515  C1516   1.529   .     S
C1516  H1548   1.109   .     S
C1516  H1547   1.110   .     S
C1516  H1549   1.110   .     S
C1517  H1556   1.088   .     S
C1517  H1557   1.106   .     S
C1517  C1519   1.536   .     S
C1518  H1564   1.079   .     S
C1518  C554    1.376   1_556 S
C1519  H1554   1.109   .     S
C1519  H1555   1.110   .     S
C1519  H1552   1.109   .     S
C1520  C1521   1.533   .     S
C1520  H1561   1.087   .     S
C1520  H1562   1.105   .     S
C1521  H1558   1.109   .     S
C1521  H1559   1.110   .     S
C1521  H1560   1.110   .     S
C1522  H1567   1.084   .     S
C1522  C1523   1.531   .     S
C1522  H1568   1.106   .     S
C1523  H1563   1.109   .     S
C1523  H1565   1.111   .     S
C1523  H1566   1.108   .     S
C1524  H1573   1.105   .     S
C1524  C1525   1.532   .     S
C1524  H1572   1.084   .     S
C1525  H1570   1.109   .     S
C1525  H1571   1.110   .     S
C1525  H1569   1.109   .     S
C1526  H1574   1.083   .     S
C1527  H1575   1.083   .     S
C1527  C1530   1.397   .     A
C1527  C1317   1.371   1_655 S
C1528  H1576   1.078   .     S
C1528  C1530   1.389   .     A
C1528  C1314   1.371   1_655 S
C1529  H1577   1.083   .     S
N1579  Zn1589  2.058   .     S
N1580  Zn1590  2.058   .     S
O1581  Zn1589  1.988   .     S
O1582  Zn1590  1.988   .     S
O1583  Zn1589  1.978   .     S
O1584  Zn1590  1.978   .     S
O1585  Zn1589  2.023   .     S
O1586  Zn1590  2.023   .     S
O1587  Zn1589  2.016   .     S
O1588  Zn1590  2.016   .     S
C1591  C1592   1.409   .     S
C1591  O1690   1.300   .     A
C1591  O1687   1.299   .     A
C1592  C1635   1.393   .     A
C1592  C1632   1.395   .     A
C1593  C1623   1.511   .     S
C1593  N1686   1.381   .     A
C1594  C1626   1.511   .     S
C1594  N1685   1.381   .     A
C1594  C959    1.442   1_565 S
C1595  C1628   1.518   .     S
C1595  N1686   1.383   .     A
C1596  C1630   1.516   .     S
C1596  N1685   1.380   .     A
C1596  C957    1.440   1_565 S
C1597  O1694   1.301   .     A
C1597  C1603   1.431   .     S
C1597  O1691   1.304   .     A
C1598  O1693   1.304   .     A
C1598  C1601   1.431   .     S
C1598  O1692   1.301   .     A
C1599  C1615   1.534   .     S
C1599  C1601   1.410   .     A
C1599  C1610   1.406   .     A
C1600  C1617   1.536   .     S
C1600  C1611   1.408   .     A
C1600  C1603   1.412   .     A
C1601  C1604   1.410   .     A
C1602  O1689   1.293   .     A
C1602  O1688   1.306   .     A
C1602  C1636   1.410   .     S
C1603  C1605   1.410   .     A
C1604  C1606   1.405   .     A
C1604  C1619   1.533   .     S
C1605  C1607   1.404   .     A
C1605  C1621   1.532   .     S
C1606  C1608   1.418   .     A
C1606  C1612   1.403   .     A
C1607  C1614   1.403   .     A
C1607  C1609   1.417   .     A
C1608  C1610   1.418   .     A
C1608  C655    1.414   1_556 S
C1609  C1611   1.419   .     A
C1610  C1624   1.403   .     A
C1611  C1613   1.403   .     A
C1612  H1637   1.079   .     S
C1612  C659    1.376   1_556 S
C1613  H1659   1.079   .     S
C1614  H1648   1.079   .     S
C1615  H1640   1.111   .     S
C1615  C1616   1.530   .     S
C1615  H1641   1.105   .     S
C1616  H1684   1.104   .     S
C1616  H1638   1.109   .     S
C1616  H1639   1.110   .     S
C1617  H1645   1.111   .     S
C1617  H1646   1.106   .     S
C1617  C1618   1.530   .     S
C1618  H1644   1.111   .     S
C1618  H1643   1.108   .     S
C1618  H1642   1.101   .     S
C1619  H1651   1.102   .     S
C1619  C1620   1.527   .     S
C1619  H1652   1.109   .     S
C1620  H1647   1.109   .     S
C1620  H1650   1.110   .     S
C1620  H1649   1.110   .     S
C1621  H1656   1.109   .     S
C1621  H1657   1.106   .     S
C1621  C1622   1.529   .     S
C1622  H1654   1.109   .     S
C1622  H1653   1.110   .     S
C1622  H1655   1.110   .     S
C1623  H1662   1.088   .     S
C1623  H1663   1.106   .     S
C1623  C1625   1.536   .     S
C1624  H1670   1.079   .     S
C1624  C660    1.376   1_556 S
C1625  H1660   1.109   .     S
C1625  H1661   1.110   .     S
C1625  H1658   1.109   .     S
C1626  C1627   1.533   .     S
C1626  H1667   1.087   .     S
C1626  H1668   1.105   .     S
C1627  H1664   1.109   .     S
C1627  H1665   1.110   .     S
C1627  H1666   1.110   .     S
C1628  H1673   1.084   .     S
C1628  C1629   1.531   .     S
C1628  H1674   1.106   .     S
C1629  H1669   1.109   .     S
C1629  H1671   1.111   .     S
C1629  H1672   1.108   .     S
C1630  H1679   1.105   .     S
C1630  C1631   1.532   .     S
C1630  H1678   1.084   .     S
C1631  H1676   1.109   .     S
C1631  H1677   1.110   .     S
C1631  H1675   1.109   .     S
C1632  H1680   1.083   .     S
C1632  C1846   1.371   1_455 S
C1633  H1681   1.083   .     S
C1633  C1636   1.397   .     A
C1633  C1741   1.371   .     S
C1634  H1682   1.078   .     S
C1634  C1636   1.389   .     A
C1634  C1738   1.371   .     S
C1635  H1683   1.083   .     S
C1635  C1845   1.371   1_455 S
N1685  Zn1695  2.058   .     S
N1686  Zn1696  2.058   .     S
O1687  Zn1695  1.988   .     S
O1688  Zn1696  1.988   .     S
O1689  Zn1695  1.978   .     S
O1690  Zn1696  1.978   .     S
O1691  Zn1695  2.023   .     S
O1692  Zn1696  2.023   .     S
O1693  Zn1695  2.016   .     S
O1694  Zn1696  2.016   .     S
C1697  C1698   1.409   .     S
C1697  O1796   1.300   .     A
C1697  O1793   1.299   .     A
C1698  C1741   1.393   .     A
C1698  C1738   1.395   .     A
C1699  C1729   1.511   .     S
C1699  N1792   1.381   .     A
C1700  C1732   1.511   .     S
C1700  N1791   1.381   .     A
C1700  C1065   1.442   1_565 S
C1701  C1734   1.518   .     S
C1701  N1792   1.383   .     A
C1702  C1736   1.516   .     S
C1702  N1791   1.380   .     A
C1702  C1063   1.440   1_565 S
C1703  O1800   1.301   .     A
C1703  C1709   1.431   .     S
C1703  O1797   1.304   .     A
C1704  O1799   1.304   .     A
C1704  C1707   1.431   .     S
C1704  O1798   1.301   .     A
C1705  C1721   1.534   .     S
C1705  C1707   1.410   .     A
C1705  C1716   1.406   .     A
C1706  C1723   1.536   .     S
C1706  C1717   1.408   .     A
C1706  C1709   1.412   .     A
C1707  C1710   1.410   .     A
C1708  O1795   1.293   .     A
C1708  O1794   1.306   .     A
C1708  C1742   1.410   .     S
C1709  C1711   1.410   .     A
C1710  C1712   1.405   .     A
C1710  C1725   1.533   .     S
C1711  C1713   1.404   .     A
C1711  C1727   1.532   .     S
C1712  C1714   1.418   .     A
C1712  C1718   1.403   .     A
C1713  C1720   1.403   .     A
C1713  C1715   1.417   .     A
C1714  C1716   1.418   .     A
C1714  C761    1.414   1_556 S
C1715  C1717   1.419   .     A
C1716  C1730   1.403   .     A
C1717  C1719   1.403   .     A
C1718  H1743   1.079   .     S
C1718  C765    1.376   1_556 S
C1719  H1765   1.079   .     S
C1720  H1754   1.079   .     S
C1721  H1746   1.111   .     S
C1721  C1722   1.530   .     S
C1721  H1747   1.105   .     S
C1722  H1790   1.104   .     S
C1722  H1744   1.109   .     S
C1722  H1745   1.110   .     S
C1723  H1751   1.111   .     S
C1723  H1752   1.106   .     S
C1723  C1724   1.530   .     S
C1724  H1750   1.111   .     S
C1724  H1749   1.108   .     S
C1724  H1748   1.101   .     S
C1725  H1757   1.102   .     S
C1725  C1726   1.527   .     S
C1725  H1758   1.109   .     S
C1726  H1753   1.109   .     S
C1726  H1756   1.110   .     S
C1726  H1755   1.110   .     S
C1727  H1762   1.109   .     S
C1727  H1763   1.106   .     S
C1727  C1728   1.529   .     S
C1728  H1760   1.109   .     S
C1728  H1759   1.110   .     S
C1728  H1761   1.110   .     S
C1729  H1768   1.088   .     S
C1729  H1769   1.106   .     S
C1729  C1731   1.536   .     S
C1730  H1776   1.079   .     S
C1730  C766    1.376   1_556 S
C1731  H1766   1.109   .     S
C1731  H1767   1.110   .     S
C1731  H1764   1.109   .     S
C1732  C1733   1.533   .     S
C1732  H1773   1.087   .     S
C1732  H1774   1.105   .     S
C1733  H1770   1.109   .     S
C1733  H1771   1.110   .     S
C1733  H1772   1.110   .     S
C1734  H1779   1.084   .     S
C1734  C1735   1.531   .     S
C1734  H1780   1.106   .     S
C1735  H1775   1.109   .     S
C1735  H1777   1.111   .     S
C1735  H1778   1.108   .     S
C1736  H1785   1.105   .     S
C1736  C1737   1.532   .     S
C1736  H1784   1.084   .     S
C1737  H1782   1.109   .     S
C1737  H1783   1.110   .     S
C1737  H1781   1.109   .     S
C1738  H1786   1.083   .     S
C1739  H1787   1.083   .     S
C1739  C1742   1.397   .     A
C1739  C1847   1.371   .     S
C1740  H1788   1.078   .     S
C1740  C1742   1.389   .     A
C1740  C1844   1.371   .     S
C1741  H1789   1.083   .     S
N1791  Zn1801  2.058   .     S
N1792  Zn1802  2.058   .     S
O1793  Zn1801  1.988   .     S
O1794  Zn1802  1.988   .     S
O1795  Zn1801  1.978   .     S
O1796  Zn1802  1.978   .     S
O1797  Zn1801  2.023   .     S
O1798  Zn1802  2.023   .     S
O1799  Zn1801  2.016   .     S
O1800  Zn1802  2.016   .     S
C1803  C1804   1.409   .     S
C1803  O1902   1.300   .     A
C1803  O1899   1.299   .     A
C1804  C1847   1.393   .     A
C1804  C1844   1.395   .     A
C1805  C1835   1.511   .     S
C1805  N1898   1.381   .     A
C1806  C1838   1.511   .     S
C1806  N1897   1.381   .     A
C1806  C1171   1.442   1_565 S
C1807  C1840   1.518   .     S
C1807  N1898   1.383   .     A
C1808  C1842   1.516   .     S
C1808  N1897   1.380   .     A
C1808  C1169   1.440   1_565 S
C1809  O1906   1.301   .     A
C1809  C1815   1.431   .     S
C1809  O1903   1.304   .     A
C1810  O1905   1.304   .     A
C1810  C1813   1.431   .     S
C1810  O1904   1.301   .     A
C1811  C1827   1.534   .     S
C1811  C1813   1.410   .     A
C1811  C1822   1.406   .     A
C1812  C1829   1.536   .     S
C1812  C1823   1.408   .     A
C1812  C1815   1.412   .     A
C1813  C1816   1.410   .     A
C1814  O1901   1.293   .     A
C1814  O1900   1.306   .     A
C1814  C1848   1.410   .     S
C1815  C1817   1.410   .     A
C1816  C1818   1.405   .     A
C1816  C1831   1.533   .     S
C1817  C1819   1.404   .     A
C1817  C1833   1.532   .     S
C1818  C1820   1.418   .     A
C1818  C1824   1.403   .     A
C1819  C1826   1.403   .     A
C1819  C1821   1.417   .     A
C1820  C1822   1.418   .     A
C1820  C867    1.414   1_556 S
C1821  C1823   1.419   .     A
C1822  C1836   1.403   .     A
C1823  C1825   1.403   .     A
C1824  H1849   1.079   .     S
C1824  C871    1.376   1_556 S
C1825  H1871   1.079   .     S
C1826  H1860   1.079   .     S
C1827  H1852   1.111   .     S
C1827  C1828   1.530   .     S
C1827  H1853   1.105   .     S
C1828  H1896   1.104   .     S
C1828  H1850   1.109   .     S
C1828  H1851   1.110   .     S
C1829  H1857   1.111   .     S
C1829  H1858   1.106   .     S
C1829  C1830   1.530   .     S
C1830  H1856   1.111   .     S
C1830  H1855   1.108   .     S
C1830  H1854   1.101   .     S
C1831  H1863   1.102   .     S
C1831  C1832   1.527   .     S
C1831  H1864   1.109   .     S
C1832  H1859   1.109   .     S
C1832  H1862   1.110   .     S
C1832  H1861   1.110   .     S
C1833  H1868   1.109   .     S
C1833  H1869   1.106   .     S
C1833  C1834   1.529   .     S
C1834  H1866   1.109   .     S
C1834  H1865   1.110   .     S
C1834  H1867   1.110   .     S
C1835  H1874   1.088   .     S
C1835  H1875   1.106   .     S
C1835  C1837   1.536   .     S
C1836  H1882   1.079   .     S
C1836  C872    1.376   1_556 S
C1837  H1872   1.109   .     S
C1837  H1873   1.110   .     S
C1837  H1870   1.109   .     S
C1838  C1839   1.533   .     S
C1838  H1879   1.087   .     S
C1838  H1880   1.105   .     S
C1839  H1876   1.109   .     S
C1839  H1877   1.110   .     S
C1839  H1878   1.110   .     S
C1840  H1885   1.084   .     S
C1840  C1841   1.531   .     S
C1840  H1886   1.106   .     S
C1841  H1881   1.109   .     S
C1841  H1883   1.111   .     S
C1841  H1884   1.108   .     S
C1842  H1891   1.105   .     S
C1842  C1843   1.532   .     S
C1842  H1890   1.084   .     S
C1843  H1888   1.109   .     S
C1843  H1889   1.110   .     S
C1843  H1887   1.109   .     S
C1844  H1892   1.083   .     S
C1845  H1893   1.083   .     S
C1845  C1848   1.397   .     A
C1845  C1635   1.371   1_655 S
C1846  H1894   1.078   .     S
C1846  C1848   1.389   .     A
C1846  C1632   1.371   1_655 S
C1847  H1895   1.083   .     S
N1897  Zn1907  2.058   .     S
N1898  Zn1908  2.058   .     S
O1899  Zn1907  1.988   .     S
O1900  Zn1908  1.988   .     S
O1901  Zn1907  1.978   .     S
O1902  Zn1908  1.978   .     S
O1903  Zn1907  2.023   .     S
O1904  Zn1908  2.023   .     S
O1905  Zn1907  2.016   .     S
O1906  Zn1908  2.016   .     S
