data_str_m3_o1_o10_pcu_sym.160
_audit_creation_date              2020-01-03
_audit_creation_method            'Materials Studio'
_symmetry_space_group_name_H-M    'P1'
_symmetry_Int_Tables_number       1
_symmetry_cell_setting            triclinic
loop_
_symmetry_equiv_pos_as_xyz
  x,y,z
_cell_length_a                    26.1463
_cell_length_b                    32.2901
_cell_length_c                    30.0603
_cell_angle_alpha                 88.6051
_cell_angle_beta                  95.0171
_cell_angle_gamma                 96.8439
loop_
_atom_site_label
_atom_site_type_symbol
_atom_site_fract_x
_atom_site_fract_y
_atom_site_fract_z
_atom_site_U_iso_or_equiv
_atom_site_adp_type
_atom_site_occupancy
C1     C     0.16941   0.08708   0.16711   0.00000  Uiso   1.00
C2     C     0.16397   0.24626   0.16622   0.00000  Uiso   1.00
C3     C     0.06798   0.16741   0.15612   0.00000  Uiso   1.00
C4     C     0.26534   0.16587   0.17722   0.00000  Uiso   1.00
C5     C     0.01670   0.17672   0.15324   0.00000  Uiso   1.00
C6     C     0.31661   0.15655   0.18012   0.00000  Uiso   1.00
C7     C     0.18252   0.02260   0.12874   0.00000  Uiso   1.00
C8     C     0.15096   0.31076   0.20460   0.00000  Uiso   1.00
C9     C     0.17377   0.31322   0.12773   0.00000  Uiso   1.00
C10    C     0.15975   0.02014   0.20562   0.00000  Uiso   1.00
C11    C     0.16109   0.29041   0.16597   0.00000  Uiso   1.00
C12    C     0.17237   0.04295   0.16738   0.00000  Uiso   1.00
C13    C     0.19413   0.19791   0.02545   0.00000  Uiso   1.00
C14    C     0.13926   0.13540   0.30790   0.00000  Uiso   1.00
C15    C     0.19667   0.19752   0.31133   0.00000  Uiso   1.00
C16    C     0.13669   0.13580   0.02201   0.00000  Uiso   1.00
H17    H     0.17751   0.29795   0.09705   0.00000  Uiso   1.00
H18    H     0.15609   0.03540   0.23632   0.00000  Uiso   1.00
N19    N     0.16665   0.16666   0.28573   0.00000  Uiso   1.00
N20    N     0.16668   0.16668   0.04760   0.00000  Uiso   1.00
O21    O     0.16666   0.10558   0.20487   0.00000  Uiso   1.00
O22    O     0.16667   0.22775   0.12846   0.00000  Uiso   1.00
O23    O     0.16666   0.10559   0.12843   0.00000  Uiso   1.00
O24    O     0.16667   0.22774   0.20490   0.00000  Uiso   1.00
O25    O     0.09058   0.16666   0.19595   0.00000  Uiso   1.00
O26    O     0.24275   0.16667   0.13739   0.00000  Uiso   1.00
O27    O     0.09058   0.16667   0.11950   0.00000  Uiso   1.00
O28    O     0.24275   0.16666   0.21383   0.00000  Uiso   1.00
Zn29   Zn    0.16667   0.16666   0.21771   0.00000  Uiso   1.00
Zn30   Zn    0.16667   0.16667   0.11563   0.00000  Uiso   1.00
S31    S     0.00503   0.22087   0.11965   0.00000  Uiso   1.00
O32    O     0.31527   0.20513   0.07492   0.00000  Uiso   1.00
O33    O     0.30257   0.24605   0.14096   0.00000  Uiso   1.00
O34    O     0.06048   0.25133   0.11250   0.00000  Uiso   1.00
H35    H     0.05049   0.27393   0.09184   0.00000  Uiso   1.00
S36    S     0.32839   0.11247   0.21379   0.00000  Uiso   1.00
O37    O     0.03095   0.08730   0.19263   0.00000  Uiso   1.00
O38    O     0.01851   0.12826   0.25843   0.00000  Uiso   1.00
O39    O     0.27318   0.08155   0.22096   0.00000  Uiso   1.00
H40    H     0.26369   0.08796   0.25102   0.00000  Uiso   1.00
C41    C     0.20557   0.04392   0.09114   0.00000  Uiso   1.00
N42    N     0.22426   0.06087   0.06115   0.00000  Uiso   1.00
C43    C     0.12791   0.28945   0.24222   0.00000  Uiso   1.00
N44    N     0.10921   0.27252   0.27220   0.00000  Uiso   1.00
C45    C     0.21941   0.23315   0.05014   0.00000  Uiso   1.00
N46    N     0.24082   0.26236   0.06789   0.00000  Uiso   1.00
C47    C     0.11410   0.10010   0.28325   0.00000  Uiso   1.00
N48    N     0.09276   0.07083   0.26555   0.00000  Uiso   1.00
S49    S     0.24351   0.23762   0.29013   0.00000  Uiso   1.00
O50    O     0.22673   0.27917   0.29984   0.00000  Uiso   1.00
O51    O     0.29405   0.23415   0.31712   0.00000  Uiso   1.00
O52    O     0.25695   0.23930   0.23670   0.00000  Uiso   1.00
H53    H     0.28199   0.26458   0.23381   0.00000  Uiso   1.00
S54    S     0.08987   0.09568   0.04322   0.00000  Uiso   1.00
O55    O     0.03935   0.09906   0.01618   0.00000  Uiso   1.00
O56    O     0.10675   0.05414   0.03358   0.00000  Uiso   1.00
O57    O     0.07637   0.09404   0.09663   0.00000  Uiso   1.00
H58    H     0.05145   0.06869   0.09955   0.00000  Uiso   1.00
C59    C     0.50274   0.08708   0.16711   0.00000  Uiso   1.00
C60    C     0.49730   0.24626   0.16622   0.00000  Uiso   1.00
C61    C     0.40131   0.16741   0.15612   0.00000  Uiso   1.00
C62    C     0.59867   0.16587   0.17722   0.00000  Uiso   1.00
C63    C     0.35003   0.17672   0.15324   0.00000  Uiso   1.00
C64    C     0.64995   0.15655   0.18012   0.00000  Uiso   1.00
C65    C     0.51585   0.02260   0.12874   0.00000  Uiso   1.00
C66    C     0.48429   0.31076   0.20460   0.00000  Uiso   1.00
C67    C     0.50711   0.31322   0.12773   0.00000  Uiso   1.00
C68    C     0.49308   0.02014   0.20562   0.00000  Uiso   1.00
C69    C     0.49443   0.29041   0.16597   0.00000  Uiso   1.00
C70    C     0.50570   0.04295   0.16738   0.00000  Uiso   1.00
C71    C     0.52746   0.19791   0.02545   0.00000  Uiso   1.00
C72    C     0.47259   0.13540   0.30790   0.00000  Uiso   1.00
C73    C     0.53000   0.19752   0.31133   0.00000  Uiso   1.00
C74    C     0.47002   0.13580   0.02201   0.00000  Uiso   1.00
H75    H     0.51084   0.29795   0.09705   0.00000  Uiso   1.00
H76    H     0.48943   0.03540   0.23632   0.00000  Uiso   1.00
N77    N     0.49999   0.16666   0.28573   0.00000  Uiso   1.00
N78    N     0.50001   0.16668   0.04760   0.00000  Uiso   1.00
O79    O     0.50000   0.10558   0.20487   0.00000  Uiso   1.00
O80    O     0.50000   0.22775   0.12846   0.00000  Uiso   1.00
O81    O     0.50000   0.10559   0.12843   0.00000  Uiso   1.00
O82    O     0.50000   0.22774   0.20490   0.00000  Uiso   1.00
O83    O     0.42392   0.16666   0.19595   0.00000  Uiso   1.00
O84    O     0.57608   0.16667   0.13739   0.00000  Uiso   1.00
O85    O     0.42392   0.16667   0.11950   0.00000  Uiso   1.00
O86    O     0.57608   0.16666   0.21383   0.00000  Uiso   1.00
Zn87   Zn    0.50000   0.16666   0.21771   0.00000  Uiso   1.00
Zn88   Zn    0.50000   0.16667   0.11563   0.00000  Uiso   1.00
S89    S     0.33836   0.22087   0.11965   0.00000  Uiso   1.00
O90    O     0.64861   0.20513   0.07492   0.00000  Uiso   1.00
O91    O     0.63591   0.24605   0.14096   0.00000  Uiso   1.00
O92    O     0.39381   0.25133   0.11250   0.00000  Uiso   1.00
H93    H     0.38382   0.27393   0.09184   0.00000  Uiso   1.00
S94    S     0.66172   0.11247   0.21379   0.00000  Uiso   1.00
O95    O     0.36428   0.08730   0.19263   0.00000  Uiso   1.00
O96    O     0.35185   0.12826   0.25843   0.00000  Uiso   1.00
O97    O     0.60652   0.08155   0.22096   0.00000  Uiso   1.00
H98    H     0.59702   0.08796   0.25102   0.00000  Uiso   1.00
C99    C     0.53890   0.04392   0.09114   0.00000  Uiso   1.00
N100   N     0.55760   0.06087   0.06115   0.00000  Uiso   1.00
C101   C     0.46124   0.28945   0.24222   0.00000  Uiso   1.00
N102   N     0.44254   0.27252   0.27220   0.00000  Uiso   1.00
C103   C     0.55274   0.23315   0.05014   0.00000  Uiso   1.00
N104   N     0.57415   0.26236   0.06789   0.00000  Uiso   1.00
C105   C     0.44743   0.10010   0.28325   0.00000  Uiso   1.00
N106   N     0.42609   0.07083   0.26555   0.00000  Uiso   1.00
S107   S     0.57685   0.23762   0.29013   0.00000  Uiso   1.00
O108   O     0.56006   0.27917   0.29984   0.00000  Uiso   1.00
O109   O     0.62738   0.23415   0.31712   0.00000  Uiso   1.00
O110   O     0.59029   0.23930   0.23670   0.00000  Uiso   1.00
H111   H     0.61532   0.26458   0.23381   0.00000  Uiso   1.00
S112   S     0.42321   0.09568   0.04322   0.00000  Uiso   1.00
O113   O     0.37268   0.09906   0.01618   0.00000  Uiso   1.00
O114   O     0.44008   0.05414   0.03358   0.00000  Uiso   1.00
O115   O     0.40970   0.09404   0.09663   0.00000  Uiso   1.00
H116   H     0.38479   0.06869   0.09955   0.00000  Uiso   1.00
C117   C     0.83608   0.08708   0.16711   0.00000  Uiso   1.00
C118   C     0.83063   0.24626   0.16622   0.00000  Uiso   1.00
C119   C     0.73465   0.16741   0.15612   0.00000  Uiso   1.00
C120   C     0.93200   0.16587   0.17722   0.00000  Uiso   1.00
C121   C     0.68337   0.17672   0.15324   0.00000  Uiso   1.00
C122   C     0.98328   0.15655   0.18012   0.00000  Uiso   1.00
C123   C     0.84919   0.02260   0.12874   0.00000  Uiso   1.00
C124   C     0.81763   0.31076   0.20460   0.00000  Uiso   1.00
C125   C     0.84044   0.31322   0.12773   0.00000  Uiso   1.00
C126   C     0.82642   0.02014   0.20562   0.00000  Uiso   1.00
C127   C     0.82776   0.29041   0.16597   0.00000  Uiso   1.00
C128   C     0.83903   0.04295   0.16738   0.00000  Uiso   1.00
C129   C     0.86080   0.19791   0.02545   0.00000  Uiso   1.00
C130   C     0.80592   0.13540   0.30790   0.00000  Uiso   1.00
C131   C     0.86334   0.19752   0.31133   0.00000  Uiso   1.00
C132   C     0.80335   0.13580   0.02201   0.00000  Uiso   1.00
H133   H     0.84417   0.29795   0.09705   0.00000  Uiso   1.00
H134   H     0.82276   0.03540   0.23632   0.00000  Uiso   1.00
N135   N     0.83332   0.16666   0.28573   0.00000  Uiso   1.00
N136   N     0.83335   0.16668   0.04760   0.00000  Uiso   1.00
O137   O     0.83333   0.10558   0.20487   0.00000  Uiso   1.00
O138   O     0.83334   0.22775   0.12846   0.00000  Uiso   1.00
O139   O     0.83333   0.10559   0.12843   0.00000  Uiso   1.00
O140   O     0.83334   0.22774   0.20490   0.00000  Uiso   1.00
O141   O     0.75725   0.16666   0.19595   0.00000  Uiso   1.00
O142   O     0.90942   0.16667   0.13739   0.00000  Uiso   1.00
O143   O     0.75725   0.16667   0.11950   0.00000  Uiso   1.00
O144   O     0.90942   0.16666   0.21383   0.00000  Uiso   1.00
Zn145  Zn    0.83333   0.16666   0.21771   0.00000  Uiso   1.00
Zn146  Zn    0.83333   0.16667   0.11563   0.00000  Uiso   1.00
S147   S     0.67170   0.22087   0.11965   0.00000  Uiso   1.00
O148   O     0.98194   0.20513   0.07492   0.00000  Uiso   1.00
O149   O     0.96924   0.24605   0.14096   0.00000  Uiso   1.00
O150   O     0.72714   0.25133   0.11250   0.00000  Uiso   1.00
H151   H     0.71715   0.27393   0.09184   0.00000  Uiso   1.00
S152   S     0.99506   0.11247   0.21379   0.00000  Uiso   1.00
O153   O     0.69762   0.08730   0.19263   0.00000  Uiso   1.00
O154   O     0.68518   0.12826   0.25843   0.00000  Uiso   1.00
O155   O     0.93985   0.08155   0.22096   0.00000  Uiso   1.00
H156   H     0.93035   0.08796   0.25102   0.00000  Uiso   1.00
C157   C     0.87223   0.04392   0.09114   0.00000  Uiso   1.00
N158   N     0.89093   0.06087   0.06115   0.00000  Uiso   1.00
C159   C     0.79458   0.28945   0.24222   0.00000  Uiso   1.00
N160   N     0.77587   0.27252   0.27220   0.00000  Uiso   1.00
C161   C     0.88607   0.23315   0.05014   0.00000  Uiso   1.00
N162   N     0.90749   0.26236   0.06789   0.00000  Uiso   1.00
C163   C     0.78077   0.10010   0.28325   0.00000  Uiso   1.00
N164   N     0.75942   0.07083   0.26555   0.00000  Uiso   1.00
S165   S     0.91018   0.23762   0.29013   0.00000  Uiso   1.00
O166   O     0.89339   0.27917   0.29984   0.00000  Uiso   1.00
O167   O     0.96072   0.23415   0.31712   0.00000  Uiso   1.00
O168   O     0.92362   0.23930   0.23670   0.00000  Uiso   1.00
H169   H     0.94865   0.26458   0.23381   0.00000  Uiso   1.00
S170   S     0.75654   0.09568   0.04322   0.00000  Uiso   1.00
O171   O     0.70601   0.09906   0.01618   0.00000  Uiso   1.00
O172   O     0.77341   0.05414   0.03358   0.00000  Uiso   1.00
O173   O     0.74303   0.09404   0.09663   0.00000  Uiso   1.00
H174   H     0.71812   0.06869   0.09955   0.00000  Uiso   1.00
C175   C     0.16941   0.42042   0.16711   0.00000  Uiso   1.00
C176   C     0.16397   0.57959   0.16622   0.00000  Uiso   1.00
C177   C     0.06798   0.50074   0.15612   0.00000  Uiso   1.00
C178   C     0.26534   0.49921   0.17722   0.00000  Uiso   1.00
C179   C     0.01670   0.51006   0.15324   0.00000  Uiso   1.00
C180   C     0.31661   0.48988   0.18012   0.00000  Uiso   1.00
C181   C     0.18252   0.35593   0.12874   0.00000  Uiso   1.00
C182   C     0.15096   0.64409   0.20460   0.00000  Uiso   1.00
C183   C     0.17377   0.64655   0.12773   0.00000  Uiso   1.00
C184   C     0.15975   0.35347   0.20562   0.00000  Uiso   1.00
C185   C     0.16109   0.62374   0.16597   0.00000  Uiso   1.00
C186   C     0.17237   0.37628   0.16738   0.00000  Uiso   1.00
C187   C     0.19413   0.53124   0.02545   0.00000  Uiso   1.00
C188   C     0.13926   0.46873   0.30790   0.00000  Uiso   1.00
C189   C     0.19667   0.53085   0.31133   0.00000  Uiso   1.00
C190   C     0.13669   0.46914   0.02201   0.00000  Uiso   1.00
H191   H     0.17751   0.63128   0.09705   0.00000  Uiso   1.00
H192   H     0.15609   0.36874   0.23632   0.00000  Uiso   1.00
N193   N     0.16665   0.49999   0.28573   0.00000  Uiso   1.00
N194   N     0.16668   0.50001   0.04760   0.00000  Uiso   1.00
O195   O     0.16666   0.43892   0.20487   0.00000  Uiso   1.00
O196   O     0.16667   0.56108   0.12846   0.00000  Uiso   1.00
O197   O     0.16666   0.43893   0.12843   0.00000  Uiso   1.00
O198   O     0.16667   0.56107   0.20490   0.00000  Uiso   1.00
O199   O     0.09058   0.50000   0.19595   0.00000  Uiso   1.00
O200   O     0.24275   0.50000   0.13739   0.00000  Uiso   1.00
O201   O     0.09058   0.50000   0.11950   0.00000  Uiso   1.00
O202   O     0.24275   0.50000   0.21383   0.00000  Uiso   1.00
Zn203  Zn    0.16667   0.49999   0.21771   0.00000  Uiso   1.00
Zn204  Zn    0.16667   0.50001   0.11563   0.00000  Uiso   1.00
S205   S     0.00503   0.55420   0.11965   0.00000  Uiso   1.00
O206   O     0.31527   0.53847   0.07492   0.00000  Uiso   1.00
O207   O     0.30257   0.57938   0.14096   0.00000  Uiso   1.00
O208   O     0.06048   0.58467   0.11250   0.00000  Uiso   1.00
H209   H     0.05049   0.60726   0.09184   0.00000  Uiso   1.00
S210   S     0.32839   0.44580   0.21379   0.00000  Uiso   1.00
O211   O     0.03095   0.42063   0.19263   0.00000  Uiso   1.00
O212   O     0.01851   0.46159   0.25843   0.00000  Uiso   1.00
O213   O     0.27318   0.41489   0.22096   0.00000  Uiso   1.00
H214   H     0.26369   0.42129   0.25102   0.00000  Uiso   1.00
C215   C     0.20557   0.37725   0.09114   0.00000  Uiso   1.00
N216   N     0.22426   0.39420   0.06115   0.00000  Uiso   1.00
C217   C     0.12791   0.62279   0.24222   0.00000  Uiso   1.00
N218   N     0.10921   0.60585   0.27220   0.00000  Uiso   1.00
C219   C     0.21941   0.56648   0.05014   0.00000  Uiso   1.00
N220   N     0.24082   0.59569   0.06789   0.00000  Uiso   1.00
C221   C     0.11410   0.43343   0.28325   0.00000  Uiso   1.00
N222   N     0.09276   0.40417   0.26555   0.00000  Uiso   1.00
S223   S     0.24351   0.57095   0.29013   0.00000  Uiso   1.00
O224   O     0.22673   0.61251   0.29984   0.00000  Uiso   1.00
O225   O     0.29405   0.56748   0.31712   0.00000  Uiso   1.00
O226   O     0.25695   0.57263   0.23670   0.00000  Uiso   1.00
H227   H     0.28199   0.59791   0.23381   0.00000  Uiso   1.00
S228   S     0.08987   0.42901   0.04322   0.00000  Uiso   1.00
O229   O     0.03935   0.43240   0.01618   0.00000  Uiso   1.00
O230   O     0.10675   0.38747   0.03358   0.00000  Uiso   1.00
O231   O     0.07637   0.42737   0.09663   0.00000  Uiso   1.00
H232   H     0.05145   0.40202   0.09955   0.00000  Uiso   1.00
C233   C     0.50274   0.42042   0.16711   0.00000  Uiso   1.00
C234   C     0.49730   0.57959   0.16622   0.00000  Uiso   1.00
C235   C     0.40131   0.50074   0.15612   0.00000  Uiso   1.00
C236   C     0.59867   0.49921   0.17722   0.00000  Uiso   1.00
C237   C     0.35003   0.51006   0.15324   0.00000  Uiso   1.00
C238   C     0.64995   0.48988   0.18012   0.00000  Uiso   1.00
C239   C     0.51585   0.35593   0.12874   0.00000  Uiso   1.00
C240   C     0.48429   0.64409   0.20460   0.00000  Uiso   1.00
C241   C     0.50711   0.64655   0.12773   0.00000  Uiso   1.00
C242   C     0.49308   0.35347   0.20562   0.00000  Uiso   1.00
C243   C     0.49443   0.62374   0.16597   0.00000  Uiso   1.00
C244   C     0.50570   0.37628   0.16738   0.00000  Uiso   1.00
C245   C     0.52746   0.53124   0.02545   0.00000  Uiso   1.00
C246   C     0.47259   0.46873   0.30790   0.00000  Uiso   1.00
C247   C     0.53000   0.53085   0.31133   0.00000  Uiso   1.00
C248   C     0.47002   0.46914   0.02201   0.00000  Uiso   1.00
H249   H     0.51084   0.63128   0.09705   0.00000  Uiso   1.00
H250   H     0.48943   0.36874   0.23632   0.00000  Uiso   1.00
N251   N     0.49999   0.49999   0.28573   0.00000  Uiso   1.00
N252   N     0.50001   0.50001   0.04760   0.00000  Uiso   1.00
O253   O     0.50000   0.43892   0.20487   0.00000  Uiso   1.00
O254   O     0.50000   0.56108   0.12846   0.00000  Uiso   1.00
O255   O     0.50000   0.43893   0.12843   0.00000  Uiso   1.00
O256   O     0.50000   0.56107   0.20490   0.00000  Uiso   1.00
O257   O     0.42392   0.50000   0.19595   0.00000  Uiso   1.00
O258   O     0.57608   0.50000   0.13739   0.00000  Uiso   1.00
O259   O     0.42392   0.50000   0.11950   0.00000  Uiso   1.00
O260   O     0.57608   0.50000   0.21383   0.00000  Uiso   1.00
Zn261  Zn    0.50000   0.49999   0.21771   0.00000  Uiso   1.00
Zn262  Zn    0.50000   0.50001   0.11563   0.00000  Uiso   1.00
S263   S     0.33836   0.55420   0.11965   0.00000  Uiso   1.00
O264   O     0.64861   0.53847   0.07492   0.00000  Uiso   1.00
O265   O     0.63591   0.57938   0.14096   0.00000  Uiso   1.00
O266   O     0.39381   0.58467   0.11250   0.00000  Uiso   1.00
H267   H     0.38382   0.60726   0.09184   0.00000  Uiso   1.00
S268   S     0.66172   0.44580   0.21379   0.00000  Uiso   1.00
O269   O     0.36428   0.42063   0.19263   0.00000  Uiso   1.00
O270   O     0.35185   0.46159   0.25843   0.00000  Uiso   1.00
O271   O     0.60652   0.41489   0.22096   0.00000  Uiso   1.00
H272   H     0.59702   0.42129   0.25102   0.00000  Uiso   1.00
C273   C     0.53890   0.37725   0.09114   0.00000  Uiso   1.00
N274   N     0.55760   0.39420   0.06115   0.00000  Uiso   1.00
C275   C     0.46124   0.62279   0.24222   0.00000  Uiso   1.00
N276   N     0.44254   0.60585   0.27220   0.00000  Uiso   1.00
C277   C     0.55274   0.56648   0.05014   0.00000  Uiso   1.00
N278   N     0.57415   0.59569   0.06789   0.00000  Uiso   1.00
C279   C     0.44743   0.43343   0.28325   0.00000  Uiso   1.00
N280   N     0.42609   0.40417   0.26555   0.00000  Uiso   1.00
S281   S     0.57685   0.57095   0.29013   0.00000  Uiso   1.00
O282   O     0.56006   0.61251   0.29984   0.00000  Uiso   1.00
O283   O     0.62738   0.56748   0.31712   0.00000  Uiso   1.00
O284   O     0.59029   0.57263   0.23670   0.00000  Uiso   1.00
H285   H     0.61532   0.59791   0.23381   0.00000  Uiso   1.00
S286   S     0.42321   0.42901   0.04322   0.00000  Uiso   1.00
O287   O     0.37268   0.43240   0.01618   0.00000  Uiso   1.00
O288   O     0.44008   0.38747   0.03358   0.00000  Uiso   1.00
O289   O     0.40970   0.42737   0.09663   0.00000  Uiso   1.00
H290   H     0.38479   0.40202   0.09955   0.00000  Uiso   1.00
C291   C     0.83608   0.42042   0.16711   0.00000  Uiso   1.00
C292   C     0.83063   0.57959   0.16622   0.00000  Uiso   1.00
C293   C     0.73465   0.50074   0.15612   0.00000  Uiso   1.00
C294   C     0.93200   0.49921   0.17722   0.00000  Uiso   1.00
C295   C     0.68337   0.51006   0.15324   0.00000  Uiso   1.00
C296   C     0.98328   0.48988   0.18012   0.00000  Uiso   1.00
C297   C     0.84919   0.35593   0.12874   0.00000  Uiso   1.00
C298   C     0.81763   0.64409   0.20460   0.00000  Uiso   1.00
C299   C     0.84044   0.64655   0.12773   0.00000  Uiso   1.00
C300   C     0.82642   0.35347   0.20562   0.00000  Uiso   1.00
C301   C     0.82776   0.62374   0.16597   0.00000  Uiso   1.00
C302   C     0.83903   0.37628   0.16738   0.00000  Uiso   1.00
C303   C     0.86080   0.53124   0.02545   0.00000  Uiso   1.00
C304   C     0.80592   0.46873   0.30790   0.00000  Uiso   1.00
C305   C     0.86334   0.53085   0.31133   0.00000  Uiso   1.00
C306   C     0.80335   0.46914   0.02201   0.00000  Uiso   1.00
H307   H     0.84417   0.63128   0.09705   0.00000  Uiso   1.00
H308   H     0.82276   0.36874   0.23632   0.00000  Uiso   1.00
N309   N     0.83332   0.49999   0.28573   0.00000  Uiso   1.00
N310   N     0.83335   0.50001   0.04760   0.00000  Uiso   1.00
O311   O     0.83333   0.43892   0.20487   0.00000  Uiso   1.00
O312   O     0.83334   0.56108   0.12846   0.00000  Uiso   1.00
O313   O     0.83333   0.43893   0.12843   0.00000  Uiso   1.00
O314   O     0.83334   0.56107   0.20490   0.00000  Uiso   1.00
O315   O     0.75725   0.50000   0.19595   0.00000  Uiso   1.00
O316   O     0.90942   0.50000   0.13739   0.00000  Uiso   1.00
O317   O     0.75725   0.50000   0.11950   0.00000  Uiso   1.00
O318   O     0.90942   0.50000   0.21383   0.00000  Uiso   1.00
Zn319  Zn    0.83333   0.49999   0.21771   0.00000  Uiso   1.00
Zn320  Zn    0.83333   0.50001   0.11563   0.00000  Uiso   1.00
S321   S     0.67170   0.55420   0.11965   0.00000  Uiso   1.00
O322   O     0.98194   0.53847   0.07492   0.00000  Uiso   1.00
O323   O     0.96924   0.57938   0.14096   0.00000  Uiso   1.00
O324   O     0.72714   0.58467   0.11250   0.00000  Uiso   1.00
H325   H     0.71715   0.60726   0.09184   0.00000  Uiso   1.00
S326   S     0.99506   0.44580   0.21379   0.00000  Uiso   1.00
O327   O     0.69762   0.42063   0.19263   0.00000  Uiso   1.00
O328   O     0.68518   0.46159   0.25843   0.00000  Uiso   1.00
O329   O     0.93985   0.41489   0.22096   0.00000  Uiso   1.00
H330   H     0.93035   0.42129   0.25102   0.00000  Uiso   1.00
C331   C     0.87223   0.37725   0.09114   0.00000  Uiso   1.00
N332   N     0.89093   0.39420   0.06115   0.00000  Uiso   1.00
C333   C     0.79458   0.62279   0.24222   0.00000  Uiso   1.00
N334   N     0.77587   0.60585   0.27220   0.00000  Uiso   1.00
C335   C     0.88607   0.56648   0.05014   0.00000  Uiso   1.00
N336   N     0.90749   0.59569   0.06789   0.00000  Uiso   1.00
C337   C     0.78077   0.43343   0.28325   0.00000  Uiso   1.00
N338   N     0.75942   0.40417   0.26555   0.00000  Uiso   1.00
S339   S     0.91018   0.57095   0.29013   0.00000  Uiso   1.00
O340   O     0.89339   0.61251   0.29984   0.00000  Uiso   1.00
O341   O     0.96072   0.56748   0.31712   0.00000  Uiso   1.00
O342   O     0.92362   0.57263   0.23670   0.00000  Uiso   1.00
H343   H     0.94865   0.59791   0.23381   0.00000  Uiso   1.00
S344   S     0.75654   0.42901   0.04322   0.00000  Uiso   1.00
O345   O     0.70601   0.43240   0.01618   0.00000  Uiso   1.00
O346   O     0.77341   0.38747   0.03358   0.00000  Uiso   1.00
O347   O     0.74303   0.42737   0.09663   0.00000  Uiso   1.00
H348   H     0.71812   0.40202   0.09955   0.00000  Uiso   1.00
C349   C     0.16941   0.75375   0.16711   0.00000  Uiso   1.00
C350   C     0.16397   0.91293   0.16622   0.00000  Uiso   1.00
C351   C     0.06798   0.83407   0.15612   0.00000  Uiso   1.00
C352   C     0.26534   0.83254   0.17722   0.00000  Uiso   1.00
C353   C     0.01670   0.84339   0.15324   0.00000  Uiso   1.00
C354   C     0.31661   0.82321   0.18012   0.00000  Uiso   1.00
C355   C     0.18252   0.68927   0.12874   0.00000  Uiso   1.00
C356   C     0.15096   0.97742   0.20460   0.00000  Uiso   1.00
C357   C     0.17377   0.97988   0.12773   0.00000  Uiso   1.00
C358   C     0.15975   0.68680   0.20562   0.00000  Uiso   1.00
C359   C     0.16109   0.95707   0.16597   0.00000  Uiso   1.00
C360   C     0.17237   0.70961   0.16738   0.00000  Uiso   1.00
C361   C     0.19413   0.86457   0.02545   0.00000  Uiso   1.00
C362   C     0.13926   0.80207   0.30790   0.00000  Uiso   1.00
C363   C     0.19667   0.86419   0.31133   0.00000  Uiso   1.00
C364   C     0.13669   0.80247   0.02201   0.00000  Uiso   1.00
H365   H     0.17751   0.96461   0.09705   0.00000  Uiso   1.00
H366   H     0.15609   0.70207   0.23632   0.00000  Uiso   1.00
N367   N     0.16665   0.83332   0.28573   0.00000  Uiso   1.00
N368   N     0.16668   0.83334   0.04760   0.00000  Uiso   1.00
O369   O     0.16666   0.77225   0.20487   0.00000  Uiso   1.00
O370   O     0.16667   0.89442   0.12846   0.00000  Uiso   1.00
O371   O     0.16666   0.77226   0.12843   0.00000  Uiso   1.00
O372   O     0.16667   0.89441   0.20490   0.00000  Uiso   1.00
O373   O     0.09058   0.83333   0.19595   0.00000  Uiso   1.00
O374   O     0.24275   0.83334   0.13739   0.00000  Uiso   1.00
O375   O     0.09058   0.83334   0.11950   0.00000  Uiso   1.00
O376   O     0.24275   0.83333   0.21383   0.00000  Uiso   1.00
Zn377  Zn    0.16667   0.83333   0.21771   0.00000  Uiso   1.00
Zn378  Zn    0.16667   0.83334   0.11563   0.00000  Uiso   1.00
S379   S     0.00503   0.88753   0.11965   0.00000  Uiso   1.00
O380   O     0.31527   0.87180   0.07492   0.00000  Uiso   1.00
O381   O     0.30257   0.91272   0.14096   0.00000  Uiso   1.00
O382   O     0.06048   0.91800   0.11250   0.00000  Uiso   1.00
H383   H     0.05049   0.94060   0.09184   0.00000  Uiso   1.00
S384   S     0.32839   0.77913   0.21379   0.00000  Uiso   1.00
O385   O     0.03095   0.75397   0.19263   0.00000  Uiso   1.00
O386   O     0.01851   0.79492   0.25843   0.00000  Uiso   1.00
O387   O     0.27318   0.74822   0.22096   0.00000  Uiso   1.00
H388   H     0.26369   0.75463   0.25102   0.00000  Uiso   1.00
C389   C     0.20557   0.71059   0.09114   0.00000  Uiso   1.00
N390   N     0.22426   0.72754   0.06115   0.00000  Uiso   1.00
C391   C     0.12791   0.95612   0.24222   0.00000  Uiso   1.00
N392   N     0.10921   0.93918   0.27220   0.00000  Uiso   1.00
C393   C     0.21941   0.89982   0.05014   0.00000  Uiso   1.00
N394   N     0.24082   0.92902   0.06789   0.00000  Uiso   1.00
C395   C     0.11410   0.76676   0.28325   0.00000  Uiso   1.00
N396   N     0.09276   0.73750   0.26555   0.00000  Uiso   1.00
S397   S     0.24351   0.90429   0.29013   0.00000  Uiso   1.00
O398   O     0.22673   0.94584   0.29984   0.00000  Uiso   1.00
O399   O     0.29405   0.90082   0.31712   0.00000  Uiso   1.00
O400   O     0.25695   0.90596   0.23670   0.00000  Uiso   1.00
H401   H     0.28199   0.93125   0.23381   0.00000  Uiso   1.00
S402   S     0.08987   0.76234   0.04322   0.00000  Uiso   1.00
O403   O     0.03935   0.76573   0.01618   0.00000  Uiso   1.00
O404   O     0.10675   0.72080   0.03358   0.00000  Uiso   1.00
O405   O     0.07637   0.76071   0.09663   0.00000  Uiso   1.00
H406   H     0.05145   0.73536   0.09955   0.00000  Uiso   1.00
C407   C     0.50274   0.75375   0.16711   0.00000  Uiso   1.00
C408   C     0.49730   0.91293   0.16622   0.00000  Uiso   1.00
C409   C     0.40131   0.83407   0.15612   0.00000  Uiso   1.00
C410   C     0.59867   0.83254   0.17722   0.00000  Uiso   1.00
C411   C     0.35003   0.84339   0.15324   0.00000  Uiso   1.00
C412   C     0.64995   0.82321   0.18012   0.00000  Uiso   1.00
C413   C     0.51585   0.68927   0.12874   0.00000  Uiso   1.00
C414   C     0.48429   0.97742   0.20460   0.00000  Uiso   1.00
C415   C     0.50711   0.97988   0.12773   0.00000  Uiso   1.00
C416   C     0.49308   0.68680   0.20562   0.00000  Uiso   1.00
C417   C     0.49443   0.95707   0.16597   0.00000  Uiso   1.00
C418   C     0.50570   0.70961   0.16738   0.00000  Uiso   1.00
C419   C     0.52746   0.86457   0.02545   0.00000  Uiso   1.00
C420   C     0.47259   0.80207   0.30790   0.00000  Uiso   1.00
C421   C     0.53000   0.86419   0.31133   0.00000  Uiso   1.00
C422   C     0.47002   0.80247   0.02201   0.00000  Uiso   1.00
H423   H     0.51084   0.96461   0.09705   0.00000  Uiso   1.00
H424   H     0.48943   0.70207   0.23632   0.00000  Uiso   1.00
N425   N     0.49999   0.83332   0.28573   0.00000  Uiso   1.00
N426   N     0.50001   0.83334   0.04760   0.00000  Uiso   1.00
O427   O     0.50000   0.77225   0.20487   0.00000  Uiso   1.00
O428   O     0.50000   0.89442   0.12846   0.00000  Uiso   1.00
O429   O     0.50000   0.77226   0.12843   0.00000  Uiso   1.00
O430   O     0.50000   0.89441   0.20490   0.00000  Uiso   1.00
O431   O     0.42392   0.83333   0.19595   0.00000  Uiso   1.00
O432   O     0.57608   0.83334   0.13739   0.00000  Uiso   1.00
O433   O     0.42392   0.83334   0.11950   0.00000  Uiso   1.00
O434   O     0.57608   0.83333   0.21383   0.00000  Uiso   1.00
Zn435  Zn    0.50000   0.83333   0.21771   0.00000  Uiso   1.00
Zn436  Zn    0.50000   0.83334   0.11563   0.00000  Uiso   1.00
S437   S     0.33836   0.88753   0.11965   0.00000  Uiso   1.00
O438   O     0.64861   0.87180   0.07492   0.00000  Uiso   1.00
O439   O     0.63591   0.91272   0.14096   0.00000  Uiso   1.00
O440   O     0.39381   0.91800   0.11250   0.00000  Uiso   1.00
H441   H     0.38382   0.94060   0.09184   0.00000  Uiso   1.00
S442   S     0.66172   0.77913   0.21379   0.00000  Uiso   1.00
O443   O     0.36428   0.75397   0.19263   0.00000  Uiso   1.00
O444   O     0.35185   0.79492   0.25843   0.00000  Uiso   1.00
O445   O     0.60652   0.74822   0.22096   0.00000  Uiso   1.00
H446   H     0.59702   0.75463   0.25102   0.00000  Uiso   1.00
C447   C     0.53890   0.71059   0.09114   0.00000  Uiso   1.00
N448   N     0.55760   0.72754   0.06115   0.00000  Uiso   1.00
C449   C     0.46124   0.95612   0.24222   0.00000  Uiso   1.00
N450   N     0.44254   0.93918   0.27220   0.00000  Uiso   1.00
C451   C     0.55274   0.89982   0.05014   0.00000  Uiso   1.00
N452   N     0.57415   0.92902   0.06789   0.00000  Uiso   1.00
C453   C     0.44743   0.76676   0.28325   0.00000  Uiso   1.00
N454   N     0.42609   0.73750   0.26555   0.00000  Uiso   1.00
S455   S     0.57685   0.90429   0.29013   0.00000  Uiso   1.00
O456   O     0.56006   0.94584   0.29984   0.00000  Uiso   1.00
O457   O     0.62738   0.90082   0.31712   0.00000  Uiso   1.00
O458   O     0.59029   0.90596   0.23670   0.00000  Uiso   1.00
H459   H     0.61532   0.93125   0.23381   0.00000  Uiso   1.00
S460   S     0.42321   0.76234   0.04322   0.00000  Uiso   1.00
O461   O     0.37268   0.76573   0.01618   0.00000  Uiso   1.00
O462   O     0.44008   0.72080   0.03358   0.00000  Uiso   1.00
O463   O     0.40970   0.76071   0.09663   0.00000  Uiso   1.00
H464   H     0.38479   0.73536   0.09955   0.00000  Uiso   1.00
C465   C     0.83608   0.75375   0.16711   0.00000  Uiso   1.00
C466   C     0.83063   0.91293   0.16622   0.00000  Uiso   1.00
C467   C     0.73465   0.83407   0.15612   0.00000  Uiso   1.00
C468   C     0.93200   0.83254   0.17722   0.00000  Uiso   1.00
C469   C     0.68337   0.84339   0.15324   0.00000  Uiso   1.00
C470   C     0.98328   0.82321   0.18012   0.00000  Uiso   1.00
C471   C     0.84919   0.68927   0.12874   0.00000  Uiso   1.00
C472   C     0.81763   0.97742   0.20460   0.00000  Uiso   1.00
C473   C     0.84044   0.97988   0.12773   0.00000  Uiso   1.00
C474   C     0.82642   0.68680   0.20562   0.00000  Uiso   1.00
C475   C     0.82776   0.95707   0.16597   0.00000  Uiso   1.00
C476   C     0.83903   0.70961   0.16738   0.00000  Uiso   1.00
C477   C     0.86080   0.86457   0.02545   0.00000  Uiso   1.00
C478   C     0.80592   0.80207   0.30790   0.00000  Uiso   1.00
C479   C     0.86334   0.86419   0.31133   0.00000  Uiso   1.00
C480   C     0.80335   0.80247   0.02201   0.00000  Uiso   1.00
H481   H     0.84417   0.96461   0.09705   0.00000  Uiso   1.00
H482   H     0.82276   0.70207   0.23632   0.00000  Uiso   1.00
N483   N     0.83332   0.83332   0.28573   0.00000  Uiso   1.00
N484   N     0.83335   0.83334   0.04760   0.00000  Uiso   1.00
O485   O     0.83333   0.77225   0.20487   0.00000  Uiso   1.00
O486   O     0.83334   0.89442   0.12846   0.00000  Uiso   1.00
O487   O     0.83333   0.77226   0.12843   0.00000  Uiso   1.00
O488   O     0.83334   0.89441   0.20490   0.00000  Uiso   1.00
O489   O     0.75725   0.83333   0.19595   0.00000  Uiso   1.00
O490   O     0.90942   0.83334   0.13739   0.00000  Uiso   1.00
O491   O     0.75725   0.83334   0.11950   0.00000  Uiso   1.00
O492   O     0.90942   0.83333   0.21383   0.00000  Uiso   1.00
Zn493  Zn    0.83333   0.83333   0.21771   0.00000  Uiso   1.00
Zn494  Zn    0.83333   0.83334   0.11563   0.00000  Uiso   1.00
S495   S     0.67170   0.88753   0.11965   0.00000  Uiso   1.00
O496   O     0.98194   0.87180   0.07492   0.00000  Uiso   1.00
O497   O     0.96924   0.91272   0.14096   0.00000  Uiso   1.00
O498   O     0.72714   0.91800   0.11250   0.00000  Uiso   1.00
H499   H     0.71715   0.94060   0.09184   0.00000  Uiso   1.00
S500   S     0.99506   0.77913   0.21379   0.00000  Uiso   1.00
O501   O     0.69762   0.75397   0.19263   0.00000  Uiso   1.00
O502   O     0.68518   0.79492   0.25843   0.00000  Uiso   1.00
O503   O     0.93985   0.74822   0.22096   0.00000  Uiso   1.00
H504   H     0.93035   0.75463   0.25102   0.00000  Uiso   1.00
C505   C     0.87223   0.71059   0.09114   0.00000  Uiso   1.00
N506   N     0.89093   0.72754   0.06115   0.00000  Uiso   1.00
C507   C     0.79458   0.95612   0.24222   0.00000  Uiso   1.00
N508   N     0.77587   0.93918   0.27220   0.00000  Uiso   1.00
C509   C     0.88607   0.89982   0.05014   0.00000  Uiso   1.00
N510   N     0.90749   0.92902   0.06789   0.00000  Uiso   1.00
C511   C     0.78077   0.76676   0.28325   0.00000  Uiso   1.00
N512   N     0.75942   0.73750   0.26555   0.00000  Uiso   1.00
S513   S     0.91018   0.90429   0.29013   0.00000  Uiso   1.00
O514   O     0.89339   0.94584   0.29984   0.00000  Uiso   1.00
O515   O     0.96072   0.90082   0.31712   0.00000  Uiso   1.00
O516   O     0.92362   0.90596   0.23670   0.00000  Uiso   1.00
H517   H     0.94865   0.93125   0.23381   0.00000  Uiso   1.00
S518   S     0.75654   0.76234   0.04322   0.00000  Uiso   1.00
O519   O     0.70601   0.76573   0.01618   0.00000  Uiso   1.00
O520   O     0.77341   0.72080   0.03358   0.00000  Uiso   1.00
O521   O     0.74303   0.76071   0.09663   0.00000  Uiso   1.00
H522   H     0.71812   0.73536   0.09955   0.00000  Uiso   1.00
C523   C     0.16941   0.08708   0.50045   0.00000  Uiso   1.00
C524   C     0.16397   0.24626   0.49956   0.00000  Uiso   1.00
C525   C     0.06798   0.16741   0.48946   0.00000  Uiso   1.00
C526   C     0.26534   0.16587   0.51055   0.00000  Uiso   1.00
C527   C     0.01670   0.17672   0.48657   0.00000  Uiso   1.00
C528   C     0.31661   0.15655   0.51345   0.00000  Uiso   1.00
C529   C     0.18252   0.02260   0.46208   0.00000  Uiso   1.00
C530   C     0.15096   0.31076   0.53794   0.00000  Uiso   1.00
C531   C     0.17377   0.31322   0.46107   0.00000  Uiso   1.00
C532   C     0.15975   0.02014   0.53896   0.00000  Uiso   1.00
C533   C     0.16109   0.29041   0.49930   0.00000  Uiso   1.00
C534   C     0.17237   0.04295   0.50071   0.00000  Uiso   1.00
C535   C     0.19413   0.19791   0.35878   0.00000  Uiso   1.00
C536   C     0.13926   0.13540   0.64123   0.00000  Uiso   1.00
C537   C     0.19667   0.19752   0.64466   0.00000  Uiso   1.00
C538   C     0.13669   0.13580   0.35534   0.00000  Uiso   1.00
H539   H     0.17751   0.29795   0.43039   0.00000  Uiso   1.00
H540   H     0.15609   0.03540   0.56965   0.00000  Uiso   1.00
N541   N     0.16665   0.16666   0.61907   0.00000  Uiso   1.00
N542   N     0.16668   0.16668   0.38093   0.00000  Uiso   1.00
O543   O     0.16666   0.10558   0.53821   0.00000  Uiso   1.00
O544   O     0.16667   0.22775   0.46179   0.00000  Uiso   1.00
O545   O     0.16666   0.10559   0.46176   0.00000  Uiso   1.00
O546   O     0.16667   0.22774   0.53824   0.00000  Uiso   1.00
O547   O     0.09058   0.16666   0.52928   0.00000  Uiso   1.00
O548   O     0.24275   0.16667   0.47072   0.00000  Uiso   1.00
O549   O     0.09058   0.16667   0.45284   0.00000  Uiso   1.00
O550   O     0.24275   0.16666   0.54716   0.00000  Uiso   1.00
Zn551  Zn    0.16667   0.16666   0.55104   0.00000  Uiso   1.00
Zn552  Zn    0.16667   0.16667   0.44896   0.00000  Uiso   1.00
S553   S     0.00503   0.22087   0.45298   0.00000  Uiso   1.00
O554   O     0.31527   0.20513   0.40825   0.00000  Uiso   1.00
O555   O     0.30257   0.24605   0.47429   0.00000  Uiso   1.00
O556   O     0.06048   0.25133   0.44584   0.00000  Uiso   1.00
H557   H     0.05049   0.27393   0.42518   0.00000  Uiso   1.00
S558   S     0.32839   0.11247   0.54712   0.00000  Uiso   1.00
O559   O     0.03095   0.08730   0.52596   0.00000  Uiso   1.00
O560   O     0.01851   0.12826   0.59176   0.00000  Uiso   1.00
O561   O     0.27318   0.08155   0.55430   0.00000  Uiso   1.00
H562   H     0.26369   0.08796   0.58435   0.00000  Uiso   1.00
C563   C     0.20557   0.04392   0.42447   0.00000  Uiso   1.00
N564   N     0.22426   0.06087   0.39449   0.00000  Uiso   1.00
C565   C     0.12791   0.28945   0.57555   0.00000  Uiso   1.00
N566   N     0.10921   0.27252   0.60554   0.00000  Uiso   1.00
C567   C     0.21941   0.23315   0.38347   0.00000  Uiso   1.00
N568   N     0.24082   0.26236   0.40122   0.00000  Uiso   1.00
C569   C     0.11410   0.10010   0.61659   0.00000  Uiso   1.00
N570   N     0.09276   0.07083   0.59888   0.00000  Uiso   1.00
S571   S     0.24351   0.23762   0.62346   0.00000  Uiso   1.00
O572   O     0.22673   0.27917   0.63318   0.00000  Uiso   1.00
O573   O     0.29405   0.23415   0.65045   0.00000  Uiso   1.00
O574   O     0.25695   0.23930   0.57003   0.00000  Uiso   1.00
H575   H     0.28199   0.26458   0.56715   0.00000  Uiso   1.00
S576   S     0.08987   0.09568   0.37655   0.00000  Uiso   1.00
O577   O     0.03935   0.09906   0.34951   0.00000  Uiso   1.00
O578   O     0.10675   0.05414   0.36692   0.00000  Uiso   1.00
O579   O     0.07637   0.09404   0.42996   0.00000  Uiso   1.00
H580   H     0.05145   0.06869   0.43289   0.00000  Uiso   1.00
C581   C     0.50274   0.08708   0.50045   0.00000  Uiso   1.00
C582   C     0.49730   0.24626   0.49956   0.00000  Uiso   1.00
C583   C     0.40131   0.16741   0.48946   0.00000  Uiso   1.00
C584   C     0.59867   0.16587   0.51055   0.00000  Uiso   1.00
C585   C     0.35003   0.17672   0.48657   0.00000  Uiso   1.00
C586   C     0.64995   0.15655   0.51345   0.00000  Uiso   1.00
C587   C     0.51585   0.02260   0.46208   0.00000  Uiso   1.00
C588   C     0.48429   0.31076   0.53794   0.00000  Uiso   1.00
C589   C     0.50711   0.31322   0.46107   0.00000  Uiso   1.00
C590   C     0.49308   0.02014   0.53896   0.00000  Uiso   1.00
C591   C     0.49443   0.29041   0.49930   0.00000  Uiso   1.00
C592   C     0.50570   0.04295   0.50071   0.00000  Uiso   1.00
C593   C     0.52746   0.19791   0.35878   0.00000  Uiso   1.00
C594   C     0.47259   0.13540   0.64123   0.00000  Uiso   1.00
C595   C     0.53000   0.19752   0.64466   0.00000  Uiso   1.00
C596   C     0.47002   0.13580   0.35534   0.00000  Uiso   1.00
H597   H     0.51084   0.29795   0.43039   0.00000  Uiso   1.00
H598   H     0.48943   0.03540   0.56965   0.00000  Uiso   1.00
N599   N     0.49999   0.16666   0.61907   0.00000  Uiso   1.00
N600   N     0.50001   0.16668   0.38093   0.00000  Uiso   1.00
O601   O     0.50000   0.10558   0.53821   0.00000  Uiso   1.00
O602   O     0.50000   0.22775   0.46179   0.00000  Uiso   1.00
O603   O     0.50000   0.10559   0.46176   0.00000  Uiso   1.00
O604   O     0.50000   0.22774   0.53824   0.00000  Uiso   1.00
O605   O     0.42392   0.16666   0.52928   0.00000  Uiso   1.00
O606   O     0.57608   0.16667   0.47072   0.00000  Uiso   1.00
O607   O     0.42392   0.16667   0.45284   0.00000  Uiso   1.00
O608   O     0.57608   0.16666   0.54716   0.00000  Uiso   1.00
Zn609  Zn    0.50000   0.16666   0.55104   0.00000  Uiso   1.00
Zn610  Zn    0.50000   0.16667   0.44896   0.00000  Uiso   1.00
S611   S     0.33836   0.22087   0.45298   0.00000  Uiso   1.00
O612   O     0.64861   0.20513   0.40825   0.00000  Uiso   1.00
O613   O     0.63591   0.24605   0.47429   0.00000  Uiso   1.00
O614   O     0.39381   0.25133   0.44584   0.00000  Uiso   1.00
H615   H     0.38382   0.27393   0.42518   0.00000  Uiso   1.00
S616   S     0.66172   0.11247   0.54712   0.00000  Uiso   1.00
O617   O     0.36428   0.08730   0.52596   0.00000  Uiso   1.00
O618   O     0.35185   0.12826   0.59176   0.00000  Uiso   1.00
O619   O     0.60652   0.08155   0.55430   0.00000  Uiso   1.00
H620   H     0.59702   0.08796   0.58435   0.00000  Uiso   1.00
C621   C     0.53890   0.04392   0.42447   0.00000  Uiso   1.00
N622   N     0.55760   0.06087   0.39449   0.00000  Uiso   1.00
C623   C     0.46124   0.28945   0.57555   0.00000  Uiso   1.00
N624   N     0.44254   0.27252   0.60554   0.00000  Uiso   1.00
C625   C     0.55274   0.23315   0.38347   0.00000  Uiso   1.00
N626   N     0.57415   0.26236   0.40122   0.00000  Uiso   1.00
C627   C     0.44743   0.10010   0.61659   0.00000  Uiso   1.00
N628   N     0.42609   0.07083   0.59888   0.00000  Uiso   1.00
S629   S     0.57685   0.23762   0.62346   0.00000  Uiso   1.00
O630   O     0.56006   0.27917   0.63318   0.00000  Uiso   1.00
O631   O     0.62738   0.23415   0.65045   0.00000  Uiso   1.00
O632   O     0.59029   0.23930   0.57003   0.00000  Uiso   1.00
H633   H     0.61532   0.26458   0.56715   0.00000  Uiso   1.00
S634   S     0.42321   0.09568   0.37655   0.00000  Uiso   1.00
O635   O     0.37268   0.09906   0.34951   0.00000  Uiso   1.00
O636   O     0.44008   0.05414   0.36692   0.00000  Uiso   1.00
O637   O     0.40970   0.09404   0.42996   0.00000  Uiso   1.00
H638   H     0.38479   0.06869   0.43289   0.00000  Uiso   1.00
C639   C     0.83608   0.08708   0.50045   0.00000  Uiso   1.00
C640   C     0.83063   0.24626   0.49956   0.00000  Uiso   1.00
C641   C     0.73465   0.16741   0.48946   0.00000  Uiso   1.00
C642   C     0.93200   0.16587   0.51055   0.00000  Uiso   1.00
C643   C     0.68337   0.17672   0.48657   0.00000  Uiso   1.00
C644   C     0.98328   0.15655   0.51345   0.00000  Uiso   1.00
C645   C     0.84919   0.02260   0.46208   0.00000  Uiso   1.00
C646   C     0.81763   0.31076   0.53794   0.00000  Uiso   1.00
C647   C     0.84044   0.31322   0.46107   0.00000  Uiso   1.00
C648   C     0.82642   0.02014   0.53896   0.00000  Uiso   1.00
C649   C     0.82776   0.29041   0.49930   0.00000  Uiso   1.00
C650   C     0.83903   0.04295   0.50071   0.00000  Uiso   1.00
C651   C     0.86080   0.19791   0.35878   0.00000  Uiso   1.00
C652   C     0.80592   0.13540   0.64123   0.00000  Uiso   1.00
C653   C     0.86334   0.19752   0.64466   0.00000  Uiso   1.00
C654   C     0.80335   0.13580   0.35534   0.00000  Uiso   1.00
H655   H     0.84417   0.29795   0.43039   0.00000  Uiso   1.00
H656   H     0.82276   0.03540   0.56965   0.00000  Uiso   1.00
N657   N     0.83332   0.16666   0.61907   0.00000  Uiso   1.00
N658   N     0.83335   0.16668   0.38093   0.00000  Uiso   1.00
O659   O     0.83333   0.10558   0.53821   0.00000  Uiso   1.00
O660   O     0.83334   0.22775   0.46179   0.00000  Uiso   1.00
O661   O     0.83333   0.10559   0.46176   0.00000  Uiso   1.00
O662   O     0.83334   0.22774   0.53824   0.00000  Uiso   1.00
O663   O     0.75725   0.16666   0.52928   0.00000  Uiso   1.00
O664   O     0.90942   0.16667   0.47072   0.00000  Uiso   1.00
O665   O     0.75725   0.16667   0.45284   0.00000  Uiso   1.00
O666   O     0.90942   0.16666   0.54716   0.00000  Uiso   1.00
Zn667  Zn    0.83333   0.16666   0.55104   0.00000  Uiso   1.00
Zn668  Zn    0.83333   0.16667   0.44896   0.00000  Uiso   1.00
S669   S     0.67170   0.22087   0.45298   0.00000  Uiso   1.00
O670   O     0.98194   0.20513   0.40825   0.00000  Uiso   1.00
O671   O     0.96924   0.24605   0.47429   0.00000  Uiso   1.00
O672   O     0.72714   0.25133   0.44584   0.00000  Uiso   1.00
H673   H     0.71715   0.27393   0.42518   0.00000  Uiso   1.00
S674   S     0.99506   0.11247   0.54712   0.00000  Uiso   1.00
O675   O     0.69762   0.08730   0.52596   0.00000  Uiso   1.00
O676   O     0.68518   0.12826   0.59176   0.00000  Uiso   1.00
O677   O     0.93985   0.08155   0.55430   0.00000  Uiso   1.00
H678   H     0.93035   0.08796   0.58435   0.00000  Uiso   1.00
C679   C     0.87223   0.04392   0.42447   0.00000  Uiso   1.00
N680   N     0.89093   0.06087   0.39449   0.00000  Uiso   1.00
C681   C     0.79458   0.28945   0.57555   0.00000  Uiso   1.00
N682   N     0.77587   0.27252   0.60554   0.00000  Uiso   1.00
C683   C     0.88607   0.23315   0.38347   0.00000  Uiso   1.00
N684   N     0.90749   0.26236   0.40122   0.00000  Uiso   1.00
C685   C     0.78077   0.10010   0.61659   0.00000  Uiso   1.00
N686   N     0.75942   0.07083   0.59888   0.00000  Uiso   1.00
S687   S     0.91018   0.23762   0.62346   0.00000  Uiso   1.00
O688   O     0.89339   0.27917   0.63318   0.00000  Uiso   1.00
O689   O     0.96072   0.23415   0.65045   0.00000  Uiso   1.00
O690   O     0.92362   0.23930   0.57003   0.00000  Uiso   1.00
H691   H     0.94865   0.26458   0.56715   0.00000  Uiso   1.00
S692   S     0.75654   0.09568   0.37655   0.00000  Uiso   1.00
O693   O     0.70601   0.09906   0.34951   0.00000  Uiso   1.00
O694   O     0.77341   0.05414   0.36692   0.00000  Uiso   1.00
O695   O     0.74303   0.09404   0.42996   0.00000  Uiso   1.00
H696   H     0.71812   0.06869   0.43289   0.00000  Uiso   1.00
C697   C     0.16941   0.42042   0.50045   0.00000  Uiso   1.00
C698   C     0.16397   0.57959   0.49956   0.00000  Uiso   1.00
C699   C     0.06798   0.50074   0.48946   0.00000  Uiso   1.00
C700   C     0.26534   0.49921   0.51055   0.00000  Uiso   1.00
C701   C     0.01670   0.51006   0.48657   0.00000  Uiso   1.00
C702   C     0.31661   0.48988   0.51345   0.00000  Uiso   1.00
C703   C     0.18252   0.35593   0.46208   0.00000  Uiso   1.00
C704   C     0.15096   0.64409   0.53794   0.00000  Uiso   1.00
C705   C     0.17377   0.64655   0.46107   0.00000  Uiso   1.00
C706   C     0.15975   0.35347   0.53896   0.00000  Uiso   1.00
C707   C     0.16109   0.62374   0.49930   0.00000  Uiso   1.00
C708   C     0.17237   0.37628   0.50071   0.00000  Uiso   1.00
C709   C     0.19413   0.53124   0.35878   0.00000  Uiso   1.00
C710   C     0.13926   0.46873   0.64123   0.00000  Uiso   1.00
C711   C     0.19667   0.53085   0.64466   0.00000  Uiso   1.00
C712   C     0.13669   0.46914   0.35534   0.00000  Uiso   1.00
H713   H     0.17751   0.63128   0.43039   0.00000  Uiso   1.00
H714   H     0.15609   0.36874   0.56965   0.00000  Uiso   1.00
N715   N     0.16665   0.49999   0.61907   0.00000  Uiso   1.00
N716   N     0.16668   0.50001   0.38093   0.00000  Uiso   1.00
O717   O     0.16666   0.43892   0.53821   0.00000  Uiso   1.00
O718   O     0.16667   0.56108   0.46179   0.00000  Uiso   1.00
O719   O     0.16666   0.43893   0.46176   0.00000  Uiso   1.00
O720   O     0.16667   0.56107   0.53824   0.00000  Uiso   1.00
O721   O     0.09058   0.50000   0.52928   0.00000  Uiso   1.00
O722   O     0.24275   0.50000   0.47072   0.00000  Uiso   1.00
O723   O     0.09058   0.50000   0.45284   0.00000  Uiso   1.00
O724   O     0.24275   0.50000   0.54716   0.00000  Uiso   1.00
Zn725  Zn    0.16667   0.49999   0.55104   0.00000  Uiso   1.00
Zn726  Zn    0.16667   0.50001   0.44896   0.00000  Uiso   1.00
S727   S     0.00503   0.55420   0.45298   0.00000  Uiso   1.00
O728   O     0.31527   0.53847   0.40825   0.00000  Uiso   1.00
O729   O     0.30257   0.57938   0.47429   0.00000  Uiso   1.00
O730   O     0.06048   0.58467   0.44584   0.00000  Uiso   1.00
H731   H     0.05049   0.60726   0.42518   0.00000  Uiso   1.00
S732   S     0.32839   0.44580   0.54712   0.00000  Uiso   1.00
O733   O     0.03095   0.42063   0.52596   0.00000  Uiso   1.00
O734   O     0.01851   0.46159   0.59176   0.00000  Uiso   1.00
O735   O     0.27318   0.41489   0.55430   0.00000  Uiso   1.00
H736   H     0.26369   0.42129   0.58435   0.00000  Uiso   1.00
C737   C     0.20557   0.37725   0.42447   0.00000  Uiso   1.00
N738   N     0.22426   0.39420   0.39449   0.00000  Uiso   1.00
C739   C     0.12791   0.62279   0.57555   0.00000  Uiso   1.00
N740   N     0.10921   0.60585   0.60554   0.00000  Uiso   1.00
C741   C     0.21941   0.56648   0.38347   0.00000  Uiso   1.00
N742   N     0.24082   0.59569   0.40122   0.00000  Uiso   1.00
C743   C     0.11410   0.43343   0.61659   0.00000  Uiso   1.00
N744   N     0.09276   0.40417   0.59888   0.00000  Uiso   1.00
S745   S     0.24351   0.57095   0.62346   0.00000  Uiso   1.00
O746   O     0.22673   0.61251   0.63318   0.00000  Uiso   1.00
O747   O     0.29405   0.56748   0.65045   0.00000  Uiso   1.00
O748   O     0.25695   0.57263   0.57003   0.00000  Uiso   1.00
H749   H     0.28199   0.59791   0.56715   0.00000  Uiso   1.00
S750   S     0.08987   0.42901   0.37655   0.00000  Uiso   1.00
O751   O     0.03935   0.43240   0.34951   0.00000  Uiso   1.00
O752   O     0.10675   0.38747   0.36692   0.00000  Uiso   1.00
O753   O     0.07637   0.42737   0.42996   0.00000  Uiso   1.00
H754   H     0.05145   0.40202   0.43289   0.00000  Uiso   1.00
C755   C     0.50274   0.42042   0.50045   0.00000  Uiso   1.00
C756   C     0.49730   0.57959   0.49956   0.00000  Uiso   1.00
C757   C     0.40131   0.50074   0.48946   0.00000  Uiso   1.00
C758   C     0.59867   0.49921   0.51055   0.00000  Uiso   1.00
C759   C     0.35003   0.51006   0.48657   0.00000  Uiso   1.00
C760   C     0.64995   0.48988   0.51345   0.00000  Uiso   1.00
C761   C     0.51585   0.35593   0.46208   0.00000  Uiso   1.00
C762   C     0.48429   0.64409   0.53794   0.00000  Uiso   1.00
C763   C     0.50711   0.64655   0.46107   0.00000  Uiso   1.00
C764   C     0.49308   0.35347   0.53896   0.00000  Uiso   1.00
C765   C     0.49443   0.62374   0.49930   0.00000  Uiso   1.00
C766   C     0.50570   0.37628   0.50071   0.00000  Uiso   1.00
C767   C     0.52746   0.53124   0.35878   0.00000  Uiso   1.00
C768   C     0.47259   0.46873   0.64123   0.00000  Uiso   1.00
C769   C     0.53000   0.53085   0.64466   0.00000  Uiso   1.00
C770   C     0.47002   0.46914   0.35534   0.00000  Uiso   1.00
H771   H     0.51084   0.63128   0.43039   0.00000  Uiso   1.00
H772   H     0.48943   0.36874   0.56965   0.00000  Uiso   1.00
N773   N     0.49999   0.49999   0.61907   0.00000  Uiso   1.00
N774   N     0.50001   0.50001   0.38093   0.00000  Uiso   1.00
O775   O     0.50000   0.43892   0.53821   0.00000  Uiso   1.00
O776   O     0.50000   0.56108   0.46179   0.00000  Uiso   1.00
O777   O     0.50000   0.43893   0.46176   0.00000  Uiso   1.00
O778   O     0.50000   0.56107   0.53824   0.00000  Uiso   1.00
O779   O     0.42392   0.50000   0.52928   0.00000  Uiso   1.00
O780   O     0.57608   0.50000   0.47072   0.00000  Uiso   1.00
O781   O     0.42392   0.50000   0.45284   0.00000  Uiso   1.00
O782   O     0.57608   0.50000   0.54716   0.00000  Uiso   1.00
Zn783  Zn    0.50000   0.49999   0.55104   0.00000  Uiso   1.00
Zn784  Zn    0.50000   0.50001   0.44896   0.00000  Uiso   1.00
S785   S     0.33836   0.55420   0.45298   0.00000  Uiso   1.00
O786   O     0.64861   0.53847   0.40825   0.00000  Uiso   1.00
O787   O     0.63591   0.57938   0.47429   0.00000  Uiso   1.00
O788   O     0.39381   0.58467   0.44584   0.00000  Uiso   1.00
H789   H     0.38382   0.60726   0.42518   0.00000  Uiso   1.00
S790   S     0.66172   0.44580   0.54712   0.00000  Uiso   1.00
O791   O     0.36428   0.42063   0.52596   0.00000  Uiso   1.00
O792   O     0.35185   0.46159   0.59176   0.00000  Uiso   1.00
O793   O     0.60652   0.41489   0.55430   0.00000  Uiso   1.00
H794   H     0.59702   0.42129   0.58435   0.00000  Uiso   1.00
C795   C     0.53890   0.37725   0.42447   0.00000  Uiso   1.00
N796   N     0.55760   0.39420   0.39449   0.00000  Uiso   1.00
C797   C     0.46124   0.62279   0.57555   0.00000  Uiso   1.00
N798   N     0.44254   0.60585   0.60554   0.00000  Uiso   1.00
C799   C     0.55274   0.56648   0.38347   0.00000  Uiso   1.00
N800   N     0.57415   0.59569   0.40122   0.00000  Uiso   1.00
C801   C     0.44743   0.43343   0.61659   0.00000  Uiso   1.00
N802   N     0.42609   0.40417   0.59888   0.00000  Uiso   1.00
S803   S     0.57685   0.57095   0.62346   0.00000  Uiso   1.00
O804   O     0.56006   0.61251   0.63318   0.00000  Uiso   1.00
O805   O     0.62738   0.56748   0.65045   0.00000  Uiso   1.00
O806   O     0.59029   0.57263   0.57003   0.00000  Uiso   1.00
H807   H     0.61532   0.59791   0.56715   0.00000  Uiso   1.00
S808   S     0.42321   0.42901   0.37655   0.00000  Uiso   1.00
O809   O     0.37268   0.43240   0.34951   0.00000  Uiso   1.00
O810   O     0.44008   0.38747   0.36692   0.00000  Uiso   1.00
O811   O     0.40970   0.42737   0.42996   0.00000  Uiso   1.00
H812   H     0.38479   0.40202   0.43289   0.00000  Uiso   1.00
C813   C     0.83608   0.42042   0.50045   0.00000  Uiso   1.00
C814   C     0.83063   0.57959   0.49956   0.00000  Uiso   1.00
C815   C     0.73465   0.50074   0.48946   0.00000  Uiso   1.00
C816   C     0.93200   0.49921   0.51055   0.00000  Uiso   1.00
C817   C     0.68337   0.51006   0.48657   0.00000  Uiso   1.00
C818   C     0.98328   0.48988   0.51345   0.00000  Uiso   1.00
C819   C     0.84919   0.35593   0.46208   0.00000  Uiso   1.00
C820   C     0.81763   0.64409   0.53794   0.00000  Uiso   1.00
C821   C     0.84044   0.64655   0.46107   0.00000  Uiso   1.00
C822   C     0.82642   0.35347   0.53896   0.00000  Uiso   1.00
C823   C     0.82776   0.62374   0.49930   0.00000  Uiso   1.00
C824   C     0.83903   0.37628   0.50071   0.00000  Uiso   1.00
C825   C     0.86080   0.53124   0.35878   0.00000  Uiso   1.00
C826   C     0.80592   0.46873   0.64123   0.00000  Uiso   1.00
C827   C     0.86334   0.53085   0.64466   0.00000  Uiso   1.00
C828   C     0.80335   0.46914   0.35534   0.00000  Uiso   1.00
H829   H     0.84417   0.63128   0.43039   0.00000  Uiso   1.00
H830   H     0.82276   0.36874   0.56965   0.00000  Uiso   1.00
N831   N     0.83332   0.49999   0.61907   0.00000  Uiso   1.00
N832   N     0.83335   0.50001   0.38093   0.00000  Uiso   1.00
O833   O     0.83333   0.43892   0.53821   0.00000  Uiso   1.00
O834   O     0.83334   0.56108   0.46179   0.00000  Uiso   1.00
O835   O     0.83333   0.43893   0.46176   0.00000  Uiso   1.00
O836   O     0.83334   0.56107   0.53824   0.00000  Uiso   1.00
O837   O     0.75725   0.50000   0.52928   0.00000  Uiso   1.00
O838   O     0.90942   0.50000   0.47072   0.00000  Uiso   1.00
O839   O     0.75725   0.50000   0.45284   0.00000  Uiso   1.00
O840   O     0.90942   0.50000   0.54716   0.00000  Uiso   1.00
Zn841  Zn    0.83333   0.49999   0.55104   0.00000  Uiso   1.00
Zn842  Zn    0.83333   0.50001   0.44896   0.00000  Uiso   1.00
S843   S     0.67170   0.55420   0.45298   0.00000  Uiso   1.00
O844   O     0.98194   0.53847   0.40825   0.00000  Uiso   1.00
O845   O     0.96924   0.57938   0.47429   0.00000  Uiso   1.00
O846   O     0.72714   0.58467   0.44584   0.00000  Uiso   1.00
H847   H     0.71715   0.60726   0.42518   0.00000  Uiso   1.00
S848   S     0.99506   0.44580   0.54712   0.00000  Uiso   1.00
O849   O     0.69762   0.42063   0.52596   0.00000  Uiso   1.00
O850   O     0.68518   0.46159   0.59176   0.00000  Uiso   1.00
O851   O     0.93985   0.41489   0.55430   0.00000  Uiso   1.00
H852   H     0.93035   0.42129   0.58435   0.00000  Uiso   1.00
C853   C     0.87223   0.37725   0.42447   0.00000  Uiso   1.00
N854   N     0.89093   0.39420   0.39449   0.00000  Uiso   1.00
C855   C     0.79458   0.62279   0.57555   0.00000  Uiso   1.00
N856   N     0.77587   0.60585   0.60554   0.00000  Uiso   1.00
C857   C     0.88607   0.56648   0.38347   0.00000  Uiso   1.00
N858   N     0.90749   0.59569   0.40122   0.00000  Uiso   1.00
C859   C     0.78077   0.43343   0.61659   0.00000  Uiso   1.00
N860   N     0.75942   0.40417   0.59888   0.00000  Uiso   1.00
S861   S     0.91018   0.57095   0.62346   0.00000  Uiso   1.00
O862   O     0.89339   0.61251   0.63318   0.00000  Uiso   1.00
O863   O     0.96072   0.56748   0.65045   0.00000  Uiso   1.00
O864   O     0.92362   0.57263   0.57003   0.00000  Uiso   1.00
H865   H     0.94865   0.59791   0.56715   0.00000  Uiso   1.00
S866   S     0.75654   0.42901   0.37655   0.00000  Uiso   1.00
O867   O     0.70601   0.43240   0.34951   0.00000  Uiso   1.00
O868   O     0.77341   0.38747   0.36692   0.00000  Uiso   1.00
O869   O     0.74303   0.42737   0.42996   0.00000  Uiso   1.00
H870   H     0.71812   0.40202   0.43289   0.00000  Uiso   1.00
C871   C     0.16941   0.75375   0.50045   0.00000  Uiso   1.00
C872   C     0.16397   0.91293   0.49956   0.00000  Uiso   1.00
C873   C     0.06798   0.83407   0.48946   0.00000  Uiso   1.00
C874   C     0.26534   0.83254   0.51055   0.00000  Uiso   1.00
C875   C     0.01670   0.84339   0.48657   0.00000  Uiso   1.00
C876   C     0.31661   0.82321   0.51345   0.00000  Uiso   1.00
C877   C     0.18252   0.68927   0.46208   0.00000  Uiso   1.00
C878   C     0.15096   0.97742   0.53794   0.00000  Uiso   1.00
C879   C     0.17377   0.97988   0.46107   0.00000  Uiso   1.00
C880   C     0.15975   0.68680   0.53896   0.00000  Uiso   1.00
C881   C     0.16109   0.95707   0.49930   0.00000  Uiso   1.00
C882   C     0.17237   0.70961   0.50071   0.00000  Uiso   1.00
C883   C     0.19413   0.86457   0.35878   0.00000  Uiso   1.00
C884   C     0.13926   0.80207   0.64123   0.00000  Uiso   1.00
C885   C     0.19667   0.86419   0.64466   0.00000  Uiso   1.00
C886   C     0.13669   0.80247   0.35534   0.00000  Uiso   1.00
H887   H     0.17751   0.96461   0.43039   0.00000  Uiso   1.00
H888   H     0.15609   0.70207   0.56965   0.00000  Uiso   1.00
N889   N     0.16665   0.83332   0.61907   0.00000  Uiso   1.00
N890   N     0.16668   0.83334   0.38093   0.00000  Uiso   1.00
O891   O     0.16666   0.77225   0.53821   0.00000  Uiso   1.00
O892   O     0.16667   0.89442   0.46179   0.00000  Uiso   1.00
O893   O     0.16666   0.77226   0.46176   0.00000  Uiso   1.00
O894   O     0.16667   0.89441   0.53824   0.00000  Uiso   1.00
O895   O     0.09058   0.83333   0.52928   0.00000  Uiso   1.00
O896   O     0.24275   0.83334   0.47072   0.00000  Uiso   1.00
O897   O     0.09058   0.83334   0.45284   0.00000  Uiso   1.00
O898   O     0.24275   0.83333   0.54716   0.00000  Uiso   1.00
Zn899  Zn    0.16667   0.83333   0.55104   0.00000  Uiso   1.00
Zn900  Zn    0.16667   0.83334   0.44896   0.00000  Uiso   1.00
S901   S     0.00503   0.88753   0.45298   0.00000  Uiso   1.00
O902   O     0.31527   0.87180   0.40825   0.00000  Uiso   1.00
O903   O     0.30257   0.91272   0.47429   0.00000  Uiso   1.00
O904   O     0.06048   0.91800   0.44584   0.00000  Uiso   1.00
H905   H     0.05049   0.94060   0.42518   0.00000  Uiso   1.00
S906   S     0.32839   0.77913   0.54712   0.00000  Uiso   1.00
O907   O     0.03095   0.75397   0.52596   0.00000  Uiso   1.00
O908   O     0.01851   0.79492   0.59176   0.00000  Uiso   1.00
O909   O     0.27318   0.74822   0.55430   0.00000  Uiso   1.00
H910   H     0.26369   0.75463   0.58435   0.00000  Uiso   1.00
C911   C     0.20557   0.71059   0.42447   0.00000  Uiso   1.00
N912   N     0.22426   0.72754   0.39449   0.00000  Uiso   1.00
C913   C     0.12791   0.95612   0.57555   0.00000  Uiso   1.00
N914   N     0.10921   0.93918   0.60554   0.00000  Uiso   1.00
C915   C     0.21941   0.89982   0.38347   0.00000  Uiso   1.00
N916   N     0.24082   0.92902   0.40122   0.00000  Uiso   1.00
C917   C     0.11410   0.76676   0.61659   0.00000  Uiso   1.00
N918   N     0.09276   0.73750   0.59888   0.00000  Uiso   1.00
S919   S     0.24351   0.90429   0.62346   0.00000  Uiso   1.00
O920   O     0.22673   0.94584   0.63318   0.00000  Uiso   1.00
O921   O     0.29405   0.90082   0.65045   0.00000  Uiso   1.00
O922   O     0.25695   0.90596   0.57003   0.00000  Uiso   1.00
H923   H     0.28199   0.93125   0.56715   0.00000  Uiso   1.00
S924   S     0.08987   0.76234   0.37655   0.00000  Uiso   1.00
O925   O     0.03935   0.76573   0.34951   0.00000  Uiso   1.00
O926   O     0.10675   0.72080   0.36692   0.00000  Uiso   1.00
O927   O     0.07637   0.76071   0.42996   0.00000  Uiso   1.00
H928   H     0.05145   0.73536   0.43289   0.00000  Uiso   1.00
C929   C     0.50274   0.75375   0.50045   0.00000  Uiso   1.00
C930   C     0.49730   0.91293   0.49956   0.00000  Uiso   1.00
C931   C     0.40131   0.83407   0.48946   0.00000  Uiso   1.00
C932   C     0.59867   0.83254   0.51055   0.00000  Uiso   1.00
C933   C     0.35003   0.84339   0.48657   0.00000  Uiso   1.00
C934   C     0.64995   0.82321   0.51345   0.00000  Uiso   1.00
C935   C     0.51585   0.68927   0.46208   0.00000  Uiso   1.00
C936   C     0.48429   0.97742   0.53794   0.00000  Uiso   1.00
C937   C     0.50711   0.97988   0.46107   0.00000  Uiso   1.00
C938   C     0.49308   0.68680   0.53896   0.00000  Uiso   1.00
C939   C     0.49443   0.95707   0.49930   0.00000  Uiso   1.00
C940   C     0.50570   0.70961   0.50071   0.00000  Uiso   1.00
C941   C     0.52746   0.86457   0.35878   0.00000  Uiso   1.00
C942   C     0.47259   0.80207   0.64123   0.00000  Uiso   1.00
C943   C     0.53000   0.86419   0.64466   0.00000  Uiso   1.00
C944   C     0.47002   0.80247   0.35534   0.00000  Uiso   1.00
H945   H     0.51084   0.96461   0.43039   0.00000  Uiso   1.00
H946   H     0.48943   0.70207   0.56965   0.00000  Uiso   1.00
N947   N     0.49999   0.83332   0.61907   0.00000  Uiso   1.00
N948   N     0.50001   0.83334   0.38093   0.00000  Uiso   1.00
O949   O     0.50000   0.77225   0.53821   0.00000  Uiso   1.00
O950   O     0.50000   0.89442   0.46179   0.00000  Uiso   1.00
O951   O     0.50000   0.77226   0.46176   0.00000  Uiso   1.00
O952   O     0.50000   0.89441   0.53824   0.00000  Uiso   1.00
O953   O     0.42392   0.83333   0.52928   0.00000  Uiso   1.00
O954   O     0.57608   0.83334   0.47072   0.00000  Uiso   1.00
O955   O     0.42392   0.83334   0.45284   0.00000  Uiso   1.00
O956   O     0.57608   0.83333   0.54716   0.00000  Uiso   1.00
Zn957  Zn    0.50000   0.83333   0.55104   0.00000  Uiso   1.00
Zn958  Zn    0.50000   0.83334   0.44896   0.00000  Uiso   1.00
S959   S     0.33836   0.88753   0.45298   0.00000  Uiso   1.00
O960   O     0.64861   0.87180   0.40825   0.00000  Uiso   1.00
O961   O     0.63591   0.91272   0.47429   0.00000  Uiso   1.00
O962   O     0.39381   0.91800   0.44584   0.00000  Uiso   1.00
H963   H     0.38382   0.94060   0.42518   0.00000  Uiso   1.00
S964   S     0.66172   0.77913   0.54712   0.00000  Uiso   1.00
O965   O     0.36428   0.75397   0.52596   0.00000  Uiso   1.00
O966   O     0.35185   0.79492   0.59176   0.00000  Uiso   1.00
O967   O     0.60652   0.74822   0.55430   0.00000  Uiso   1.00
H968   H     0.59702   0.75463   0.58435   0.00000  Uiso   1.00
C969   C     0.53890   0.71059   0.42447   0.00000  Uiso   1.00
N970   N     0.55760   0.72754   0.39449   0.00000  Uiso   1.00
C971   C     0.46124   0.95612   0.57555   0.00000  Uiso   1.00
N972   N     0.44254   0.93918   0.60554   0.00000  Uiso   1.00
C973   C     0.55274   0.89982   0.38347   0.00000  Uiso   1.00
N974   N     0.57415   0.92902   0.40122   0.00000  Uiso   1.00
C975   C     0.44743   0.76676   0.61659   0.00000  Uiso   1.00
N976   N     0.42609   0.73750   0.59888   0.00000  Uiso   1.00
S977   S     0.57685   0.90429   0.62346   0.00000  Uiso   1.00
O978   O     0.56006   0.94584   0.63318   0.00000  Uiso   1.00
O979   O     0.62738   0.90082   0.65045   0.00000  Uiso   1.00
O980   O     0.59029   0.90596   0.57003   0.00000  Uiso   1.00
H981   H     0.61532   0.93125   0.56715   0.00000  Uiso   1.00
S982   S     0.42321   0.76234   0.37655   0.00000  Uiso   1.00
O983   O     0.37268   0.76573   0.34951   0.00000  Uiso   1.00
O984   O     0.44008   0.72080   0.36692   0.00000  Uiso   1.00
O985   O     0.40970   0.76071   0.42996   0.00000  Uiso   1.00
H986   H     0.38479   0.73536   0.43289   0.00000  Uiso   1.00
C987   C     0.83608   0.75375   0.50045   0.00000  Uiso   1.00
C988   C     0.83063   0.91293   0.49956   0.00000  Uiso   1.00
C989   C     0.73465   0.83407   0.48946   0.00000  Uiso   1.00
C990   C     0.93200   0.83254   0.51055   0.00000  Uiso   1.00
C991   C     0.68337   0.84339   0.48657   0.00000  Uiso   1.00
C992   C     0.98328   0.82321   0.51345   0.00000  Uiso   1.00
C993   C     0.84919   0.68927   0.46208   0.00000  Uiso   1.00
C994   C     0.81763   0.97742   0.53794   0.00000  Uiso   1.00
C995   C     0.84044   0.97988   0.46107   0.00000  Uiso   1.00
C996   C     0.82642   0.68680   0.53896   0.00000  Uiso   1.00
C997   C     0.82776   0.95707   0.49930   0.00000  Uiso   1.00
C998   C     0.83903   0.70961   0.50071   0.00000  Uiso   1.00
C999   C     0.86080   0.86457   0.35878   0.00000  Uiso   1.00
C1000  C     0.80592   0.80207   0.64123   0.00000  Uiso   1.00
C1001  C     0.86334   0.86419   0.64466   0.00000  Uiso   1.00
C1002  C     0.80335   0.80247   0.35534   0.00000  Uiso   1.00
H1003  H     0.84417   0.96461   0.43039   0.00000  Uiso   1.00
H1004  H     0.82276   0.70207   0.56965   0.00000  Uiso   1.00
N1005  N     0.83332   0.83332   0.61907   0.00000  Uiso   1.00
N1006  N     0.83335   0.83334   0.38093   0.00000  Uiso   1.00
O1007  O     0.83333   0.77225   0.53821   0.00000  Uiso   1.00
O1008  O     0.83334   0.89442   0.46179   0.00000  Uiso   1.00
O1009  O     0.83333   0.77226   0.46176   0.00000  Uiso   1.00
O1010  O     0.83334   0.89441   0.53824   0.00000  Uiso   1.00
O1011  O     0.75725   0.83333   0.52928   0.00000  Uiso   1.00
O1012  O     0.90942   0.83334   0.47072   0.00000  Uiso   1.00
O1013  O     0.75725   0.83334   0.45284   0.00000  Uiso   1.00
O1014  O     0.90942   0.83333   0.54716   0.00000  Uiso   1.00
Zn1015 Zn    0.83333   0.83333   0.55104   0.00000  Uiso   1.00
Zn1016 Zn    0.83333   0.83334   0.44896   0.00000  Uiso   1.00
S1017  S     0.67170   0.88753   0.45298   0.00000  Uiso   1.00
O1018  O     0.98194   0.87180   0.40825   0.00000  Uiso   1.00
O1019  O     0.96924   0.91272   0.47429   0.00000  Uiso   1.00
O1020  O     0.72714   0.91800   0.44584   0.00000  Uiso   1.00
H1021  H     0.71715   0.94060   0.42518   0.00000  Uiso   1.00
S1022  S     0.99506   0.77913   0.54712   0.00000  Uiso   1.00
O1023  O     0.69762   0.75397   0.52596   0.00000  Uiso   1.00
O1024  O     0.68518   0.79492   0.59176   0.00000  Uiso   1.00
O1025  O     0.93985   0.74822   0.55430   0.00000  Uiso   1.00
H1026  H     0.93035   0.75463   0.58435   0.00000  Uiso   1.00
C1027  C     0.87223   0.71059   0.42447   0.00000  Uiso   1.00
N1028  N     0.89093   0.72754   0.39449   0.00000  Uiso   1.00
C1029  C     0.79458   0.95612   0.57555   0.00000  Uiso   1.00
N1030  N     0.77587   0.93918   0.60554   0.00000  Uiso   1.00
C1031  C     0.88607   0.89982   0.38347   0.00000  Uiso   1.00
N1032  N     0.90749   0.92902   0.40122   0.00000  Uiso   1.00
C1033  C     0.78077   0.76676   0.61659   0.00000  Uiso   1.00
N1034  N     0.75942   0.73750   0.59888   0.00000  Uiso   1.00
S1035  S     0.91018   0.90429   0.62346   0.00000  Uiso   1.00
O1036  O     0.89339   0.94584   0.63318   0.00000  Uiso   1.00
O1037  O     0.96072   0.90082   0.65045   0.00000  Uiso   1.00
O1038  O     0.92362   0.90596   0.57003   0.00000  Uiso   1.00
H1039  H     0.94865   0.93125   0.56715   0.00000  Uiso   1.00
S1040  S     0.75654   0.76234   0.37655   0.00000  Uiso   1.00
O1041  O     0.70601   0.76573   0.34951   0.00000  Uiso   1.00
O1042  O     0.77341   0.72080   0.36692   0.00000  Uiso   1.00
O1043  O     0.74303   0.76071   0.42996   0.00000  Uiso   1.00
H1044  H     0.71812   0.73536   0.43289   0.00000  Uiso   1.00
C1045  C     0.16941   0.08708   0.83378   0.00000  Uiso   1.00
C1046  C     0.16397   0.24626   0.83289   0.00000  Uiso   1.00
C1047  C     0.06798   0.16741   0.82279   0.00000  Uiso   1.00
C1048  C     0.26534   0.16587   0.84388   0.00000  Uiso   1.00
C1049  C     0.01670   0.17672   0.81990   0.00000  Uiso   1.00
C1050  C     0.31661   0.15655   0.84678   0.00000  Uiso   1.00
C1051  C     0.18252   0.02260   0.79541   0.00000  Uiso   1.00
C1052  C     0.15096   0.31076   0.87127   0.00000  Uiso   1.00
C1053  C     0.17377   0.31322   0.79440   0.00000  Uiso   1.00
C1054  C     0.15975   0.02014   0.87229   0.00000  Uiso   1.00
C1055  C     0.16109   0.29041   0.83263   0.00000  Uiso   1.00
C1056  C     0.17237   0.04295   0.83404   0.00000  Uiso   1.00
C1057  C     0.19413   0.19791   0.69211   0.00000  Uiso   1.00
C1058  C     0.13926   0.13540   0.97457   0.00000  Uiso   1.00
C1059  C     0.19667   0.19752   0.97800   0.00000  Uiso   1.00
C1060  C     0.13669   0.13580   0.68867   0.00000  Uiso   1.00
H1061  H     0.17751   0.29795   0.76372   0.00000  Uiso   1.00
H1062  H     0.15609   0.03540   0.90298   0.00000  Uiso   1.00
N1063  N     0.16665   0.16666   0.95240   0.00000  Uiso   1.00
N1064  N     0.16668   0.16668   0.71427   0.00000  Uiso   1.00
O1065  O     0.16666   0.10558   0.87154   0.00000  Uiso   1.00
O1066  O     0.16667   0.22775   0.79513   0.00000  Uiso   1.00
O1067  O     0.16666   0.10559   0.79510   0.00000  Uiso   1.00
O1068  O     0.16667   0.22774   0.87157   0.00000  Uiso   1.00
O1069  O     0.09058   0.16666   0.86261   0.00000  Uiso   1.00
O1070  O     0.24275   0.16667   0.80405   0.00000  Uiso   1.00
O1071  O     0.09058   0.16667   0.78617   0.00000  Uiso   1.00
O1072  O     0.24275   0.16666   0.88050   0.00000  Uiso   1.00
Zn1073 Zn    0.16667   0.16666   0.88437   0.00000  Uiso   1.00
Zn1074 Zn    0.16667   0.16667   0.78229   0.00000  Uiso   1.00
S1075  S     0.00503   0.22087   0.78632   0.00000  Uiso   1.00
O1076  O     0.31527   0.20513   0.74158   0.00000  Uiso   1.00
O1077  O     0.30257   0.24605   0.80762   0.00000  Uiso   1.00
O1078  O     0.06048   0.25133   0.77917   0.00000  Uiso   1.00
H1079  H     0.05049   0.27393   0.75851   0.00000  Uiso   1.00
S1080  S     0.32839   0.11247   0.88045   0.00000  Uiso   1.00
O1081  O     0.03095   0.08730   0.85929   0.00000  Uiso   1.00
O1082  O     0.01851   0.12826   0.92509   0.00000  Uiso   1.00
O1083  O     0.27318   0.08155   0.88763   0.00000  Uiso   1.00
H1084  H     0.26369   0.08796   0.91769   0.00000  Uiso   1.00
C1085  C     0.20557   0.04392   0.75780   0.00000  Uiso   1.00
N1086  N     0.22426   0.06087   0.72782   0.00000  Uiso   1.00
C1087  C     0.12791   0.28945   0.90888   0.00000  Uiso   1.00
N1088  N     0.10921   0.27252   0.93887   0.00000  Uiso   1.00
C1089  C     0.21941   0.23315   0.71680   0.00000  Uiso   1.00
N1090  N     0.24082   0.26236   0.73455   0.00000  Uiso   1.00
C1091  C     0.11410   0.10010   0.94992   0.00000  Uiso   1.00
N1092  N     0.09276   0.07083   0.93222   0.00000  Uiso   1.00
S1093  S     0.24351   0.23762   0.95679   0.00000  Uiso   1.00
O1094  O     0.22673   0.27917   0.96651   0.00000  Uiso   1.00
O1095  O     0.29405   0.23415   0.98379   0.00000  Uiso   1.00
O1096  O     0.25695   0.23930   0.90337   0.00000  Uiso   1.00
H1097  H     0.28199   0.26458   0.90048   0.00000  Uiso   1.00
S1098  S     0.08987   0.09568   0.70989   0.00000  Uiso   1.00
O1099  O     0.03935   0.09906   0.68284   0.00000  Uiso   1.00
O1100  O     0.10675   0.05414   0.70025   0.00000  Uiso   1.00
O1101  O     0.07637   0.09404   0.76330   0.00000  Uiso   1.00
H1102  H     0.05145   0.06869   0.76622   0.00000  Uiso   1.00
C1103  C     0.50274   0.08708   0.83378   0.00000  Uiso   1.00
C1104  C     0.49730   0.24626   0.83289   0.00000  Uiso   1.00
C1105  C     0.40131   0.16741   0.82279   0.00000  Uiso   1.00
C1106  C     0.59867   0.16587   0.84388   0.00000  Uiso   1.00
C1107  C     0.35003   0.17672   0.81990   0.00000  Uiso   1.00
C1108  C     0.64995   0.15655   0.84678   0.00000  Uiso   1.00
C1109  C     0.51585   0.02260   0.79541   0.00000  Uiso   1.00
C1110  C     0.48429   0.31076   0.87127   0.00000  Uiso   1.00
C1111  C     0.50711   0.31322   0.79440   0.00000  Uiso   1.00
C1112  C     0.49308   0.02014   0.87229   0.00000  Uiso   1.00
C1113  C     0.49443   0.29041   0.83263   0.00000  Uiso   1.00
C1114  C     0.50570   0.04295   0.83404   0.00000  Uiso   1.00
C1115  C     0.52746   0.19791   0.69211   0.00000  Uiso   1.00
C1116  C     0.47259   0.13540   0.97457   0.00000  Uiso   1.00
C1117  C     0.53000   0.19752   0.97800   0.00000  Uiso   1.00
C1118  C     0.47002   0.13580   0.68867   0.00000  Uiso   1.00
H1119  H     0.51084   0.29795   0.76372   0.00000  Uiso   1.00
H1120  H     0.48943   0.03540   0.90298   0.00000  Uiso   1.00
N1121  N     0.49999   0.16666   0.95240   0.00000  Uiso   1.00
N1122  N     0.50001   0.16668   0.71427   0.00000  Uiso   1.00
O1123  O     0.50000   0.10558   0.87154   0.00000  Uiso   1.00
O1124  O     0.50000   0.22775   0.79513   0.00000  Uiso   1.00
O1125  O     0.50000   0.10559   0.79510   0.00000  Uiso   1.00
O1126  O     0.50000   0.22774   0.87157   0.00000  Uiso   1.00
O1127  O     0.42392   0.16666   0.86261   0.00000  Uiso   1.00
O1128  O     0.57608   0.16667   0.80405   0.00000  Uiso   1.00
O1129  O     0.42392   0.16667   0.78617   0.00000  Uiso   1.00
O1130  O     0.57608   0.16666   0.88050   0.00000  Uiso   1.00
Zn1131 Zn    0.50000   0.16666   0.88437   0.00000  Uiso   1.00
Zn1132 Zn    0.50000   0.16667   0.78229   0.00000  Uiso   1.00
S1133  S     0.33836   0.22087   0.78632   0.00000  Uiso   1.00
O1134  O     0.64861   0.20513   0.74158   0.00000  Uiso   1.00
O1135  O     0.63591   0.24605   0.80762   0.00000  Uiso   1.00
O1136  O     0.39381   0.25133   0.77917   0.00000  Uiso   1.00
H1137  H     0.38382   0.27393   0.75851   0.00000  Uiso   1.00
S1138  S     0.66172   0.11247   0.88045   0.00000  Uiso   1.00
O1139  O     0.36428   0.08730   0.85929   0.00000  Uiso   1.00
O1140  O     0.35185   0.12826   0.92509   0.00000  Uiso   1.00
O1141  O     0.60652   0.08155   0.88763   0.00000  Uiso   1.00
H1142  H     0.59702   0.08796   0.91769   0.00000  Uiso   1.00
C1143  C     0.53890   0.04392   0.75780   0.00000  Uiso   1.00
N1144  N     0.55760   0.06087   0.72782   0.00000  Uiso   1.00
C1145  C     0.46124   0.28945   0.90888   0.00000  Uiso   1.00
N1146  N     0.44254   0.27252   0.93887   0.00000  Uiso   1.00
C1147  C     0.55274   0.23315   0.71680   0.00000  Uiso   1.00
N1148  N     0.57415   0.26236   0.73455   0.00000  Uiso   1.00
C1149  C     0.44743   0.10010   0.94992   0.00000  Uiso   1.00
N1150  N     0.42609   0.07083   0.93222   0.00000  Uiso   1.00
S1151  S     0.57685   0.23762   0.95679   0.00000  Uiso   1.00
O1152  O     0.56006   0.27917   0.96651   0.00000  Uiso   1.00
O1153  O     0.62738   0.23415   0.98379   0.00000  Uiso   1.00
O1154  O     0.59029   0.23930   0.90337   0.00000  Uiso   1.00
H1155  H     0.61532   0.26458   0.90048   0.00000  Uiso   1.00
S1156  S     0.42321   0.09568   0.70989   0.00000  Uiso   1.00
O1157  O     0.37268   0.09906   0.68284   0.00000  Uiso   1.00
O1158  O     0.44008   0.05414   0.70025   0.00000  Uiso   1.00
O1159  O     0.40970   0.09404   0.76330   0.00000  Uiso   1.00
H1160  H     0.38479   0.06869   0.76622   0.00000  Uiso   1.00
C1161  C     0.83608   0.08708   0.83378   0.00000  Uiso   1.00
C1162  C     0.83063   0.24626   0.83289   0.00000  Uiso   1.00
C1163  C     0.73465   0.16741   0.82279   0.00000  Uiso   1.00
C1164  C     0.93200   0.16587   0.84388   0.00000  Uiso   1.00
C1165  C     0.68337   0.17672   0.81990   0.00000  Uiso   1.00
C1166  C     0.98328   0.15655   0.84678   0.00000  Uiso   1.00
C1167  C     0.84919   0.02260   0.79541   0.00000  Uiso   1.00
C1168  C     0.81763   0.31076   0.87127   0.00000  Uiso   1.00
C1169  C     0.84044   0.31322   0.79440   0.00000  Uiso   1.00
C1170  C     0.82642   0.02014   0.87229   0.00000  Uiso   1.00
C1171  C     0.82776   0.29041   0.83263   0.00000  Uiso   1.00
C1172  C     0.83903   0.04295   0.83404   0.00000  Uiso   1.00
C1173  C     0.86080   0.19791   0.69211   0.00000  Uiso   1.00
C1174  C     0.80592   0.13540   0.97457   0.00000  Uiso   1.00
C1175  C     0.86334   0.19752   0.97800   0.00000  Uiso   1.00
C1176  C     0.80335   0.13580   0.68867   0.00000  Uiso   1.00
H1177  H     0.84417   0.29795   0.76372   0.00000  Uiso   1.00
H1178  H     0.82276   0.03540   0.90298   0.00000  Uiso   1.00
N1179  N     0.83332   0.16666   0.95240   0.00000  Uiso   1.00
N1180  N     0.83335   0.16668   0.71427   0.00000  Uiso   1.00
O1181  O     0.83333   0.10558   0.87154   0.00000  Uiso   1.00
O1182  O     0.83334   0.22775   0.79513   0.00000  Uiso   1.00
O1183  O     0.83333   0.10559   0.79510   0.00000  Uiso   1.00
O1184  O     0.83334   0.22774   0.87157   0.00000  Uiso   1.00
O1185  O     0.75725   0.16666   0.86261   0.00000  Uiso   1.00
O1186  O     0.90942   0.16667   0.80405   0.00000  Uiso   1.00
O1187  O     0.75725   0.16667   0.78617   0.00000  Uiso   1.00
O1188  O     0.90942   0.16666   0.88050   0.00000  Uiso   1.00
Zn1189 Zn    0.83333   0.16666   0.88437   0.00000  Uiso   1.00
Zn1190 Zn    0.83333   0.16667   0.78229   0.00000  Uiso   1.00
S1191  S     0.67170   0.22087   0.78632   0.00000  Uiso   1.00
O1192  O     0.98194   0.20513   0.74158   0.00000  Uiso   1.00
O1193  O     0.96924   0.24605   0.80762   0.00000  Uiso   1.00
O1194  O     0.72714   0.25133   0.77917   0.00000  Uiso   1.00
H1195  H     0.71715   0.27393   0.75851   0.00000  Uiso   1.00
S1196  S     0.99506   0.11247   0.88045   0.00000  Uiso   1.00
O1197  O     0.69762   0.08730   0.85929   0.00000  Uiso   1.00
O1198  O     0.68518   0.12826   0.92509   0.00000  Uiso   1.00
O1199  O     0.93985   0.08155   0.88763   0.00000  Uiso   1.00
H1200  H     0.93035   0.08796   0.91769   0.00000  Uiso   1.00
C1201  C     0.87223   0.04392   0.75780   0.00000  Uiso   1.00
N1202  N     0.89093   0.06087   0.72782   0.00000  Uiso   1.00
C1203  C     0.79458   0.28945   0.90888   0.00000  Uiso   1.00
N1204  N     0.77587   0.27252   0.93887   0.00000  Uiso   1.00
C1205  C     0.88607   0.23315   0.71680   0.00000  Uiso   1.00
N1206  N     0.90749   0.26236   0.73455   0.00000  Uiso   1.00
C1207  C     0.78077   0.10010   0.94992   0.00000  Uiso   1.00
N1208  N     0.75942   0.07083   0.93222   0.00000  Uiso   1.00
S1209  S     0.91018   0.23762   0.95679   0.00000  Uiso   1.00
O1210  O     0.89339   0.27917   0.96651   0.00000  Uiso   1.00
O1211  O     0.96072   0.23415   0.98379   0.00000  Uiso   1.00
O1212  O     0.92362   0.23930   0.90337   0.00000  Uiso   1.00
H1213  H     0.94865   0.26458   0.90048   0.00000  Uiso   1.00
S1214  S     0.75654   0.09568   0.70989   0.00000  Uiso   1.00
O1215  O     0.70601   0.09906   0.68284   0.00000  Uiso   1.00
O1216  O     0.77341   0.05414   0.70025   0.00000  Uiso   1.00
O1217  O     0.74303   0.09404   0.76330   0.00000  Uiso   1.00
H1218  H     0.71812   0.06869   0.76622   0.00000  Uiso   1.00
C1219  C     0.16941   0.42042   0.83378   0.00000  Uiso   1.00
C1220  C     0.16397   0.57959   0.83289   0.00000  Uiso   1.00
C1221  C     0.06798   0.50074   0.82279   0.00000  Uiso   1.00
C1222  C     0.26534   0.49921   0.84388   0.00000  Uiso   1.00
C1223  C     0.01670   0.51006   0.81990   0.00000  Uiso   1.00
C1224  C     0.31661   0.48988   0.84678   0.00000  Uiso   1.00
C1225  C     0.18252   0.35593   0.79541   0.00000  Uiso   1.00
C1226  C     0.15096   0.64409   0.87127   0.00000  Uiso   1.00
C1227  C     0.17377   0.64655   0.79440   0.00000  Uiso   1.00
C1228  C     0.15975   0.35347   0.87229   0.00000  Uiso   1.00
C1229  C     0.16109   0.62374   0.83263   0.00000  Uiso   1.00
C1230  C     0.17237   0.37628   0.83404   0.00000  Uiso   1.00
C1231  C     0.19413   0.53124   0.69211   0.00000  Uiso   1.00
C1232  C     0.13926   0.46873   0.97457   0.00000  Uiso   1.00
C1233  C     0.19667   0.53085   0.97800   0.00000  Uiso   1.00
C1234  C     0.13669   0.46914   0.68867   0.00000  Uiso   1.00
H1235  H     0.17751   0.63128   0.76372   0.00000  Uiso   1.00
H1236  H     0.15609   0.36874   0.90298   0.00000  Uiso   1.00
N1237  N     0.16665   0.49999   0.95240   0.00000  Uiso   1.00
N1238  N     0.16668   0.50001   0.71427   0.00000  Uiso   1.00
O1239  O     0.16666   0.43892   0.87154   0.00000  Uiso   1.00
O1240  O     0.16667   0.56108   0.79513   0.00000  Uiso   1.00
O1241  O     0.16666   0.43893   0.79510   0.00000  Uiso   1.00
O1242  O     0.16667   0.56107   0.87157   0.00000  Uiso   1.00
O1243  O     0.09058   0.50000   0.86261   0.00000  Uiso   1.00
O1244  O     0.24275   0.50000   0.80405   0.00000  Uiso   1.00
O1245  O     0.09058   0.50000   0.78617   0.00000  Uiso   1.00
O1246  O     0.24275   0.50000   0.88050   0.00000  Uiso   1.00
Zn1247 Zn    0.16667   0.49999   0.88437   0.00000  Uiso   1.00
Zn1248 Zn    0.16667   0.50001   0.78229   0.00000  Uiso   1.00
S1249  S     0.00503   0.55420   0.78632   0.00000  Uiso   1.00
O1250  O     0.31527   0.53847   0.74158   0.00000  Uiso   1.00
O1251  O     0.30257   0.57938   0.80762   0.00000  Uiso   1.00
O1252  O     0.06048   0.58467   0.77917   0.00000  Uiso   1.00
H1253  H     0.05049   0.60726   0.75851   0.00000  Uiso   1.00
S1254  S     0.32839   0.44580   0.88045   0.00000  Uiso   1.00
O1255  O     0.03095   0.42063   0.85929   0.00000  Uiso   1.00
O1256  O     0.01851   0.46159   0.92509   0.00000  Uiso   1.00
O1257  O     0.27318   0.41489   0.88763   0.00000  Uiso   1.00
H1258  H     0.26369   0.42129   0.91769   0.00000  Uiso   1.00
C1259  C     0.20557   0.37725   0.75780   0.00000  Uiso   1.00
N1260  N     0.22426   0.39420   0.72782   0.00000  Uiso   1.00
C1261  C     0.12791   0.62279   0.90888   0.00000  Uiso   1.00
N1262  N     0.10921   0.60585   0.93887   0.00000  Uiso   1.00
C1263  C     0.21941   0.56648   0.71680   0.00000  Uiso   1.00
N1264  N     0.24082   0.59569   0.73455   0.00000  Uiso   1.00
C1265  C     0.11410   0.43343   0.94992   0.00000  Uiso   1.00
N1266  N     0.09276   0.40417   0.93222   0.00000  Uiso   1.00
S1267  S     0.24351   0.57095   0.95679   0.00000  Uiso   1.00
O1268  O     0.22673   0.61251   0.96651   0.00000  Uiso   1.00
O1269  O     0.29405   0.56748   0.98379   0.00000  Uiso   1.00
O1270  O     0.25695   0.57263   0.90337   0.00000  Uiso   1.00
H1271  H     0.28199   0.59791   0.90048   0.00000  Uiso   1.00
S1272  S     0.08987   0.42901   0.70989   0.00000  Uiso   1.00
O1273  O     0.03935   0.43240   0.68284   0.00000  Uiso   1.00
O1274  O     0.10675   0.38747   0.70025   0.00000  Uiso   1.00
O1275  O     0.07637   0.42737   0.76330   0.00000  Uiso   1.00
H1276  H     0.05145   0.40202   0.76622   0.00000  Uiso   1.00
C1277  C     0.50274   0.42042   0.83378   0.00000  Uiso   1.00
C1278  C     0.49730   0.57959   0.83289   0.00000  Uiso   1.00
C1279  C     0.40131   0.50074   0.82279   0.00000  Uiso   1.00
C1280  C     0.59867   0.49921   0.84388   0.00000  Uiso   1.00
C1281  C     0.35003   0.51006   0.81990   0.00000  Uiso   1.00
C1282  C     0.64995   0.48988   0.84678   0.00000  Uiso   1.00
C1283  C     0.51585   0.35593   0.79541   0.00000  Uiso   1.00
C1284  C     0.48429   0.64409   0.87127   0.00000  Uiso   1.00
C1285  C     0.50711   0.64655   0.79440   0.00000  Uiso   1.00
C1286  C     0.49308   0.35347   0.87229   0.00000  Uiso   1.00
C1287  C     0.49443   0.62374   0.83263   0.00000  Uiso   1.00
C1288  C     0.50570   0.37628   0.83404   0.00000  Uiso   1.00
C1289  C     0.52746   0.53124   0.69211   0.00000  Uiso   1.00
C1290  C     0.47259   0.46873   0.97457   0.00000  Uiso   1.00
C1291  C     0.53000   0.53085   0.97800   0.00000  Uiso   1.00
C1292  C     0.47002   0.46914   0.68867   0.00000  Uiso   1.00
H1293  H     0.51084   0.63128   0.76372   0.00000  Uiso   1.00
H1294  H     0.48943   0.36874   0.90298   0.00000  Uiso   1.00
N1295  N     0.49999   0.49999   0.95240   0.00000  Uiso   1.00
N1296  N     0.50001   0.50001   0.71427   0.00000  Uiso   1.00
O1297  O     0.50000   0.43892   0.87154   0.00000  Uiso   1.00
O1298  O     0.50000   0.56108   0.79513   0.00000  Uiso   1.00
O1299  O     0.50000   0.43893   0.79510   0.00000  Uiso   1.00
O1300  O     0.50000   0.56107   0.87157   0.00000  Uiso   1.00
O1301  O     0.42392   0.50000   0.86261   0.00000  Uiso   1.00
O1302  O     0.57608   0.50000   0.80405   0.00000  Uiso   1.00
O1303  O     0.42392   0.50000   0.78617   0.00000  Uiso   1.00
O1304  O     0.57608   0.50000   0.88050   0.00000  Uiso   1.00
Zn1305 Zn    0.50000   0.49999   0.88437   0.00000  Uiso   1.00
Zn1306 Zn    0.50000   0.50001   0.78229   0.00000  Uiso   1.00
S1307  S     0.33836   0.55420   0.78632   0.00000  Uiso   1.00
O1308  O     0.64861   0.53847   0.74158   0.00000  Uiso   1.00
O1309  O     0.63591   0.57938   0.80762   0.00000  Uiso   1.00
O1310  O     0.39381   0.58467   0.77917   0.00000  Uiso   1.00
H1311  H     0.38382   0.60726   0.75851   0.00000  Uiso   1.00
S1312  S     0.66172   0.44580   0.88045   0.00000  Uiso   1.00
O1313  O     0.36428   0.42063   0.85929   0.00000  Uiso   1.00
O1314  O     0.35185   0.46159   0.92509   0.00000  Uiso   1.00
O1315  O     0.60652   0.41489   0.88763   0.00000  Uiso   1.00
H1316  H     0.59702   0.42129   0.91769   0.00000  Uiso   1.00
C1317  C     0.53890   0.37725   0.75780   0.00000  Uiso   1.00
N1318  N     0.55760   0.39420   0.72782   0.00000  Uiso   1.00
C1319  C     0.46124   0.62279   0.90888   0.00000  Uiso   1.00
N1320  N     0.44254   0.60585   0.93887   0.00000  Uiso   1.00
C1321  C     0.55274   0.56648   0.71680   0.00000  Uiso   1.00
N1322  N     0.57415   0.59569   0.73455   0.00000  Uiso   1.00
C1323  C     0.44743   0.43343   0.94992   0.00000  Uiso   1.00
N1324  N     0.42609   0.40417   0.93222   0.00000  Uiso   1.00
S1325  S     0.57685   0.57095   0.95679   0.00000  Uiso   1.00
O1326  O     0.56006   0.61251   0.96651   0.00000  Uiso   1.00
O1327  O     0.62738   0.56748   0.98379   0.00000  Uiso   1.00
O1328  O     0.59029   0.57263   0.90337   0.00000  Uiso   1.00
H1329  H     0.61532   0.59791   0.90048   0.00000  Uiso   1.00
S1330  S     0.42321   0.42901   0.70989   0.00000  Uiso   1.00
O1331  O     0.37268   0.43240   0.68284   0.00000  Uiso   1.00
O1332  O     0.44008   0.38747   0.70025   0.00000  Uiso   1.00
O1333  O     0.40970   0.42737   0.76330   0.00000  Uiso   1.00
H1334  H     0.38479   0.40202   0.76622   0.00000  Uiso   1.00
C1335  C     0.83608   0.42042   0.83378   0.00000  Uiso   1.00
C1336  C     0.83063   0.57959   0.83289   0.00000  Uiso   1.00
C1337  C     0.73465   0.50074   0.82279   0.00000  Uiso   1.00
C1338  C     0.93200   0.49921   0.84388   0.00000  Uiso   1.00
C1339  C     0.68337   0.51006   0.81990   0.00000  Uiso   1.00
C1340  C     0.98328   0.48988   0.84678   0.00000  Uiso   1.00
C1341  C     0.84919   0.35593   0.79541   0.00000  Uiso   1.00
C1342  C     0.81763   0.64409   0.87127   0.00000  Uiso   1.00
C1343  C     0.84044   0.64655   0.79440   0.00000  Uiso   1.00
C1344  C     0.82642   0.35347   0.87229   0.00000  Uiso   1.00
C1345  C     0.82776   0.62374   0.83263   0.00000  Uiso   1.00
C1346  C     0.83903   0.37628   0.83404   0.00000  Uiso   1.00
C1347  C     0.86080   0.53124   0.69211   0.00000  Uiso   1.00
C1348  C     0.80592   0.46873   0.97457   0.00000  Uiso   1.00
C1349  C     0.86334   0.53085   0.97800   0.00000  Uiso   1.00
C1350  C     0.80335   0.46914   0.68867   0.00000  Uiso   1.00
H1351  H     0.84417   0.63128   0.76372   0.00000  Uiso   1.00
H1352  H     0.82276   0.36874   0.90298   0.00000  Uiso   1.00
N1353  N     0.83332   0.49999   0.95240   0.00000  Uiso   1.00
N1354  N     0.83335   0.50001   0.71427   0.00000  Uiso   1.00
O1355  O     0.83333   0.43892   0.87154   0.00000  Uiso   1.00
O1356  O     0.83334   0.56108   0.79513   0.00000  Uiso   1.00
O1357  O     0.83333   0.43893   0.79510   0.00000  Uiso   1.00
O1358  O     0.83334   0.56107   0.87157   0.00000  Uiso   1.00
O1359  O     0.75725   0.50000   0.86261   0.00000  Uiso   1.00
O1360  O     0.90942   0.50000   0.80405   0.00000  Uiso   1.00
O1361  O     0.75725   0.50000   0.78617   0.00000  Uiso   1.00
O1362  O     0.90942   0.50000   0.88050   0.00000  Uiso   1.00
Zn1363 Zn    0.83333   0.49999   0.88437   0.00000  Uiso   1.00
Zn1364 Zn    0.83333   0.50001   0.78229   0.00000  Uiso   1.00
S1365  S     0.67170   0.55420   0.78632   0.00000  Uiso   1.00
O1366  O     0.98194   0.53847   0.74158   0.00000  Uiso   1.00
O1367  O     0.96924   0.57938   0.80762   0.00000  Uiso   1.00
O1368  O     0.72714   0.58467   0.77917   0.00000  Uiso   1.00
H1369  H     0.71715   0.60726   0.75851   0.00000  Uiso   1.00
S1370  S     0.99506   0.44580   0.88045   0.00000  Uiso   1.00
O1371  O     0.69762   0.42063   0.85929   0.00000  Uiso   1.00
O1372  O     0.68518   0.46159   0.92509   0.00000  Uiso   1.00
O1373  O     0.93985   0.41489   0.88763   0.00000  Uiso   1.00
H1374  H     0.93035   0.42129   0.91769   0.00000  Uiso   1.00
C1375  C     0.87223   0.37725   0.75780   0.00000  Uiso   1.00
N1376  N     0.89093   0.39420   0.72782   0.00000  Uiso   1.00
C1377  C     0.79458   0.62279   0.90888   0.00000  Uiso   1.00
N1378  N     0.77587   0.60585   0.93887   0.00000  Uiso   1.00
C1379  C     0.88607   0.56648   0.71680   0.00000  Uiso   1.00
N1380  N     0.90749   0.59569   0.73455   0.00000  Uiso   1.00
C1381  C     0.78077   0.43343   0.94992   0.00000  Uiso   1.00
N1382  N     0.75942   0.40417   0.93222   0.00000  Uiso   1.00
S1383  S     0.91018   0.57095   0.95679   0.00000  Uiso   1.00
O1384  O     0.89339   0.61251   0.96651   0.00000  Uiso   1.00
O1385  O     0.96072   0.56748   0.98379   0.00000  Uiso   1.00
O1386  O     0.92362   0.57263   0.90337   0.00000  Uiso   1.00
H1387  H     0.94865   0.59791   0.90048   0.00000  Uiso   1.00
S1388  S     0.75654   0.42901   0.70989   0.00000  Uiso   1.00
O1389  O     0.70601   0.43240   0.68284   0.00000  Uiso   1.00
O1390  O     0.77341   0.38747   0.70025   0.00000  Uiso   1.00
O1391  O     0.74303   0.42737   0.76330   0.00000  Uiso   1.00
H1392  H     0.71812   0.40202   0.76622   0.00000  Uiso   1.00
C1393  C     0.16941   0.75375   0.83378   0.00000  Uiso   1.00
C1394  C     0.16397   0.91293   0.83289   0.00000  Uiso   1.00
C1395  C     0.06798   0.83407   0.82279   0.00000  Uiso   1.00
C1396  C     0.26534   0.83254   0.84388   0.00000  Uiso   1.00
C1397  C     0.01670   0.84339   0.81990   0.00000  Uiso   1.00
C1398  C     0.31661   0.82321   0.84678   0.00000  Uiso   1.00
C1399  C     0.18252   0.68927   0.79541   0.00000  Uiso   1.00
C1400  C     0.15096   0.97742   0.87127   0.00000  Uiso   1.00
C1401  C     0.17377   0.97988   0.79440   0.00000  Uiso   1.00
C1402  C     0.15975   0.68680   0.87229   0.00000  Uiso   1.00
C1403  C     0.16109   0.95707   0.83263   0.00000  Uiso   1.00
C1404  C     0.17237   0.70961   0.83404   0.00000  Uiso   1.00
C1405  C     0.19413   0.86457   0.69211   0.00000  Uiso   1.00
C1406  C     0.13926   0.80207   0.97457   0.00000  Uiso   1.00
C1407  C     0.19667   0.86419   0.97800   0.00000  Uiso   1.00
C1408  C     0.13669   0.80247   0.68867   0.00000  Uiso   1.00
H1409  H     0.17751   0.96461   0.76372   0.00000  Uiso   1.00
H1410  H     0.15609   0.70207   0.90298   0.00000  Uiso   1.00
N1411  N     0.16665   0.83332   0.95240   0.00000  Uiso   1.00
N1412  N     0.16668   0.83334   0.71427   0.00000  Uiso   1.00
O1413  O     0.16666   0.77225   0.87154   0.00000  Uiso   1.00
O1414  O     0.16667   0.89442   0.79513   0.00000  Uiso   1.00
O1415  O     0.16666   0.77226   0.79510   0.00000  Uiso   1.00
O1416  O     0.16667   0.89441   0.87157   0.00000  Uiso   1.00
O1417  O     0.09058   0.83333   0.86261   0.00000  Uiso   1.00
O1418  O     0.24275   0.83334   0.80405   0.00000  Uiso   1.00
O1419  O     0.09058   0.83334   0.78617   0.00000  Uiso   1.00
O1420  O     0.24275   0.83333   0.88050   0.00000  Uiso   1.00
Zn1421 Zn    0.16667   0.83333   0.88437   0.00000  Uiso   1.00
Zn1422 Zn    0.16667   0.83334   0.78229   0.00000  Uiso   1.00
S1423  S     0.00503   0.88753   0.78632   0.00000  Uiso   1.00
O1424  O     0.31527   0.87180   0.74158   0.00000  Uiso   1.00
O1425  O     0.30257   0.91272   0.80762   0.00000  Uiso   1.00
O1426  O     0.06048   0.91800   0.77917   0.00000  Uiso   1.00
H1427  H     0.05049   0.94060   0.75851   0.00000  Uiso   1.00
S1428  S     0.32839   0.77913   0.88045   0.00000  Uiso   1.00
O1429  O     0.03095   0.75397   0.85929   0.00000  Uiso   1.00
O1430  O     0.01851   0.79492   0.92509   0.00000  Uiso   1.00
O1431  O     0.27318   0.74822   0.88763   0.00000  Uiso   1.00
H1432  H     0.26369   0.75463   0.91769   0.00000  Uiso   1.00
C1433  C     0.20557   0.71059   0.75780   0.00000  Uiso   1.00
N1434  N     0.22426   0.72754   0.72782   0.00000  Uiso   1.00
C1435  C     0.12791   0.95612   0.90888   0.00000  Uiso   1.00
N1436  N     0.10921   0.93918   0.93887   0.00000  Uiso   1.00
C1437  C     0.21941   0.89982   0.71680   0.00000  Uiso   1.00
N1438  N     0.24082   0.92902   0.73455   0.00000  Uiso   1.00
C1439  C     0.11410   0.76676   0.94992   0.00000  Uiso   1.00
N1440  N     0.09276   0.73750   0.93222   0.00000  Uiso   1.00
S1441  S     0.24351   0.90429   0.95679   0.00000  Uiso   1.00
O1442  O     0.22673   0.94584   0.96651   0.00000  Uiso   1.00
O1443  O     0.29405   0.90082   0.98379   0.00000  Uiso   1.00
O1444  O     0.25695   0.90596   0.90337   0.00000  Uiso   1.00
H1445  H     0.28199   0.93125   0.90048   0.00000  Uiso   1.00
S1446  S     0.08987   0.76234   0.70989   0.00000  Uiso   1.00
O1447  O     0.03935   0.76573   0.68284   0.00000  Uiso   1.00
O1448  O     0.10675   0.72080   0.70025   0.00000  Uiso   1.00
O1449  O     0.07637   0.76071   0.76330   0.00000  Uiso   1.00
H1450  H     0.05145   0.73536   0.76622   0.00000  Uiso   1.00
C1451  C     0.50274   0.75375   0.83378   0.00000  Uiso   1.00
C1452  C     0.49730   0.91293   0.83289   0.00000  Uiso   1.00
C1453  C     0.40131   0.83407   0.82279   0.00000  Uiso   1.00
C1454  C     0.59867   0.83254   0.84388   0.00000  Uiso   1.00
C1455  C     0.35003   0.84339   0.81990   0.00000  Uiso   1.00
C1456  C     0.64995   0.82321   0.84678   0.00000  Uiso   1.00
C1457  C     0.51585   0.68927   0.79541   0.00000  Uiso   1.00
C1458  C     0.48429   0.97742   0.87127   0.00000  Uiso   1.00
C1459  C     0.50711   0.97988   0.79440   0.00000  Uiso   1.00
C1460  C     0.49308   0.68680   0.87229   0.00000  Uiso   1.00
C1461  C     0.49443   0.95707   0.83263   0.00000  Uiso   1.00
C1462  C     0.50570   0.70961   0.83404   0.00000  Uiso   1.00
C1463  C     0.52746   0.86457   0.69211   0.00000  Uiso   1.00
C1464  C     0.47259   0.80207   0.97457   0.00000  Uiso   1.00
C1465  C     0.53000   0.86419   0.97800   0.00000  Uiso   1.00
C1466  C     0.47002   0.80247   0.68867   0.00000  Uiso   1.00
H1467  H     0.51084   0.96461   0.76372   0.00000  Uiso   1.00
H1468  H     0.48943   0.70207   0.90298   0.00000  Uiso   1.00
N1469  N     0.49999   0.83332   0.95240   0.00000  Uiso   1.00
N1470  N     0.50001   0.83334   0.71427   0.00000  Uiso   1.00
O1471  O     0.50000   0.77225   0.87154   0.00000  Uiso   1.00
O1472  O     0.50000   0.89442   0.79513   0.00000  Uiso   1.00
O1473  O     0.50000   0.77226   0.79510   0.00000  Uiso   1.00
O1474  O     0.50000   0.89441   0.87157   0.00000  Uiso   1.00
O1475  O     0.42392   0.83333   0.86261   0.00000  Uiso   1.00
O1476  O     0.57608   0.83334   0.80405   0.00000  Uiso   1.00
O1477  O     0.42392   0.83334   0.78617   0.00000  Uiso   1.00
O1478  O     0.57608   0.83333   0.88050   0.00000  Uiso   1.00
Zn1479 Zn    0.50000   0.83333   0.88437   0.00000  Uiso   1.00
Zn1480 Zn    0.50000   0.83334   0.78229   0.00000  Uiso   1.00
S1481  S     0.33836   0.88753   0.78632   0.00000  Uiso   1.00
O1482  O     0.64861   0.87180   0.74158   0.00000  Uiso   1.00
O1483  O     0.63591   0.91272   0.80762   0.00000  Uiso   1.00
O1484  O     0.39381   0.91800   0.77917   0.00000  Uiso   1.00
H1485  H     0.38382   0.94060   0.75851   0.00000  Uiso   1.00
S1486  S     0.66172   0.77913   0.88045   0.00000  Uiso   1.00
O1487  O     0.36428   0.75397   0.85929   0.00000  Uiso   1.00
O1488  O     0.35185   0.79492   0.92509   0.00000  Uiso   1.00
O1489  O     0.60652   0.74822   0.88763   0.00000  Uiso   1.00
H1490  H     0.59702   0.75463   0.91769   0.00000  Uiso   1.00
C1491  C     0.53890   0.71059   0.75780   0.00000  Uiso   1.00
N1492  N     0.55760   0.72754   0.72782   0.00000  Uiso   1.00
C1493  C     0.46124   0.95612   0.90888   0.00000  Uiso   1.00
N1494  N     0.44254   0.93918   0.93887   0.00000  Uiso   1.00
C1495  C     0.55274   0.89982   0.71680   0.00000  Uiso   1.00
N1496  N     0.57415   0.92902   0.73455   0.00000  Uiso   1.00
C1497  C     0.44743   0.76676   0.94992   0.00000  Uiso   1.00
N1498  N     0.42609   0.73750   0.93222   0.00000  Uiso   1.00
S1499  S     0.57685   0.90429   0.95679   0.00000  Uiso   1.00
O1500  O     0.56006   0.94584   0.96651   0.00000  Uiso   1.00
O1501  O     0.62738   0.90082   0.98379   0.00000  Uiso   1.00
O1502  O     0.59029   0.90596   0.90337   0.00000  Uiso   1.00
H1503  H     0.61532   0.93125   0.90048   0.00000  Uiso   1.00
S1504  S     0.42321   0.76234   0.70989   0.00000  Uiso   1.00
O1505  O     0.37268   0.76573   0.68284   0.00000  Uiso   1.00
O1506  O     0.44008   0.72080   0.70025   0.00000  Uiso   1.00
O1507  O     0.40970   0.76071   0.76330   0.00000  Uiso   1.00
H1508  H     0.38479   0.73536   0.76622   0.00000  Uiso   1.00
C1509  C     0.83608   0.75375   0.83378   0.00000  Uiso   1.00
C1510  C     0.83063   0.91293   0.83289   0.00000  Uiso   1.00
C1511  C     0.73465   0.83407   0.82279   0.00000  Uiso   1.00
C1512  C     0.93200   0.83254   0.84388   0.00000  Uiso   1.00
C1513  C     0.68337   0.84339   0.81990   0.00000  Uiso   1.00
C1514  C     0.98328   0.82321   0.84678   0.00000  Uiso   1.00
C1515  C     0.84919   0.68927   0.79541   0.00000  Uiso   1.00
C1516  C     0.81763   0.97742   0.87127   0.00000  Uiso   1.00
C1517  C     0.84044   0.97988   0.79440   0.00000  Uiso   1.00
C1518  C     0.82642   0.68680   0.87229   0.00000  Uiso   1.00
C1519  C     0.82776   0.95707   0.83263   0.00000  Uiso   1.00
C1520  C     0.83903   0.70961   0.83404   0.00000  Uiso   1.00
C1521  C     0.86080   0.86457   0.69211   0.00000  Uiso   1.00
C1522  C     0.80592   0.80207   0.97457   0.00000  Uiso   1.00
C1523  C     0.86334   0.86419   0.97800   0.00000  Uiso   1.00
C1524  C     0.80335   0.80247   0.68867   0.00000  Uiso   1.00
H1525  H     0.84417   0.96461   0.76372   0.00000  Uiso   1.00
H1526  H     0.82276   0.70207   0.90298   0.00000  Uiso   1.00
N1527  N     0.83332   0.83332   0.95240   0.00000  Uiso   1.00
N1528  N     0.83335   0.83334   0.71427   0.00000  Uiso   1.00
O1529  O     0.83333   0.77225   0.87154   0.00000  Uiso   1.00
O1530  O     0.83334   0.89442   0.79513   0.00000  Uiso   1.00
O1531  O     0.83333   0.77226   0.79510   0.00000  Uiso   1.00
O1532  O     0.83334   0.89441   0.87157   0.00000  Uiso   1.00
O1533  O     0.75725   0.83333   0.86261   0.00000  Uiso   1.00
O1534  O     0.90942   0.83334   0.80405   0.00000  Uiso   1.00
O1535  O     0.75725   0.83334   0.78617   0.00000  Uiso   1.00
O1536  O     0.90942   0.83333   0.88050   0.00000  Uiso   1.00
Zn1537 Zn    0.83333   0.83333   0.88437   0.00000  Uiso   1.00
Zn1538 Zn    0.83333   0.83334   0.78229   0.00000  Uiso   1.00
S1539  S     0.67170   0.88753   0.78632   0.00000  Uiso   1.00
O1540  O     0.98194   0.87180   0.74158   0.00000  Uiso   1.00
O1541  O     0.96924   0.91272   0.80762   0.00000  Uiso   1.00
O1542  O     0.72714   0.91800   0.77917   0.00000  Uiso   1.00
H1543  H     0.71715   0.94060   0.75851   0.00000  Uiso   1.00
S1544  S     0.99506   0.77913   0.88045   0.00000  Uiso   1.00
O1545  O     0.69762   0.75397   0.85929   0.00000  Uiso   1.00
O1546  O     0.68518   0.79492   0.92509   0.00000  Uiso   1.00
O1547  O     0.93985   0.74822   0.88763   0.00000  Uiso   1.00
H1548  H     0.93035   0.75463   0.91769   0.00000  Uiso   1.00
C1549  C     0.87223   0.71059   0.75780   0.00000  Uiso   1.00
N1550  N     0.89093   0.72754   0.72782   0.00000  Uiso   1.00
C1551  C     0.79458   0.95612   0.90888   0.00000  Uiso   1.00
N1552  N     0.77587   0.93918   0.93887   0.00000  Uiso   1.00
C1553  C     0.88607   0.89982   0.71680   0.00000  Uiso   1.00
N1554  N     0.90749   0.92902   0.73455   0.00000  Uiso   1.00
C1555  C     0.78077   0.76676   0.94992   0.00000  Uiso   1.00
N1556  N     0.75942   0.73750   0.93222   0.00000  Uiso   1.00
S1557  S     0.91018   0.90429   0.95679   0.00000  Uiso   1.00
O1558  O     0.89339   0.94584   0.96651   0.00000  Uiso   1.00
O1559  O     0.96072   0.90082   0.98379   0.00000  Uiso   1.00
O1560  O     0.92362   0.90596   0.90337   0.00000  Uiso   1.00
H1561  H     0.94865   0.93125   0.90048   0.00000  Uiso   1.00
S1562  S     0.75654   0.76234   0.70989   0.00000  Uiso   1.00
O1563  O     0.70601   0.76573   0.68284   0.00000  Uiso   1.00
O1564  O     0.77341   0.72080   0.70025   0.00000  Uiso   1.00
O1565  O     0.74303   0.76071   0.76330   0.00000  Uiso   1.00
H1566  H     0.71812   0.73536   0.76622   0.00000  Uiso   1.00
loop_
_geom_bond_atom_site_label_1
_geom_bond_atom_site_label_2
_geom_bond_distance
_geom_bond_site_symmetry_2
_ccdc_geom_bond_type
C1     O21     1.307   .     A
C1     O23     1.295   .     A
C1     C12     1.436   .     S
C2     O22     1.307   .     A
C2     O24     1.295   .     A
C2     C11     1.436   .     S
C3     C5      1.404   .     S
C3     O27     1.296   .     A
C3     O25     1.289   .     A
C4     O26     1.289   .     A
C4     O28     1.296   .     A
C4     C6      1.404   .     S
C5     S31     1.767   .     S
C5     C122    1.343   1_455 S
C6     S36     1.768   .     S
C6     C63     1.343   .     S
C7     C12     1.408   .     A
C7     C41     1.448   .     S
C7     C357    1.372   1_545 S
C8     C43     1.448   .     S
C8     C11     1.408   .     A
C8     C184    1.372   .     S
C9     C11     1.393   .     A
C9     H17     1.074   .     S
C9     C181    1.372   .     S
C10    C12     1.393   .     A
C10    H18     1.073   .     S
C10    C356    1.372   1_545 S
C13    C45     1.435   .     S
C13    N20     1.362   .     A
C13    C1059   1.434   1_554 S
C14    C47     1.435   .     S
C14    N19     1.362   .     A
C14    C538    1.434   .     S
C15    N19     1.395   .     A
C15    S49     1.817   .     S
C15    C535    1.434   .     S
C16    N20     1.395   .     A
C16    S54     1.817   .     S
C16    C1058   1.434   1_554 S
N19    Zn29    2.045   .     S
N20    Zn30    2.045   .     S
O21    Zn29    2.019   .     S
O22    Zn30    2.019   .     S
O23    Zn30    2.000   .     S
O24    Zn29    2.000   .     S
O25    Zn29    2.039   .     S
O26    Zn30    2.039   .     S
O27    Zn30    2.003   .     S
O28    Zn29    2.003   .     S
S31    O34     1.679   .     S
S31    O148    1.500   1_455 S
S31    O149    1.503   1_455 S
O32    S89     1.500   .     S
O33    S89     1.503   .     S
O34    H35     0.991   .     S
S36    O39     1.681   .     S
S36    O95     1.502   .     S
S36    O96     1.500   .     S
O37    S152    1.502   1_455 S
O38    S152    1.500   1_455 S
O39    H40     0.991   .     S
C41    N42     1.158   .     T
C43    N44     1.158   .     T
C45    N46     1.155   .     T
C47    N48     1.155   .     T
S49    O52     1.672   .     S
S49    O50     1.503   .     D
S49    O51     1.503   .     D
O52    H53     0.991   .     S
S54    O56     1.503   .     D
S54    O55     1.503   .     D
S54    O57     1.672   .     S
O57    H58     0.991   .     S
C59    O79     1.307   .     A
C59    O81     1.295   .     A
C59    C70     1.436   .     S
C60    O80     1.307   .     A
C60    O82     1.295   .     A
C60    C69     1.436   .     S
C61    C63     1.404   .     S
C61    O85     1.296   .     A
C61    O83     1.289   .     A
C62    O84     1.289   .     A
C62    O86     1.296   .     A
C62    C64     1.404   .     S
C63    S89     1.767   .     S
C64    S94     1.768   .     S
C64    C121    1.343   .     S
C65    C70     1.408   .     A
C65    C99     1.448   .     S
C65    C415    1.372   1_545 S
C66    C101    1.448   .     S
C66    C69     1.408   .     A
C66    C242    1.372   .     S
C67    C69     1.393   .     A
C67    H75     1.074   .     S
C67    C239    1.372   .     S
C68    C70     1.393   .     A
C68    H76     1.073   .     S
C68    C414    1.372   1_545 S
C71    C103    1.435   .     S
C71    N78     1.362   .     A
C71    C1117   1.434   1_554 S
C72    C105    1.435   .     S
C72    N77     1.362   .     A
C72    C596    1.434   .     S
C73    N77     1.395   .     A
C73    S107    1.817   .     S
C73    C593    1.434   .     S
C74    N78     1.395   .     A
C74    S112    1.817   .     S
C74    C1116   1.434   1_554 S
N77    Zn87    2.045   .     S
N78    Zn88    2.045   .     S
O79    Zn87    2.019   .     S
O80    Zn88    2.019   .     S
O81    Zn88    2.000   .     S
O82    Zn87    2.000   .     S
O83    Zn87    2.039   .     S
O84    Zn88    2.039   .     S
O85    Zn88    2.003   .     S
O86    Zn87    2.003   .     S
S89    O92     1.679   .     S
O90    S147    1.500   .     S
O91    S147    1.503   .     S
O92    H93     0.991   .     S
S94    O97     1.681   .     S
S94    O153    1.502   .     S
S94    O154    1.500   .     S
O97    H98     0.991   .     S
C99    N100    1.158   .     T
C101   N102    1.158   .     T
C103   N104    1.155   .     T
C105   N106    1.155   .     T
S107   O110    1.672   .     S
S107   O108    1.503   .     D
S107   O109    1.503   .     D
O110   H111    0.991   .     S
S112   O114    1.503   .     D
S112   O113    1.503   .     D
S112   O115    1.672   .     S
O115   H116    0.991   .     S
C117   O137    1.307   .     A
C117   O139    1.295   .     A
C117   C128    1.436   .     S
C118   O138    1.307   .     A
C118   O140    1.295   .     A
C118   C127    1.436   .     S
C119   C121    1.404   .     S
C119   O143    1.296   .     A
C119   O141    1.289   .     A
C120   O142    1.289   .     A
C120   O144    1.296   .     A
C120   C122    1.404   .     S
C121   S147    1.767   .     S
C122   S152    1.768   .     S
C122   C5      1.343   1_655 S
C123   C128    1.408   .     A
C123   C157    1.448   .     S
C123   C473    1.372   1_545 S
C124   C159    1.448   .     S
C124   C127    1.408   .     A
C124   C300    1.372   .     S
C125   C127    1.393   .     A
C125   H133    1.074   .     S
C125   C297    1.372   .     S
C126   C128    1.393   .     A
C126   H134    1.073   .     S
C126   C472    1.372   1_545 S
C129   C161    1.435   .     S
C129   N136    1.362   .     A
C129   C1175   1.434   1_554 S
C130   C163    1.435   .     S
C130   N135    1.362   .     A
C130   C654    1.434   .     S
C131   N135    1.395   .     A
C131   S165    1.817   .     S
C131   C651    1.434   .     S
C132   N136    1.395   .     A
C132   S170    1.817   .     S
C132   C1174   1.434   1_554 S
N135   Zn145   2.045   .     S
N136   Zn146   2.045   .     S
O137   Zn145   2.019   .     S
O138   Zn146   2.019   .     S
O139   Zn146   2.000   .     S
O140   Zn145   2.000   .     S
O141   Zn145   2.039   .     S
O142   Zn146   2.039   .     S
O143   Zn146   2.003   .     S
O144   Zn145   2.003   .     S
S147   O150    1.679   .     S
O148   S31     1.500   1_655 S
O149   S31     1.503   1_655 S
O150   H151    0.991   .     S
S152   O155    1.681   .     S
S152   O37     1.502   1_655 S
S152   O38     1.500   1_655 S
O155   H156    0.991   .     S
C157   N158    1.158   .     T
C159   N160    1.158   .     T
C161   N162    1.155   .     T
C163   N164    1.155   .     T
S165   O168    1.672   .     S
S165   O166    1.503   .     D
S165   O167    1.503   .     D
O168   H169    0.991   .     S
S170   O172    1.503   .     D
S170   O171    1.503   .     D
S170   O173    1.672   .     S
O173   H174    0.991   .     S
C175   O195    1.307   .     A
C175   O197    1.295   .     A
C175   C186    1.436   .     S
C176   O196    1.307   .     A
C176   O198    1.295   .     A
C176   C185    1.436   .     S
C177   C179    1.404   .     S
C177   O201    1.296   .     A
C177   O199    1.289   .     A
C178   O200    1.289   .     A
C178   O202    1.296   .     A
C178   C180    1.404   .     S
C179   S205    1.767   .     S
C179   C296    1.343   1_455 S
C180   S210    1.768   .     S
C180   C237    1.343   .     S
C181   C186    1.408   .     A
C181   C215    1.448   .     S
C182   C217    1.448   .     S
C182   C185    1.408   .     A
C182   C358    1.372   .     S
C183   C185    1.393   .     A
C183   H191    1.074   .     S
C183   C355    1.372   .     S
C184   C186    1.393   .     A
C184   H192    1.073   .     S
C187   C219    1.435   .     S
C187   N194    1.362   .     A
C187   C1233   1.434   1_554 S
C188   C221    1.435   .     S
C188   N193    1.362   .     A
C188   C712    1.434   .     S
C189   N193    1.395   .     A
C189   S223    1.817   .     S
C189   C709    1.434   .     S
C190   N194    1.395   .     A
C190   S228    1.817   .     S
C190   C1232   1.434   1_554 S
N193   Zn203   2.045   .     S
N194   Zn204   2.045   .     S
O195   Zn203   2.019   .     S
O196   Zn204   2.019   .     S
O197   Zn204   2.000   .     S
O198   Zn203   2.000   .     S
O199   Zn203   2.039   .     S
O200   Zn204   2.039   .     S
O201   Zn204   2.003   .     S
O202   Zn203   2.003   .     S
S205   O208    1.679   .     S
S205   O322    1.500   1_455 S
S205   O323    1.503   1_455 S
O206   S263    1.500   .     S
O207   S263    1.503   .     S
O208   H209    0.991   .     S
S210   O213    1.681   .     S
S210   O269    1.502   .     S
S210   O270    1.500   .     S
O211   S326    1.502   1_455 S
O212   S326    1.500   1_455 S
O213   H214    0.991   .     S
C215   N216    1.158   .     T
C217   N218    1.158   .     T
C219   N220    1.155   .     T
C221   N222    1.155   .     T
S223   O226    1.672   .     S
S223   O224    1.503   .     D
S223   O225    1.503   .     D
O226   H227    0.991   .     S
S228   O230    1.503   .     D
S228   O229    1.503   .     D
S228   O231    1.672   .     S
O231   H232    0.991   .     S
C233   O253    1.307   .     A
C233   O255    1.295   .     A
C233   C244    1.436   .     S
C234   O254    1.307   .     A
C234   O256    1.295   .     A
C234   C243    1.436   .     S
C235   C237    1.404   .     S
C235   O259    1.296   .     A
C235   O257    1.289   .     A
C236   O258    1.289   .     A
C236   O260    1.296   .     A
C236   C238    1.404   .     S
C237   S263    1.767   .     S
C238   S268    1.768   .     S
C238   C295    1.343   .     S
C239   C244    1.408   .     A
C239   C273    1.448   .     S
C240   C275    1.448   .     S
C240   C243    1.408   .     A
C240   C416    1.372   .     S
C241   C243    1.393   .     A
C241   H249    1.074   .     S
C241   C413    1.372   .     S
C242   C244    1.393   .     A
C242   H250    1.073   .     S
C245   C277    1.435   .     S
C245   N252    1.362   .     A
C245   C1291   1.434   1_554 S
C246   C279    1.435   .     S
C246   N251    1.362   .     A
C246   C770    1.434   .     S
C247   N251    1.395   .     A
C247   S281    1.817   .     S
C247   C767    1.434   .     S
C248   N252    1.395   .     A
C248   S286    1.817   .     S
C248   C1290   1.434   1_554 S
N251   Zn261   2.045   .     S
N252   Zn262   2.045   .     S
O253   Zn261   2.019   .     S
O254   Zn262   2.019   .     S
O255   Zn262   2.000   .     S
O256   Zn261   2.000   .     S
O257   Zn261   2.039   .     S
O258   Zn262   2.039   .     S
O259   Zn262   2.003   .     S
O260   Zn261   2.003   .     S
S263   O266    1.679   .     S
O264   S321    1.500   .     S
O265   S321    1.503   .     S
O266   H267    0.991   .     S
S268   O271    1.681   .     S
S268   O327    1.502   .     S
S268   O328    1.500   .     S
O271   H272    0.991   .     S
C273   N274    1.158   .     T
C275   N276    1.158   .     T
C277   N278    1.155   .     T
C279   N280    1.155   .     T
S281   O284    1.672   .     S
S281   O282    1.503   .     D
S281   O283    1.503   .     D
O284   H285    0.991   .     S
S286   O288    1.503   .     D
S286   O287    1.503   .     D
S286   O289    1.672   .     S
O289   H290    0.991   .     S
C291   O311    1.307   .     A
C291   O313    1.295   .     A
C291   C302    1.436   .     S
C292   O312    1.307   .     A
C292   O314    1.295   .     A
C292   C301    1.436   .     S
C293   C295    1.404   .     S
C293   O317    1.296   .     A
C293   O315    1.289   .     A
C294   O316    1.289   .     A
C294   O318    1.296   .     A
C294   C296    1.404   .     S
C295   S321    1.767   .     S
C296   S326    1.768   .     S
C296   C179    1.343   1_655 S
C297   C302    1.408   .     A
C297   C331    1.448   .     S
C298   C333    1.448   .     S
C298   C301    1.408   .     A
C298   C474    1.372   .     S
C299   C301    1.393   .     A
C299   H307    1.074   .     S
C299   C471    1.372   .     S
C300   C302    1.393   .     A
C300   H308    1.073   .     S
C303   C335    1.435   .     S
C303   N310    1.362   .     A
C303   C1349   1.434   1_554 S
C304   C337    1.435   .     S
C304   N309    1.362   .     A
C304   C828    1.434   .     S
C305   N309    1.395   .     A
C305   S339    1.817   .     S
C305   C825    1.434   .     S
C306   N310    1.395   .     A
C306   S344    1.817   .     S
C306   C1348   1.434   1_554 S
N309   Zn319   2.045   .     S
N310   Zn320   2.045   .     S
O311   Zn319   2.019   .     S
O312   Zn320   2.019   .     S
O313   Zn320   2.000   .     S
O314   Zn319   2.000   .     S
O315   Zn319   2.039   .     S
O316   Zn320   2.039   .     S
O317   Zn320   2.003   .     S
O318   Zn319   2.003   .     S
S321   O324    1.679   .     S
O322   S205    1.500   1_655 S
O323   S205    1.503   1_655 S
O324   H325    0.991   .     S
S326   O329    1.681   .     S
S326   O211    1.502   1_655 S
S326   O212    1.500   1_655 S
O329   H330    0.991   .     S
C331   N332    1.158   .     T
C333   N334    1.158   .     T
C335   N336    1.155   .     T
C337   N338    1.155   .     T
S339   O342    1.672   .     S
S339   O340    1.503   .     D
S339   O341    1.503   .     D
O342   H343    0.991   .     S
S344   O346    1.503   .     D
S344   O345    1.503   .     D
S344   O347    1.672   .     S
O347   H348    0.991   .     S
C349   O369    1.307   .     A
C349   O371    1.295   .     A
C349   C360    1.436   .     S
C350   O370    1.307   .     A
C350   O372    1.295   .     A
C350   C359    1.436   .     S
C351   C353    1.404   .     S
C351   O375    1.296   .     A
C351   O373    1.289   .     A
C352   O374    1.289   .     A
C352   O376    1.296   .     A
C352   C354    1.404   .     S
C353   S379    1.767   .     S
C353   C470    1.343   1_455 S
C354   S384    1.768   .     S
C354   C411    1.343   .     S
C355   C360    1.408   .     A
C355   C389    1.448   .     S
C356   C391    1.448   .     S
C356   C359    1.408   .     A
C356   C10     1.372   1_565 S
C357   C359    1.393   .     A
C357   H365    1.074   .     S
C357   C7      1.372   1_565 S
C358   C360    1.393   .     A
C358   H366    1.073   .     S
C361   C393    1.435   .     S
C361   N368    1.362   .     A
C361   C1407   1.434   1_554 S
C362   C395    1.435   .     S
C362   N367    1.362   .     A
C362   C886    1.434   .     S
C363   N367    1.395   .     A
C363   S397    1.817   .     S
C363   C883    1.434   .     S
C364   N368    1.395   .     A
C364   S402    1.817   .     S
C364   C1406   1.434   1_554 S
N367   Zn377   2.045   .     S
N368   Zn378   2.045   .     S
O369   Zn377   2.019   .     S
O370   Zn378   2.019   .     S
O371   Zn378   2.000   .     S
O372   Zn377   2.000   .     S
O373   Zn377   2.039   .     S
O374   Zn378   2.039   .     S
O375   Zn378   2.003   .     S
O376   Zn377   2.003   .     S
S379   O382    1.679   .     S
S379   O496    1.500   1_455 S
S379   O497    1.503   1_455 S
O380   S437    1.500   .     S
O381   S437    1.503   .     S
O382   H383    0.991   .     S
S384   O387    1.681   .     S
S384   O443    1.502   .     S
S384   O444    1.500   .     S
O385   S500    1.502   1_455 S
O386   S500    1.500   1_455 S
O387   H388    0.991   .     S
C389   N390    1.158   .     T
C391   N392    1.158   .     T
C393   N394    1.155   .     T
C395   N396    1.155   .     T
S397   O400    1.672   .     S
S397   O398    1.503   .     D
S397   O399    1.503   .     D
O400   H401    0.991   .     S
S402   O404    1.503   .     D
S402   O403    1.503   .     D
S402   O405    1.672   .     S
O405   H406    0.991   .     S
C407   O427    1.307   .     A
C407   O429    1.295   .     A
C407   C418    1.436   .     S
C408   O428    1.307   .     A
C408   O430    1.295   .     A
C408   C417    1.436   .     S
C409   C411    1.404   .     S
C409   O433    1.296   .     A
C409   O431    1.289   .     A
C410   O432    1.289   .     A
C410   O434    1.296   .     A
C410   C412    1.404   .     S
C411   S437    1.767   .     S
C412   S442    1.768   .     S
C412   C469    1.343   .     S
C413   C418    1.408   .     A
C413   C447    1.448   .     S
C414   C449    1.448   .     S
C414   C417    1.408   .     A
C414   C68     1.372   1_565 S
C415   C417    1.393   .     A
C415   H423    1.074   .     S
C415   C65     1.372   1_565 S
C416   C418    1.393   .     A
C416   H424    1.073   .     S
C419   C451    1.435   .     S
C419   N426    1.362   .     A
C419   C1465   1.434   1_554 S
C420   C453    1.435   .     S
C420   N425    1.362   .     A
C420   C944    1.434   .     S
C421   N425    1.395   .     A
C421   S455    1.817   .     S
C421   C941    1.434   .     S
C422   N426    1.395   .     A
C422   S460    1.817   .     S
C422   C1464   1.434   1_554 S
N425   Zn435   2.045   .     S
N426   Zn436   2.045   .     S
O427   Zn435   2.019   .     S
O428   Zn436   2.019   .     S
O429   Zn436   2.000   .     S
O430   Zn435   2.000   .     S
O431   Zn435   2.039   .     S
O432   Zn436   2.039   .     S
O433   Zn436   2.003   .     S
O434   Zn435   2.003   .     S
S437   O440    1.679   .     S
O438   S495    1.500   .     S
O439   S495    1.503   .     S
O440   H441    0.991   .     S
S442   O445    1.681   .     S
S442   O501    1.502   .     S
S442   O502    1.500   .     S
O445   H446    0.991   .     S
C447   N448    1.158   .     T
C449   N450    1.158   .     T
C451   N452    1.155   .     T
C453   N454    1.155   .     T
S455   O458    1.672   .     S
S455   O456    1.503   .     D
S455   O457    1.503   .     D
O458   H459    0.991   .     S
S460   O462    1.503   .     D
S460   O461    1.503   .     D
S460   O463    1.672   .     S
O463   H464    0.991   .     S
C465   O485    1.307   .     A
C465   O487    1.295   .     A
C465   C476    1.436   .     S
C466   O486    1.307   .     A
C466   O488    1.295   .     A
C466   C475    1.436   .     S
C467   C469    1.404   .     S
C467   O491    1.296   .     A
C467   O489    1.289   .     A
C468   O490    1.289   .     A
C468   O492    1.296   .     A
C468   C470    1.404   .     S
C469   S495    1.767   .     S
C470   S500    1.768   .     S
C470   C353    1.343   1_655 S
C471   C476    1.408   .     A
C471   C505    1.448   .     S
C472   C507    1.448   .     S
C472   C475    1.408   .     A
C472   C126    1.372   1_565 S
C473   C475    1.393   .     A
C473   H481    1.074   .     S
C473   C123    1.372   1_565 S
C474   C476    1.393   .     A
C474   H482    1.073   .     S
C477   C509    1.435   .     S
C477   N484    1.362   .     A
C477   C1523   1.434   1_554 S
C478   C511    1.435   .     S
C478   N483    1.362   .     A
C478   C1002   1.434   .     S
C479   N483    1.395   .     A
C479   S513    1.817   .     S
C479   C999    1.434   .     S
C480   N484    1.395   .     A
C480   S518    1.817   .     S
C480   C1522   1.434   1_554 S
N483   Zn493   2.045   .     S
N484   Zn494   2.045   .     S
O485   Zn493   2.019   .     S
O486   Zn494   2.019   .     S
O487   Zn494   2.000   .     S
O488   Zn493   2.000   .     S
O489   Zn493   2.039   .     S
O490   Zn494   2.039   .     S
O491   Zn494   2.003   .     S
O492   Zn493   2.003   .     S
S495   O498    1.679   .     S
O496   S379    1.500   1_655 S
O497   S379    1.503   1_655 S
O498   H499    0.991   .     S
S500   O503    1.681   .     S
S500   O385    1.502   1_655 S
S500   O386    1.500   1_655 S
O503   H504    0.991   .     S
C505   N506    1.158   .     T
C507   N508    1.158   .     T
C509   N510    1.155   .     T
C511   N512    1.155   .     T
S513   O516    1.672   .     S
S513   O514    1.503   .     D
S513   O515    1.503   .     D
O516   H517    0.991   .     S
S518   O520    1.503   .     D
S518   O519    1.503   .     D
S518   O521    1.672   .     S
O521   H522    0.991   .     S
C523   O543    1.307   .     A
C523   O545    1.295   .     A
C523   C534    1.436   .     S
C524   O544    1.307   .     A
C524   O546    1.295   .     A
C524   C533    1.436   .     S
C525   C527    1.404   .     S
C525   O549    1.296   .     A
C525   O547    1.289   .     A
C526   O548    1.289   .     A
C526   O550    1.296   .     A
C526   C528    1.404   .     S
C527   S553    1.767   .     S
C527   C644    1.343   1_455 S
C528   S558    1.768   .     S
C528   C585    1.343   .     S
C529   C534    1.408   .     A
C529   C563    1.448   .     S
C529   C879    1.372   1_545 S
C530   C565    1.448   .     S
C530   C533    1.408   .     A
C530   C706    1.372   .     S
C531   C533    1.393   .     A
C531   H539    1.074   .     S
C531   C703    1.372   .     S
C532   C534    1.393   .     A
C532   H540    1.073   .     S
C532   C878    1.372   1_545 S
C535   C567    1.435   .     S
C535   N542    1.362   .     A
C536   C569    1.435   .     S
C536   N541    1.362   .     A
C536   C1060   1.434   .     S
C537   N541    1.395   .     A
C537   S571    1.817   .     S
C537   C1057   1.434   .     S
C538   N542    1.395   .     A
C538   S576    1.817   .     S
N541   Zn551   2.045   .     S
N542   Zn552   2.045   .     S
O543   Zn551   2.019   .     S
O544   Zn552   2.019   .     S
O545   Zn552   2.000   .     S
O546   Zn551   2.000   .     S
O547   Zn551   2.039   .     S
O548   Zn552   2.039   .     S
O549   Zn552   2.003   .     S
O550   Zn551   2.003   .     S
S553   O556    1.679   .     S
S553   O670    1.500   1_455 S
S553   O671    1.503   1_455 S
O554   S611    1.500   .     S
O555   S611    1.503   .     S
O556   H557    0.991   .     S
S558   O561    1.681   .     S
S558   O617    1.502   .     S
S558   O618    1.500   .     S
O559   S674    1.502   1_455 S
O560   S674    1.500   1_455 S
O561   H562    0.991   .     S
C563   N564    1.158   .     T
C565   N566    1.158   .     T
C567   N568    1.155   .     T
C569   N570    1.155   .     T
S571   O574    1.672   .     S
S571   O572    1.503   .     D
S571   O573    1.503   .     D
O574   H575    0.991   .     S
S576   O578    1.503   .     D
S576   O577    1.503   .     D
S576   O579    1.672   .     S
O579   H580    0.991   .     S
C581   O601    1.307   .     A
C581   O603    1.295   .     A
C581   C592    1.436   .     S
C582   O602    1.307   .     A
C582   O604    1.295   .     A
C582   C591    1.436   .     S
C583   C585    1.404   .     S
C583   O607    1.296   .     A
C583   O605    1.289   .     A
C584   O606    1.289   .     A
C584   O608    1.296   .     A
C584   C586    1.404   .     S
C585   S611    1.767   .     S
C586   S616    1.768   .     S
C586   C643    1.343   .     S
C587   C592    1.408   .     A
C587   C621    1.448   .     S
C587   C937    1.372   1_545 S
C588   C623    1.448   .     S
C588   C591    1.408   .     A
C588   C764    1.372   .     S
C589   C591    1.393   .     A
C589   H597    1.074   .     S
C589   C761    1.372   .     S
C590   C592    1.393   .     A
C590   H598    1.073   .     S
C590   C936    1.372   1_545 S
C593   C625    1.435   .     S
C593   N600    1.362   .     A
C594   C627    1.435   .     S
C594   N599    1.362   .     A
C594   C1118   1.434   .     S
C595   N599    1.395   .     A
C595   S629    1.817   .     S
C595   C1115   1.434   .     S
C596   N600    1.395   .     A
C596   S634    1.817   .     S
N599   Zn609   2.045   .     S
N600   Zn610   2.045   .     S
O601   Zn609   2.019   .     S
O602   Zn610   2.019   .     S
O603   Zn610   2.000   .     S
O604   Zn609   2.000   .     S
O605   Zn609   2.039   .     S
O606   Zn610   2.039   .     S
O607   Zn610   2.003   .     S
O608   Zn609   2.003   .     S
S611   O614    1.679   .     S
O612   S669    1.500   .     S
O613   S669    1.503   .     S
O614   H615    0.991   .     S
S616   O619    1.681   .     S
S616   O675    1.502   .     S
S616   O676    1.500   .     S
O619   H620    0.991   .     S
C621   N622    1.158   .     T
C623   N624    1.158   .     T
C625   N626    1.155   .     T
C627   N628    1.155   .     T
S629   O632    1.672   .     S
S629   O630    1.503   .     D
S629   O631    1.503   .     D
O632   H633    0.991   .     S
S634   O636    1.503   .     D
S634   O635    1.503   .     D
S634   O637    1.672   .     S
O637   H638    0.991   .     S
C639   O659    1.307   .     A
C639   O661    1.295   .     A
C639   C650    1.436   .     S
C640   O660    1.307   .     A
C640   O662    1.295   .     A
C640   C649    1.436   .     S
C641   C643    1.404   .     S
C641   O665    1.296   .     A
C641   O663    1.289   .     A
C642   O664    1.289   .     A
C642   O666    1.296   .     A
C642   C644    1.404   .     S
C643   S669    1.767   .     S
C644   S674    1.768   .     S
C644   C527    1.343   1_655 S
C645   C650    1.408   .     A
C645   C679    1.448   .     S
C645   C995    1.372   1_545 S
C646   C681    1.448   .     S
C646   C649    1.408   .     A
C646   C822    1.372   .     S
C647   C649    1.393   .     A
C647   H655    1.074   .     S
C647   C819    1.372   .     S
C648   C650    1.393   .     A
C648   H656    1.073   .     S
C648   C994    1.372   1_545 S
C651   C683    1.435   .     S
C651   N658    1.362   .     A
C652   C685    1.435   .     S
C652   N657    1.362   .     A
C652   C1176   1.434   .     S
C653   N657    1.395   .     A
C653   S687    1.817   .     S
C653   C1173   1.434   .     S
C654   N658    1.395   .     A
C654   S692    1.817   .     S
N657   Zn667   2.045   .     S
N658   Zn668   2.045   .     S
O659   Zn667   2.019   .     S
O660   Zn668   2.019   .     S
O661   Zn668   2.000   .     S
O662   Zn667   2.000   .     S
O663   Zn667   2.039   .     S
O664   Zn668   2.039   .     S
O665   Zn668   2.003   .     S
O666   Zn667   2.003   .     S
S669   O672    1.679   .     S
O670   S553    1.500   1_655 S
O671   S553    1.503   1_655 S
O672   H673    0.991   .     S
S674   O677    1.681   .     S
S674   O559    1.502   1_655 S
S674   O560    1.500   1_655 S
O677   H678    0.991   .     S
C679   N680    1.158   .     T
C681   N682    1.158   .     T
C683   N684    1.155   .     T
C685   N686    1.155   .     T
S687   O690    1.672   .     S
S687   O688    1.503   .     D
S687   O689    1.503   .     D
O690   H691    0.991   .     S
S692   O694    1.503   .     D
S692   O693    1.503   .     D
S692   O695    1.672   .     S
O695   H696    0.991   .     S
C697   O717    1.307   .     A
C697   O719    1.295   .     A
C697   C708    1.436   .     S
C698   O718    1.307   .     A
C698   O720    1.295   .     A
C698   C707    1.436   .     S
C699   C701    1.404   .     S
C699   O723    1.296   .     A
C699   O721    1.289   .     A
C700   O722    1.289   .     A
C700   O724    1.296   .     A
C700   C702    1.404   .     S
C701   S727    1.767   .     S
C701   C818    1.343   1_455 S
C702   S732    1.768   .     S
C702   C759    1.343   .     S
C703   C708    1.408   .     A
C703   C737    1.448   .     S
C704   C739    1.448   .     S
C704   C707    1.408   .     A
C704   C880    1.372   .     S
C705   C707    1.393   .     A
C705   H713    1.074   .     S
C705   C877    1.372   .     S
C706   C708    1.393   .     A
C706   H714    1.073   .     S
C709   C741    1.435   .     S
C709   N716    1.362   .     A
C710   C743    1.435   .     S
C710   N715    1.362   .     A
C710   C1234   1.434   .     S
C711   N715    1.395   .     A
C711   S745    1.817   .     S
C711   C1231   1.434   .     S
C712   N716    1.395   .     A
C712   S750    1.817   .     S
N715   Zn725   2.045   .     S
N716   Zn726   2.045   .     S
O717   Zn725   2.019   .     S
O718   Zn726   2.019   .     S
O719   Zn726   2.000   .     S
O720   Zn725   2.000   .     S
O721   Zn725   2.039   .     S
O722   Zn726   2.039   .     S
O723   Zn726   2.003   .     S
O724   Zn725   2.003   .     S
S727   O730    1.679   .     S
S727   O844    1.500   1_455 S
S727   O845    1.503   1_455 S
O728   S785    1.500   .     S
O729   S785    1.503   .     S
O730   H731    0.991   .     S
S732   O735    1.681   .     S
S732   O791    1.502   .     S
S732   O792    1.500   .     S
O733   S848    1.502   1_455 S
O734   S848    1.500   1_455 S
O735   H736    0.991   .     S
C737   N738    1.158   .     T
C739   N740    1.158   .     T
C741   N742    1.155   .     T
C743   N744    1.155   .     T
S745   O748    1.672   .     S
S745   O746    1.503   .     D
S745   O747    1.503   .     D
O748   H749    0.991   .     S
S750   O752    1.503   .     D
S750   O751    1.503   .     D
S750   O753    1.672   .     S
O753   H754    0.991   .     S
C755   O775    1.307   .     A
C755   O777    1.295   .     A
C755   C766    1.436   .     S
C756   O776    1.307   .     A
C756   O778    1.295   .     A
C756   C765    1.436   .     S
C757   C759    1.404   .     S
C757   O781    1.296   .     A
C757   O779    1.289   .     A
C758   O780    1.289   .     A
C758   O782    1.296   .     A
C758   C760    1.404   .     S
C759   S785    1.767   .     S
C760   S790    1.768   .     S
C760   C817    1.343   .     S
C761   C766    1.408   .     A
C761   C795    1.448   .     S
C762   C797    1.448   .     S
C762   C765    1.408   .     A
C762   C938    1.372   .     S
C763   C765    1.393   .     A
C763   H771    1.074   .     S
C763   C935    1.372   .     S
C764   C766    1.393   .     A
C764   H772    1.073   .     S
C767   C799    1.435   .     S
C767   N774    1.362   .     A
C768   C801    1.435   .     S
C768   N773    1.362   .     A
C768   C1292   1.434   .     S
C769   N773    1.395   .     A
C769   S803    1.817   .     S
C769   C1289   1.434   .     S
C770   N774    1.395   .     A
C770   S808    1.817   .     S
N773   Zn783   2.045   .     S
N774   Zn784   2.045   .     S
O775   Zn783   2.019   .     S
O776   Zn784   2.019   .     S
O777   Zn784   2.000   .     S
O778   Zn783   2.000   .     S
O779   Zn783   2.039   .     S
O780   Zn784   2.039   .     S
O781   Zn784   2.003   .     S
O782   Zn783   2.003   .     S
S785   O788    1.679   .     S
O786   S843    1.500   .     S
O787   S843    1.503   .     S
O788   H789    0.991   .     S
S790   O793    1.681   .     S
S790   O849    1.502   .     S
S790   O850    1.500   .     S
O793   H794    0.991   .     S
C795   N796    1.158   .     T
C797   N798    1.158   .     T
C799   N800    1.155   .     T
C801   N802    1.155   .     T
S803   O806    1.672   .     S
S803   O804    1.503   .     D
S803   O805    1.503   .     D
O806   H807    0.991   .     S
S808   O810    1.503   .     D
S808   O809    1.503   .     D
S808   O811    1.672   .     S
O811   H812    0.991   .     S
C813   O833    1.307   .     A
C813   O835    1.295   .     A
C813   C824    1.436   .     S
C814   O834    1.307   .     A
C814   O836    1.295   .     A
C814   C823    1.436   .     S
C815   C817    1.404   .     S
C815   O839    1.296   .     A
C815   O837    1.289   .     A
C816   O838    1.289   .     A
C816   O840    1.296   .     A
C816   C818    1.404   .     S
C817   S843    1.767   .     S
C818   S848    1.768   .     S
C818   C701    1.343   1_655 S
C819   C824    1.408   .     A
C819   C853    1.448   .     S
C820   C855    1.448   .     S
C820   C823    1.408   .     A
C820   C996    1.372   .     S
C821   C823    1.393   .     A
C821   H829    1.074   .     S
C821   C993    1.372   .     S
C822   C824    1.393   .     A
C822   H830    1.073   .     S
C825   C857    1.435   .     S
C825   N832    1.362   .     A
C826   C859    1.435   .     S
C826   N831    1.362   .     A
C826   C1350   1.434   .     S
C827   N831    1.395   .     A
C827   S861    1.817   .     S
C827   C1347   1.434   .     S
C828   N832    1.395   .     A
C828   S866    1.817   .     S
N831   Zn841   2.045   .     S
N832   Zn842   2.045   .     S
O833   Zn841   2.019   .     S
O834   Zn842   2.019   .     S
O835   Zn842   2.000   .     S
O836   Zn841   2.000   .     S
O837   Zn841   2.039   .     S
O838   Zn842   2.039   .     S
O839   Zn842   2.003   .     S
O840   Zn841   2.003   .     S
S843   O846    1.679   .     S
O844   S727    1.500   1_655 S
O845   S727    1.503   1_655 S
O846   H847    0.991   .     S
S848   O851    1.681   .     S
S848   O733    1.502   1_655 S
S848   O734    1.500   1_655 S
O851   H852    0.991   .     S
C853   N854    1.158   .     T
C855   N856    1.158   .     T
C857   N858    1.155   .     T
C859   N860    1.155   .     T
S861   O864    1.672   .     S
S861   O862    1.503   .     D
S861   O863    1.503   .     D
O864   H865    0.991   .     S
S866   O868    1.503   .     D
S866   O867    1.503   .     D
S866   O869    1.672   .     S
O869   H870    0.991   .     S
C871   O891    1.307   .     A
C871   O893    1.295   .     A
C871   C882    1.436   .     S
C872   O892    1.307   .     A
C872   O894    1.295   .     A
C872   C881    1.436   .     S
C873   C875    1.404   .     S
C873   O897    1.296   .     A
C873   O895    1.289   .     A
C874   O896    1.289   .     A
C874   O898    1.296   .     A
C874   C876    1.404   .     S
C875   S901    1.767   .     S
C875   C992    1.343   1_455 S
C876   S906    1.768   .     S
C876   C933    1.343   .     S
C877   C882    1.408   .     A
C877   C911    1.448   .     S
C878   C913    1.448   .     S
C878   C881    1.408   .     A
C878   C532    1.372   1_565 S
C879   C881    1.393   .     A
C879   H887    1.074   .     S
C879   C529    1.372   1_565 S
C880   C882    1.393   .     A
C880   H888    1.073   .     S
C883   C915    1.435   .     S
C883   N890    1.362   .     A
C884   C917    1.435   .     S
C884   N889    1.362   .     A
C884   C1408   1.434   .     S
C885   N889    1.395   .     A
C885   S919    1.817   .     S
C885   C1405   1.434   .     S
C886   N890    1.395   .     A
C886   S924    1.817   .     S
N889   Zn899   2.045   .     S
N890   Zn900   2.045   .     S
O891   Zn899   2.019   .     S
O892   Zn900   2.019   .     S
O893   Zn900   2.000   .     S
O894   Zn899   2.000   .     S
O895   Zn899   2.039   .     S
O896   Zn900   2.039   .     S
O897   Zn900   2.003   .     S
O898   Zn899   2.003   .     S
S901   O904    1.679   .     S
S901   O1018   1.500   1_455 S
S901   O1019   1.503   1_455 S
O902   S959    1.500   .     S
O903   S959    1.503   .     S
O904   H905    0.991   .     S
S906   O909    1.681   .     S
S906   O965    1.502   .     S
S906   O966    1.500   .     S
O907   S1022   1.502   1_455 S
O908   S1022   1.500   1_455 S
O909   H910    0.991   .     S
C911   N912    1.158   .     T
C913   N914    1.158   .     T
C915   N916    1.155   .     T
C917   N918    1.155   .     T
S919   O922    1.672   .     S
S919   O920    1.503   .     D
S919   O921    1.503   .     D
O922   H923    0.991   .     S
S924   O926    1.503   .     D
S924   O925    1.503   .     D
S924   O927    1.672   .     S
O927   H928    0.991   .     S
C929   O949    1.307   .     A
C929   O951    1.295   .     A
C929   C940    1.436   .     S
C930   O950    1.307   .     A
C930   O952    1.295   .     A
C930   C939    1.436   .     S
C931   C933    1.404   .     S
C931   O955    1.296   .     A
C931   O953    1.289   .     A
C932   O954    1.289   .     A
C932   O956    1.296   .     A
C932   C934    1.404   .     S
C933   S959    1.767   .     S
C934   S964    1.768   .     S
C934   C991    1.343   .     S
C935   C940    1.408   .     A
C935   C969    1.448   .     S
C936   C971    1.448   .     S
C936   C939    1.408   .     A
C936   C590    1.372   1_565 S
C937   C939    1.393   .     A
C937   H945    1.074   .     S
C937   C587    1.372   1_565 S
C938   C940    1.393   .     A
C938   H946    1.073   .     S
C941   C973    1.435   .     S
C941   N948    1.362   .     A
C942   C975    1.435   .     S
C942   N947    1.362   .     A
C942   C1466   1.434   .     S
C943   N947    1.395   .     A
C943   S977    1.817   .     S
C943   C1463   1.434   .     S
C944   N948    1.395   .     A
C944   S982    1.817   .     S
N947   Zn957   2.045   .     S
N948   Zn958   2.045   .     S
O949   Zn957   2.019   .     S
O950   Zn958   2.019   .     S
O951   Zn958   2.000   .     S
O952   Zn957   2.000   .     S
O953   Zn957   2.039   .     S
O954   Zn958   2.039   .     S
O955   Zn958   2.003   .     S
O956   Zn957   2.003   .     S
S959   O962    1.679   .     S
O960   S1017   1.500   .     S
O961   S1017   1.503   .     S
O962   H963    0.991   .     S
S964   O967    1.681   .     S
S964   O1023   1.502   .     S
S964   O1024   1.500   .     S
O967   H968    0.991   .     S
C969   N970    1.158   .     T
C971   N972    1.158   .     T
C973   N974    1.155   .     T
C975   N976    1.155   .     T
S977   O980    1.672   .     S
S977   O978    1.503   .     D
S977   O979    1.503   .     D
O980   H981    0.991   .     S
S982   O984    1.503   .     D
S982   O983    1.503   .     D
S982   O985    1.672   .     S
O985   H986    0.991   .     S
C987   O1007   1.307   .     A
C987   O1009   1.295   .     A
C987   C998    1.436   .     S
C988   O1008   1.307   .     A
C988   O1010   1.295   .     A
C988   C997    1.436   .     S
C989   C991    1.404   .     S
C989   O1013   1.296   .     A
C989   O1011   1.289   .     A
C990   O1012   1.289   .     A
C990   O1014   1.296   .     A
C990   C992    1.404   .     S
C991   S1017   1.767   .     S
C992   S1022   1.768   .     S
C992   C875    1.343   1_655 S
C993   C998    1.408   .     A
C993   C1027   1.448   .     S
C994   C1029   1.448   .     S
C994   C997    1.408   .     A
C994   C648    1.372   1_565 S
C995   C997    1.393   .     A
C995   H1003   1.074   .     S
C995   C645    1.372   1_565 S
C996   C998    1.393   .     A
C996   H1004   1.073   .     S
C999   C1031   1.435   .     S
C999   N1006   1.362   .     A
C1000  C1033   1.435   .     S
C1000  N1005   1.362   .     A
C1000  C1524   1.434   .     S
C1001  N1005   1.395   .     A
C1001  S1035   1.817   .     S
C1001  C1521   1.434   .     S
C1002  N1006   1.395   .     A
C1002  S1040   1.817   .     S
N1005  Zn1015  2.045   .     S
N1006  Zn1016  2.045   .     S
O1007  Zn1015  2.019   .     S
O1008  Zn1016  2.019   .     S
O1009  Zn1016  2.000   .     S
O1010  Zn1015  2.000   .     S
O1011  Zn1015  2.039   .     S
O1012  Zn1016  2.039   .     S
O1013  Zn1016  2.003   .     S
O1014  Zn1015  2.003   .     S
S1017  O1020   1.679   .     S
O1018  S901    1.500   1_655 S
O1019  S901    1.503   1_655 S
O1020  H1021   0.991   .     S
S1022  O1025   1.681   .     S
S1022  O907    1.502   1_655 S
S1022  O908    1.500   1_655 S
O1025  H1026   0.991   .     S
C1027  N1028   1.158   .     T
C1029  N1030   1.158   .     T
C1031  N1032   1.155   .     T
C1033  N1034   1.155   .     T
S1035  O1038   1.672   .     S
S1035  O1036   1.503   .     D
S1035  O1037   1.503   .     D
O1038  H1039   0.991   .     S
S1040  O1042   1.503   .     D
S1040  O1041   1.503   .     D
S1040  O1043   1.672   .     S
O1043  H1044   0.991   .     S
C1045  O1065   1.307   .     A
C1045  O1067   1.295   .     A
C1045  C1056   1.436   .     S
C1046  O1066   1.307   .     A
C1046  O1068   1.295   .     A
C1046  C1055   1.436   .     S
C1047  C1049   1.404   .     S
C1047  O1071   1.296   .     A
C1047  O1069   1.289   .     A
C1048  O1070   1.289   .     A
C1048  O1072   1.296   .     A
C1048  C1050   1.404   .     S
C1049  S1075   1.767   .     S
C1049  C1166   1.343   1_455 S
C1050  S1080   1.768   .     S
C1050  C1107   1.343   .     S
C1051  C1056   1.408   .     A
C1051  C1085   1.448   .     S
C1051  C1401   1.372   1_545 S
C1052  C1087   1.448   .     S
C1052  C1055   1.408   .     A
C1052  C1228   1.372   .     S
C1053  C1055   1.393   .     A
C1053  H1061   1.074   .     S
C1053  C1225   1.372   .     S
C1054  C1056   1.393   .     A
C1054  H1062   1.073   .     S
C1054  C1400   1.372   1_545 S
C1057  C1089   1.435   .     S
C1057  N1064   1.362   .     A
C1058  C1091   1.435   .     S
C1058  N1063   1.362   .     A
C1058  C16     1.434   1_556 S
C1059  N1063   1.395   .     A
C1059  S1093   1.817   .     S
C1059  C13     1.434   1_556 S
C1060  N1064   1.395   .     A
C1060  S1098   1.817   .     S
N1063  Zn1073  2.045   .     S
N1064  Zn1074  2.045   .     S
O1065  Zn1073  2.019   .     S
O1066  Zn1074  2.019   .     S
O1067  Zn1074  2.000   .     S
O1068  Zn1073  2.000   .     S
O1069  Zn1073  2.039   .     S
O1070  Zn1074  2.039   .     S
O1071  Zn1074  2.003   .     S
O1072  Zn1073  2.003   .     S
S1075  O1078   1.679   .     S
S1075  O1192   1.500   1_455 S
S1075  O1193   1.503   1_455 S
O1076  S1133   1.500   .     S
O1077  S1133   1.503   .     S
O1078  H1079   0.991   .     S
S1080  O1083   1.681   .     S
S1080  O1139   1.502   .     S
S1080  O1140   1.500   .     S
O1081  S1196   1.502   1_455 S
O1082  S1196   1.500   1_455 S
O1083  H1084   0.991   .     S
C1085  N1086   1.158   .     T
C1087  N1088   1.158   .     T
C1089  N1090   1.155   .     T
C1091  N1092   1.155   .     T
S1093  O1096   1.672   .     S
S1093  O1094   1.503   .     D
S1093  O1095   1.503   .     D
O1096  H1097   0.991   .     S
S1098  O1100   1.503   .     D
S1098  O1099   1.503   .     D
S1098  O1101   1.672   .     S
O1101  H1102   0.991   .     S
C1103  O1123   1.307   .     A
C1103  O1125   1.295   .     A
C1103  C1114   1.436   .     S
C1104  O1124   1.307   .     A
C1104  O1126   1.295   .     A
C1104  C1113   1.436   .     S
C1105  C1107   1.404   .     S
C1105  O1129   1.296   .     A
C1105  O1127   1.289   .     A
C1106  O1128   1.289   .     A
C1106  O1130   1.296   .     A
C1106  C1108   1.404   .     S
C1107  S1133   1.767   .     S
C1108  S1138   1.768   .     S
C1108  C1165   1.343   .     S
C1109  C1114   1.408   .     A
C1109  C1143   1.448   .     S
C1109  C1459   1.372   1_545 S
C1110  C1145   1.448   .     S
C1110  C1113   1.408   .     A
C1110  C1286   1.372   .     S
C1111  C1113   1.393   .     A
C1111  H1119   1.074   .     S
C1111  C1283   1.372   .     S
C1112  C1114   1.393   .     A
C1112  H1120   1.073   .     S
C1112  C1458   1.372   1_545 S
C1115  C1147   1.435   .     S
C1115  N1122   1.362   .     A
C1116  C1149   1.435   .     S
C1116  N1121   1.362   .     A
C1116  C74     1.434   1_556 S
C1117  N1121   1.395   .     A
C1117  S1151   1.817   .     S
C1117  C71     1.434   1_556 S
C1118  N1122   1.395   .     A
C1118  S1156   1.817   .     S
N1121  Zn1131  2.045   .     S
N1122  Zn1132  2.045   .     S
O1123  Zn1131  2.019   .     S
O1124  Zn1132  2.019   .     S
O1125  Zn1132  2.000   .     S
O1126  Zn1131  2.000   .     S
O1127  Zn1131  2.039   .     S
O1128  Zn1132  2.039   .     S
O1129  Zn1132  2.003   .     S
O1130  Zn1131  2.003   .     S
S1133  O1136   1.679   .     S
O1134  S1191   1.500   .     S
O1135  S1191   1.503   .     S
O1136  H1137   0.991   .     S
S1138  O1141   1.681   .     S
S1138  O1197   1.502   .     S
S1138  O1198   1.500   .     S
O1141  H1142   0.991   .     S
C1143  N1144   1.158   .     T
C1145  N1146   1.158   .     T
C1147  N1148   1.155   .     T
C1149  N1150   1.155   .     T
S1151  O1154   1.672   .     S
S1151  O1152   1.503   .     D
S1151  O1153   1.503   .     D
O1154  H1155   0.991   .     S
S1156  O1158   1.503   .     D
S1156  O1157   1.503   .     D
S1156  O1159   1.672   .     S
O1159  H1160   0.991   .     S
C1161  O1181   1.307   .     A
C1161  O1183   1.295   .     A
C1161  C1172   1.436   .     S
C1162  O1182   1.307   .     A
C1162  O1184   1.295   .     A
C1162  C1171   1.436   .     S
C1163  C1165   1.404   .     S
C1163  O1187   1.296   .     A
C1163  O1185   1.289   .     A
C1164  O1186   1.289   .     A
C1164  O1188   1.296   .     A
C1164  C1166   1.404   .     S
C1165  S1191   1.767   .     S
C1166  S1196   1.768   .     S
C1166  C1049   1.343   1_655 S
C1167  C1172   1.408   .     A
C1167  C1201   1.448   .     S
C1167  C1517   1.372   1_545 S
C1168  C1203   1.448   .     S
C1168  C1171   1.408   .     A
C1168  C1344   1.372   .     S
C1169  C1171   1.393   .     A
C1169  H1177   1.074   .     S
C1169  C1341   1.372   .     S
C1170  C1172   1.393   .     A
C1170  H1178   1.073   .     S
C1170  C1516   1.372   1_545 S
C1173  C1205   1.435   .     S
C1173  N1180   1.362   .     A
C1174  C1207   1.435   .     S
C1174  N1179   1.362   .     A
C1174  C132    1.434   1_556 S
C1175  N1179   1.395   .     A
C1175  S1209   1.817   .     S
C1175  C129    1.434   1_556 S
C1176  N1180   1.395   .     A
C1176  S1214   1.817   .     S
N1179  Zn1189  2.045   .     S
N1180  Zn1190  2.045   .     S
O1181  Zn1189  2.019   .     S
O1182  Zn1190  2.019   .     S
O1183  Zn1190  2.000   .     S
O1184  Zn1189  2.000   .     S
O1185  Zn1189  2.039   .     S
O1186  Zn1190  2.039   .     S
O1187  Zn1190  2.003   .     S
O1188  Zn1189  2.003   .     S
S1191  O1194   1.679   .     S
O1192  S1075   1.500   1_655 S
O1193  S1075   1.503   1_655 S
O1194  H1195   0.991   .     S
S1196  O1199   1.681   .     S
S1196  O1081   1.502   1_655 S
S1196  O1082   1.500   1_655 S
O1199  H1200   0.991   .     S
C1201  N1202   1.158   .     T
C1203  N1204   1.158   .     T
C1205  N1206   1.155   .     T
C1207  N1208   1.155   .     T
S1209  O1212   1.672   .     S
S1209  O1210   1.503   .     D
S1209  O1211   1.503   .     D
O1212  H1213   0.991   .     S
S1214  O1216   1.503   .     D
S1214  O1215   1.503   .     D
S1214  O1217   1.672   .     S
O1217  H1218   0.991   .     S
C1219  O1239   1.307   .     A
C1219  O1241   1.295   .     A
C1219  C1230   1.436   .     S
C1220  O1240   1.307   .     A
C1220  O1242   1.295   .     A
C1220  C1229   1.436   .     S
C1221  C1223   1.404   .     S
C1221  O1245   1.296   .     A
C1221  O1243   1.289   .     A
C1222  O1244   1.289   .     A
C1222  O1246   1.296   .     A
C1222  C1224   1.404   .     S
C1223  S1249   1.767   .     S
C1223  C1340   1.343   1_455 S
C1224  S1254   1.768   .     S
C1224  C1281   1.343   .     S
C1225  C1230   1.408   .     A
C1225  C1259   1.448   .     S
C1226  C1261   1.448   .     S
C1226  C1229   1.408   .     A
C1226  C1402   1.372   .     S
C1227  C1229   1.393   .     A
C1227  H1235   1.074   .     S
C1227  C1399   1.372   .     S
C1228  C1230   1.393   .     A
C1228  H1236   1.073   .     S
C1231  C1263   1.435   .     S
C1231  N1238   1.362   .     A
C1232  C1265   1.435   .     S
C1232  N1237   1.362   .     A
C1232  C190    1.434   1_556 S
C1233  N1237   1.395   .     A
C1233  S1267   1.817   .     S
C1233  C187    1.434   1_556 S
C1234  N1238   1.395   .     A
C1234  S1272   1.817   .     S
N1237  Zn1247  2.045   .     S
N1238  Zn1248  2.045   .     S
O1239  Zn1247  2.019   .     S
O1240  Zn1248  2.019   .     S
O1241  Zn1248  2.000   .     S
O1242  Zn1247  2.000   .     S
O1243  Zn1247  2.039   .     S
O1244  Zn1248  2.039   .     S
O1245  Zn1248  2.003   .     S
O1246  Zn1247  2.003   .     S
S1249  O1252   1.679   .     S
S1249  O1366   1.500   1_455 S
S1249  O1367   1.503   1_455 S
O1250  S1307   1.500   .     S
O1251  S1307   1.503   .     S
O1252  H1253   0.991   .     S
S1254  O1257   1.681   .     S
S1254  O1313   1.502   .     S
S1254  O1314   1.500   .     S
O1255  S1370   1.502   1_455 S
O1256  S1370   1.500   1_455 S
O1257  H1258   0.991   .     S
C1259  N1260   1.158   .     T
C1261  N1262   1.158   .     T
C1263  N1264   1.155   .     T
C1265  N1266   1.155   .     T
S1267  O1270   1.672   .     S
S1267  O1268   1.503   .     D
S1267  O1269   1.503   .     D
O1270  H1271   0.991   .     S
S1272  O1274   1.503   .     D
S1272  O1273   1.503   .     D
S1272  O1275   1.672   .     S
O1275  H1276   0.991   .     S
C1277  O1297   1.307   .     A
C1277  O1299   1.295   .     A
C1277  C1288   1.436   .     S
C1278  O1298   1.307   .     A
C1278  O1300   1.295   .     A
C1278  C1287   1.436   .     S
C1279  C1281   1.404   .     S
C1279  O1303   1.296   .     A
C1279  O1301   1.289   .     A
C1280  O1302   1.289   .     A
C1280  O1304   1.296   .     A
C1280  C1282   1.404   .     S
C1281  S1307   1.767   .     S
C1282  S1312   1.768   .     S
C1282  C1339   1.343   .     S
C1283  C1288   1.408   .     A
C1283  C1317   1.448   .     S
C1284  C1319   1.448   .     S
C1284  C1287   1.408   .     A
C1284  C1460   1.372   .     S
C1285  C1287   1.393   .     A
C1285  H1293   1.074   .     S
C1285  C1457   1.372   .     S
C1286  C1288   1.393   .     A
C1286  H1294   1.073   .     S
C1289  C1321   1.435   .     S
C1289  N1296   1.362   .     A
C1290  C1323   1.435   .     S
C1290  N1295   1.362   .     A
C1290  C248    1.434   1_556 S
C1291  N1295   1.395   .     A
C1291  S1325   1.817   .     S
C1291  C245    1.434   1_556 S
C1292  N1296   1.395   .     A
C1292  S1330   1.817   .     S
N1295  Zn1305  2.045   .     S
N1296  Zn1306  2.045   .     S
O1297  Zn1305  2.019   .     S
O1298  Zn1306  2.019   .     S
O1299  Zn1306  2.000   .     S
O1300  Zn1305  2.000   .     S
O1301  Zn1305  2.039   .     S
O1302  Zn1306  2.039   .     S
O1303  Zn1306  2.003   .     S
O1304  Zn1305  2.003   .     S
S1307  O1310   1.679   .     S
O1308  S1365   1.500   .     S
O1309  S1365   1.503   .     S
O1310  H1311   0.991   .     S
S1312  O1315   1.681   .     S
S1312  O1371   1.502   .     S
S1312  O1372   1.500   .     S
O1315  H1316   0.991   .     S
C1317  N1318   1.158   .     T
C1319  N1320   1.158   .     T
C1321  N1322   1.155   .     T
C1323  N1324   1.155   .     T
S1325  O1328   1.672   .     S
S1325  O1326   1.503   .     D
S1325  O1327   1.503   .     D
O1328  H1329   0.991   .     S
S1330  O1332   1.503   .     D
S1330  O1331   1.503   .     D
S1330  O1333   1.672   .     S
O1333  H1334   0.991   .     S
C1335  O1355   1.307   .     A
C1335  O1357   1.295   .     A
C1335  C1346   1.436   .     S
C1336  O1356   1.307   .     A
C1336  O1358   1.295   .     A
C1336  C1345   1.436   .     S
C1337  C1339   1.404   .     S
C1337  O1361   1.296   .     A
C1337  O1359   1.289   .     A
C1338  O1360   1.289   .     A
C1338  O1362   1.296   .     A
C1338  C1340   1.404   .     S
C1339  S1365   1.767   .     S
C1340  S1370   1.768   .     S
C1340  C1223   1.343   1_655 S
C1341  C1346   1.408   .     A
C1341  C1375   1.448   .     S
C1342  C1377   1.448   .     S
C1342  C1345   1.408   .     A
C1342  C1518   1.372   .     S
C1343  C1345   1.393   .     A
C1343  H1351   1.074   .     S
C1343  C1515   1.372   .     S
C1344  C1346   1.393   .     A
C1344  H1352   1.073   .     S
C1347  C1379   1.435   .     S
C1347  N1354   1.362   .     A
C1348  C1381   1.435   .     S
C1348  N1353   1.362   .     A
C1348  C306    1.434   1_556 S
C1349  N1353   1.395   .     A
C1349  S1383   1.817   .     S
C1349  C303    1.434   1_556 S
C1350  N1354   1.395   .     A
C1350  S1388   1.817   .     S
N1353  Zn1363  2.045   .     S
N1354  Zn1364  2.045   .     S
O1355  Zn1363  2.019   .     S
O1356  Zn1364  2.019   .     S
O1357  Zn1364  2.000   .     S
O1358  Zn1363  2.000   .     S
O1359  Zn1363  2.039   .     S
O1360  Zn1364  2.039   .     S
O1361  Zn1364  2.003   .     S
O1362  Zn1363  2.003   .     S
S1365  O1368   1.679   .     S
O1366  S1249   1.500   1_655 S
O1367  S1249   1.503   1_655 S
O1368  H1369   0.991   .     S
S1370  O1373   1.681   .     S
S1370  O1255   1.502   1_655 S
S1370  O1256   1.500   1_655 S
O1373  H1374   0.991   .     S
C1375  N1376   1.158   .     T
C1377  N1378   1.158   .     T
C1379  N1380   1.155   .     T
C1381  N1382   1.155   .     T
S1383  O1386   1.672   .     S
S1383  O1384   1.503   .     D
S1383  O1385   1.503   .     D
O1386  H1387   0.991   .     S
S1388  O1390   1.503   .     D
S1388  O1389   1.503   .     D
S1388  O1391   1.672   .     S
O1391  H1392   0.991   .     S
C1393  O1413   1.307   .     A
C1393  O1415   1.295   .     A
C1393  C1404   1.436   .     S
C1394  O1414   1.307   .     A
C1394  O1416   1.295   .     A
C1394  C1403   1.436   .     S
C1395  C1397   1.404   .     S
C1395  O1419   1.296   .     A
C1395  O1417   1.289   .     A
C1396  O1418   1.289   .     A
C1396  O1420   1.296   .     A
C1396  C1398   1.404   .     S
C1397  S1423   1.767   .     S
C1397  C1514   1.343   1_455 S
C1398  S1428   1.768   .     S
C1398  C1455   1.343   .     S
C1399  C1404   1.408   .     A
C1399  C1433   1.448   .     S
C1400  C1435   1.448   .     S
C1400  C1403   1.408   .     A
C1400  C1054   1.372   1_565 S
C1401  C1403   1.393   .     A
C1401  H1409   1.074   .     S
C1401  C1051   1.372   1_565 S
C1402  C1404   1.393   .     A
C1402  H1410   1.073   .     S
C1405  C1437   1.435   .     S
C1405  N1412   1.362   .     A
C1406  C1439   1.435   .     S
C1406  N1411   1.362   .     A
C1406  C364    1.434   1_556 S
C1407  N1411   1.395   .     A
C1407  S1441   1.817   .     S
C1407  C361    1.434   1_556 S
C1408  N1412   1.395   .     A
C1408  S1446   1.817   .     S
N1411  Zn1421  2.045   .     S
N1412  Zn1422  2.045   .     S
O1413  Zn1421  2.019   .     S
O1414  Zn1422  2.019   .     S
O1415  Zn1422  2.000   .     S
O1416  Zn1421  2.000   .     S
O1417  Zn1421  2.039   .     S
O1418  Zn1422  2.039   .     S
O1419  Zn1422  2.003   .     S
O1420  Zn1421  2.003   .     S
S1423  O1426   1.679   .     S
S1423  O1540   1.500   1_455 S
S1423  O1541   1.503   1_455 S
O1424  S1481   1.500   .     S
O1425  S1481   1.503   .     S
O1426  H1427   0.991   .     S
S1428  O1431   1.681   .     S
S1428  O1487   1.502   .     S
S1428  O1488   1.500   .     S
O1429  S1544   1.502   1_455 S
O1430  S1544   1.500   1_455 S
O1431  H1432   0.991   .     S
C1433  N1434   1.158   .     T
C1435  N1436   1.158   .     T
C1437  N1438   1.155   .     T
C1439  N1440   1.155   .     T
S1441  O1444   1.672   .     S
S1441  O1442   1.503   .     D
S1441  O1443   1.503   .     D
O1444  H1445   0.991   .     S
S1446  O1448   1.503   .     D
S1446  O1447   1.503   .     D
S1446  O1449   1.672   .     S
O1449  H1450   0.991   .     S
C1451  O1471   1.307   .     A
C1451  O1473   1.295   .     A
C1451  C1462   1.436   .     S
C1452  O1472   1.307   .     A
C1452  O1474   1.295   .     A
C1452  C1461   1.436   .     S
C1453  C1455   1.404   .     S
C1453  O1477   1.296   .     A
C1453  O1475   1.289   .     A
C1454  O1476   1.289   .     A
C1454  O1478   1.296   .     A
C1454  C1456   1.404   .     S
C1455  S1481   1.767   .     S
C1456  S1486   1.768   .     S
C1456  C1513   1.343   .     S
C1457  C1462   1.408   .     A
C1457  C1491   1.448   .     S
C1458  C1493   1.448   .     S
C1458  C1461   1.408   .     A
C1458  C1112   1.372   1_565 S
C1459  C1461   1.393   .     A
C1459  H1467   1.074   .     S
C1459  C1109   1.372   1_565 S
C1460  C1462   1.393   .     A
C1460  H1468   1.073   .     S
C1463  C1495   1.435   .     S
C1463  N1470   1.362   .     A
C1464  C1497   1.435   .     S
C1464  N1469   1.362   .     A
C1464  C422    1.434   1_556 S
C1465  N1469   1.395   .     A
C1465  S1499   1.817   .     S
C1465  C419    1.434   1_556 S
C1466  N1470   1.395   .     A
C1466  S1504   1.817   .     S
N1469  Zn1479  2.045   .     S
N1470  Zn1480  2.045   .     S
O1471  Zn1479  2.019   .     S
O1472  Zn1480  2.019   .     S
O1473  Zn1480  2.000   .     S
O1474  Zn1479  2.000   .     S
O1475  Zn1479  2.039   .     S
O1476  Zn1480  2.039   .     S
O1477  Zn1480  2.003   .     S
O1478  Zn1479  2.003   .     S
S1481  O1484   1.679   .     S
O1482  S1539   1.500   .     S
O1483  S1539   1.503   .     S
O1484  H1485   0.991   .     S
S1486  O1489   1.681   .     S
S1486  O1545   1.502   .     S
S1486  O1546   1.500   .     S
O1489  H1490   0.991   .     S
C1491  N1492   1.158   .     T
C1493  N1494   1.158   .     T
C1495  N1496   1.155   .     T
C1497  N1498   1.155   .     T
S1499  O1502   1.672   .     S
S1499  O1500   1.503   .     D
S1499  O1501   1.503   .     D
O1502  H1503   0.991   .     S
S1504  O1506   1.503   .     D
S1504  O1505   1.503   .     D
S1504  O1507   1.672   .     S
O1507  H1508   0.991   .     S
C1509  O1529   1.307   .     A
C1509  O1531   1.295   .     A
C1509  C1520   1.436   .     S
C1510  O1530   1.307   .     A
C1510  O1532   1.295   .     A
C1510  C1519   1.436   .     S
C1511  C1513   1.404   .     S
C1511  O1535   1.296   .     A
C1511  O1533   1.289   .     A
C1512  O1534   1.289   .     A
C1512  O1536   1.296   .     A
C1512  C1514   1.404   .     S
C1513  S1539   1.767   .     S
C1514  S1544   1.768   .     S
C1514  C1397   1.343   1_655 S
C1515  C1520   1.408   .     A
C1515  C1549   1.448   .     S
C1516  C1551   1.448   .     S
C1516  C1519   1.408   .     A
C1516  C1170   1.372   1_565 S
C1517  C1519   1.393   .     A
C1517  H1525   1.074   .     S
C1517  C1167   1.372   1_565 S
C1518  C1520   1.393   .     A
C1518  H1526   1.073   .     S
C1521  C1553   1.435   .     S
C1521  N1528   1.362   .     A
C1522  C1555   1.435   .     S
C1522  N1527   1.362   .     A
C1522  C480    1.434   1_556 S
C1523  N1527   1.395   .     A
C1523  S1557   1.817   .     S
C1523  C477    1.434   1_556 S
C1524  N1528   1.395   .     A
C1524  S1562   1.817   .     S
N1527  Zn1537  2.045   .     S
N1528  Zn1538  2.045   .     S
O1529  Zn1537  2.019   .     S
O1530  Zn1538  2.019   .     S
O1531  Zn1538  2.000   .     S
O1532  Zn1537  2.000   .     S
O1533  Zn1537  2.039   .     S
O1534  Zn1538  2.039   .     S
O1535  Zn1538  2.003   .     S
O1536  Zn1537  2.003   .     S
S1539  O1542   1.679   .     S
O1540  S1423   1.500   1_655 S
O1541  S1423   1.503   1_655 S
O1542  H1543   0.991   .     S
S1544  O1547   1.681   .     S
S1544  O1429   1.502   1_655 S
S1544  O1430   1.500   1_655 S
O1547  H1548   0.991   .     S
C1549  N1550   1.158   .     T
C1551  N1552   1.158   .     T
C1553  N1554   1.155   .     T
C1555  N1556   1.155   .     T
S1557  O1560   1.672   .     S
S1557  O1558   1.503   .     D
S1557  O1559   1.503   .     D
O1560  H1561   0.991   .     S
S1562  O1564   1.503   .     D
S1562  O1563   1.503   .     D
S1562  O1565   1.672   .     S
O1565  H1566   0.991   .     S
