data_str_m3_o1_o18_pcu_sym.74
_audit_creation_date              2020-01-03
_audit_creation_method            'Materials Studio'
_symmetry_space_group_name_H-M    'P1'
_symmetry_Int_Tables_number       1
_symmetry_cell_setting            triclinic
loop_
_symmetry_equiv_pos_as_xyz
  x,y,z
_cell_length_a                    29.7695
_cell_length_b                    31.8810
_cell_length_c                    30.8544
_cell_angle_alpha                 90.3256
_cell_angle_beta                  69.2729
_cell_angle_gamma                 89.7234
loop_
_atom_site_label
_atom_site_type_symbol
_atom_site_fract_x
_atom_site_fract_y
_atom_site_fract_z
_atom_site_U_iso_or_equiv
_atom_site_adp_type
_atom_site_occupancy
C1     C     0.16686   0.24652   0.24928   0.00000  Uiso   1.00
C2     C     0.12738   0.31135   0.28087   0.00000  Uiso   1.00
C3     C     0.16625   0.04270   0.25264   0.00000  Uiso   1.00
C4     C     0.16680   0.29069   0.24915   0.00000  Uiso   1.00
C5     C     0.31789   0.13528   0.22819   0.00000  Uiso   1.00
C6     C     0.01557   0.19724   0.27335   0.00000  Uiso   1.00
C7     C     0.03203   0.13468   0.22954   0.00000  Uiso   1.00
C8     C     0.30073   0.19784   0.27238   0.00000  Uiso   1.00
C9     C     0.13694   0.16813   0.33783   0.00000  Uiso   1.00
C10    C     0.19643   0.16553   0.16221   0.00000  Uiso   1.00
C11    C     0.11910   0.16885   0.38848   0.00000  Uiso   1.00
C12    C     0.16635   0.08685   0.25113   0.00000  Uiso   1.00
C13    C     0.21352   0.15610   0.11260   0.00000  Uiso   1.00
C14    C     0.05301   0.16870   0.46263   0.00000  Uiso   1.00
C15    C     0.26349   0.11215   0.04880   0.00000  Uiso   1.00
C16    C     0.06985   0.16880   0.41384   0.00000  Uiso   1.00
C17    C     0.25259   0.12873   0.09349   0.00000  Uiso   1.00
C18    C     0.15163   0.16730   0.41199   0.00000  Uiso   1.00
C19    C     0.18384   0.16570   0.08737   0.00000  Uiso   1.00
C20    C     0.13556   0.15386   0.45777   0.00000  Uiso   1.00
C21    C     0.19092   0.14447   0.04558   0.00000  Uiso   1.00
C22    C     0.08590   0.15828   0.48497   0.00000  Uiso   1.00
C23    C     0.10589   0.14358   0.05341   0.00000  Uiso   1.00
C24    C     0.23434   0.12272   0.02284   0.00000  Uiso   1.00
C25    C     0.16873   0.14052   0.47811   0.00000  Uiso   1.00
C26    C     0.15527   0.14499   0.02583   0.00000  Uiso   1.00
C27    C     0.31830   0.20896   0.47008   0.00000  Uiso   1.00
C28    C     0.28123   0.23302   0.00959   0.00000  Uiso   1.00
C29    C     0.25383   0.26505   0.49167   0.00000  Uiso   1.00
C30    C     0.27643   0.04160   0.04268   0.00000  Uiso   1.00
C31    C     0.30923   0.01020   0.05423   0.00000  Uiso   1.00
C32    C     0.02214   0.00186   0.01304   0.00000  Uiso   1.00
C33    C     0.10464   0.08720   0.10026   0.00000  Uiso   1.00
C34    C     0.21336   0.12018   0.45318   0.00000  Uiso   1.00
C35    C     0.06295   0.05852   0.10266   0.00000  Uiso   1.00
C36    C     0.07443   0.01295   0.11002   0.00000  Uiso   1.00
C37    C     0.19687   0.07017   0.40680   0.00000  Uiso   1.00
C38    C     0.22544   0.03027   0.40770   0.00000  Uiso   1.00
C39    C     0.19911   0.32434   0.40148   0.00000  Uiso   1.00
C40    C     0.07103   0.15227   0.03338   0.00000  Uiso   1.00
C41    C     0.24634   0.11134   0.47579   0.00000  Uiso   1.00
C42    C     0.20632   0.31199   0.21881   0.00000  Uiso   1.00
C43    C     0.12709   0.02101   0.28387   0.00000  Uiso   1.00
C44    C     0.20558   0.02197   0.22072   0.00000  Uiso   1.00
H45    H     0.27306   0.11804   0.11420   0.00000  Uiso   1.00
H46    H     0.01227   0.23220   0.45000   0.00000  Uiso   1.00
H47    H     0.25537   0.21090   0.03251   0.00000  Uiso   1.00
H48    H     0.29982   0.24906   0.03037   0.00000  Uiso   1.00
H49    H     0.27900   0.28752   0.46796   0.00000  Uiso   1.00
H50    H     0.22830   0.28282   0.02131   0.00000  Uiso   1.00
H51    H     0.23313   0.24886   0.47288   0.00000  Uiso   1.00
H52    H     0.26910   0.03052   0.01162   0.00000  Uiso   1.00
H53    H     0.24160   0.04164   0.07267   0.00000  Uiso   1.00
H54    H     0.31770   0.02228   0.08417   0.00000  Uiso   1.00
H55    H     0.28965   0.31367   0.06513   0.00000  Uiso   1.00
H56    H     0.04456   0.17087   0.39589   0.00000  Uiso   1.00
H57    H     0.01380   0.32177   0.48351   0.00000  Uiso   1.00
H58    H     0.04493   0.31242   0.02317   0.00000  Uiso   1.00
H59    H     0.04263   0.03130   0.00179   0.00000  Uiso   1.00
H60    H     0.11463   0.08276   0.13125   0.00000  Uiso   1.00
H61    H     0.13684   0.07673   0.07055   0.00000  Uiso   1.00
H62    H     0.03003   0.06863   0.13132   0.00000  Uiso   1.00
H63    H     0.05614   0.06105   0.06968   0.00000  Uiso   1.00
H64    H     0.10614   0.00170   0.08049   0.00000  Uiso   1.00
H65    H     0.04336   0.32610   0.11255   0.00000  Uiso   1.00
H66    H     0.08194   0.00997   0.14267   0.00000  Uiso   1.00
H67    H     0.23501   0.03954   0.19683   0.00000  Uiso   1.00
H68    H     0.18978   0.07070   0.37378   0.00000  Uiso   1.00
H69    H     0.16100   0.06926   0.43514   0.00000  Uiso   1.00
H70    H     0.26112   0.03141   0.37942   0.00000  Uiso   1.00
H71    H     0.23108   0.02831   0.44135   0.00000  Uiso   1.00
H72    H     0.16365   0.32214   0.42990   0.00000  Uiso   1.00
H73    H     0.22071   0.29605   0.40228   0.00000  Uiso   1.00
H74    H     0.19373   0.32507   0.36764   0.00000  Uiso   1.00
H75    H     0.26850   0.31009   0.16856   0.00000  Uiso   1.00
H76    H     0.09849   0.06845   0.32460   0.00000  Uiso   1.00
H77    H     0.28117   0.11567   0.19232   0.00000  Uiso   1.00
H78    H     0.09769   0.29391   0.30457   0.00000  Uiso   1.00
H79    H     0.00236   0.23540   0.32562   0.00000  Uiso   1.00
H80    H     0.04546   0.07785   0.20480   0.00000  Uiso   1.00
H81    H     0.28667   0.25549   0.29330   0.00000  Uiso   1.00
H82    H     0.01878   0.15398   0.09351   0.00000  Uiso   1.00
H83    H     0.29643   0.09156   0.41883   0.00000  Uiso   1.00
H84    H     0.15772   0.21719   0.12140   0.00000  Uiso   1.00
H85    H     0.19712   0.20741   0.37477   0.00000  Uiso   1.00
H86    H     0.30049   0.19503   0.44725   0.00000  Uiso   1.00
N87    N     0.04759   0.16668   0.25001   0.00000  Uiso   1.00
N88    N     0.28574   0.16666   0.24999   0.00000  Uiso   1.00
O89    O     0.12846   0.22775   0.25000   0.00000  Uiso   1.00
O90    O     0.29098   0.09366   0.45232   0.00000  Uiso   1.00
O91    O     0.14875   0.19664   0.10169   0.00000  Uiso   1.00
O92    O     0.19810   0.18181   0.39253   0.00000  Uiso   1.00
O93    O     0.00485   0.17622   0.48873   0.00000  Uiso   1.00
O94    O     0.29869   0.08150   0.03393   0.00000  Uiso   1.00
O95    O     0.09136   0.13000   0.09898   0.00000  Uiso   1.00
O96    O     0.22394   0.10640   0.40787   0.00000  Uiso   1.00
O97    O     0.24404   0.28998   0.18721   0.00000  Uiso   1.00
O98    O     0.08890   0.04017   0.31792   0.00000  Uiso   1.00
O99    O     0.30535   0.10400   0.20395   0.00000  Uiso   1.00
O100   O     0.20488   0.10558   0.24999   0.00000  Uiso   1.00
O101   O     0.03053   0.22592   0.29888   0.00000  Uiso   1.00
O102   O     0.06334   0.10202   0.21062   0.00000  Uiso   1.00
O103   O     0.26859   0.22951   0.29327   0.00000  Uiso   1.00
O104   O     0.20490   0.22774   0.25000   0.00000  Uiso   1.00
O105   O     0.12843   0.10559   0.25000   0.00000  Uiso   1.00
O106   O     0.10661   0.16667   0.31612   0.00000  Uiso   1.00
O107   O     0.22672   0.16666   0.18387   0.00000  Uiso   1.00
O108   O     0.18305   0.16666   0.31612   0.00000  Uiso   1.00
O109   O     0.15028   0.16667   0.18388   0.00000  Uiso   1.00
O110   O     0.02288   0.15480   0.06025   0.00000  Uiso   1.00
Zn111  Zn    0.11562   0.16667   0.25000   0.00000  Uiso   1.00
Zn112  Zn    0.21771   0.16666   0.25000   0.00000  Uiso   1.00
C113   C     0.50020   0.24652   0.24928   0.00000  Uiso   1.00
C114   C     0.46071   0.31135   0.28087   0.00000  Uiso   1.00
C115   C     0.49959   0.04270   0.25264   0.00000  Uiso   1.00
C116   C     0.50014   0.29069   0.24915   0.00000  Uiso   1.00
C117   C     0.65122   0.13528   0.22819   0.00000  Uiso   1.00
C118   C     0.34891   0.19724   0.27335   0.00000  Uiso   1.00
C119   C     0.36536   0.13468   0.22954   0.00000  Uiso   1.00
C120   C     0.63406   0.19784   0.27238   0.00000  Uiso   1.00
C121   C     0.47028   0.16813   0.33783   0.00000  Uiso   1.00
C122   C     0.52977   0.16553   0.16221   0.00000  Uiso   1.00
C123   C     0.45243   0.16885   0.38848   0.00000  Uiso   1.00
C124   C     0.49969   0.08685   0.25113   0.00000  Uiso   1.00
C125   C     0.54685   0.15610   0.11260   0.00000  Uiso   1.00
C126   C     0.38634   0.16870   0.46263   0.00000  Uiso   1.00
C127   C     0.59682   0.11215   0.04880   0.00000  Uiso   1.00
C128   C     0.40318   0.16880   0.41384   0.00000  Uiso   1.00
C129   C     0.58592   0.12873   0.09349   0.00000  Uiso   1.00
C130   C     0.48496   0.16730   0.41199   0.00000  Uiso   1.00
C131   C     0.51717   0.16570   0.08737   0.00000  Uiso   1.00
C132   C     0.46889   0.15386   0.45777   0.00000  Uiso   1.00
C133   C     0.52425   0.14447   0.04558   0.00000  Uiso   1.00
C134   C     0.41923   0.15828   0.48497   0.00000  Uiso   1.00
C135   C     0.43923   0.14358   0.05341   0.00000  Uiso   1.00
C136   C     0.56767   0.12272   0.02284   0.00000  Uiso   1.00
C137   C     0.50206   0.14052   0.47811   0.00000  Uiso   1.00
C138   C     0.48860   0.14499   0.02583   0.00000  Uiso   1.00
C139   C     0.65163   0.20896   0.47008   0.00000  Uiso   1.00
C140   C     0.61456   0.23302   0.00959   0.00000  Uiso   1.00
C141   C     0.58716   0.26505   0.49167   0.00000  Uiso   1.00
C142   C     0.60976   0.04160   0.04268   0.00000  Uiso   1.00
C143   C     0.64256   0.01020   0.05423   0.00000  Uiso   1.00
C144   C     0.35547   0.00186   0.01304   0.00000  Uiso   1.00
C145   C     0.43797   0.08720   0.10026   0.00000  Uiso   1.00
C146   C     0.54669   0.12018   0.45318   0.00000  Uiso   1.00
C147   C     0.39629   0.05852   0.10266   0.00000  Uiso   1.00
C148   C     0.40776   0.01295   0.11002   0.00000  Uiso   1.00
C149   C     0.53020   0.07017   0.40680   0.00000  Uiso   1.00
C150   C     0.55878   0.03027   0.40770   0.00000  Uiso   1.00
C151   C     0.53244   0.32434   0.40148   0.00000  Uiso   1.00
C152   C     0.40436   0.15227   0.03338   0.00000  Uiso   1.00
C153   C     0.57967   0.11134   0.47579   0.00000  Uiso   1.00
C154   C     0.53965   0.31199   0.21881   0.00000  Uiso   1.00
C155   C     0.46043   0.02101   0.28387   0.00000  Uiso   1.00
C156   C     0.53891   0.02197   0.22072   0.00000  Uiso   1.00
H157   H     0.60640   0.11804   0.11420   0.00000  Uiso   1.00
H158   H     0.34560   0.23220   0.45000   0.00000  Uiso   1.00
H159   H     0.58870   0.21090   0.03251   0.00000  Uiso   1.00
H160   H     0.63316   0.24906   0.03037   0.00000  Uiso   1.00
H161   H     0.61233   0.28752   0.46796   0.00000  Uiso   1.00
H162   H     0.56164   0.28282   0.02131   0.00000  Uiso   1.00
H163   H     0.56646   0.24886   0.47288   0.00000  Uiso   1.00
H164   H     0.60243   0.03052   0.01162   0.00000  Uiso   1.00
H165   H     0.57493   0.04164   0.07267   0.00000  Uiso   1.00
H166   H     0.65104   0.02228   0.08417   0.00000  Uiso   1.00
H167   H     0.62298   0.31367   0.06513   0.00000  Uiso   1.00
H168   H     0.37789   0.17087   0.39589   0.00000  Uiso   1.00
H169   H     0.34713   0.32177   0.48351   0.00000  Uiso   1.00
H170   H     0.37826   0.31242   0.02317   0.00000  Uiso   1.00
H171   H     0.37596   0.03130   0.00179   0.00000  Uiso   1.00
H172   H     0.44797   0.08276   0.13125   0.00000  Uiso   1.00
H173   H     0.47017   0.07673   0.07055   0.00000  Uiso   1.00
H174   H     0.36336   0.06863   0.13132   0.00000  Uiso   1.00
H175   H     0.38947   0.06105   0.06968   0.00000  Uiso   1.00
H176   H     0.43947   0.00170   0.08049   0.00000  Uiso   1.00
H177   H     0.37669   0.32610   0.11255   0.00000  Uiso   1.00
H178   H     0.41528   0.00997   0.14267   0.00000  Uiso   1.00
H179   H     0.56835   0.03954   0.19683   0.00000  Uiso   1.00
H180   H     0.52311   0.07070   0.37378   0.00000  Uiso   1.00
H181   H     0.49433   0.06926   0.43514   0.00000  Uiso   1.00
H182   H     0.59446   0.03141   0.37942   0.00000  Uiso   1.00
H183   H     0.56442   0.02831   0.44135   0.00000  Uiso   1.00
H184   H     0.49698   0.32214   0.42990   0.00000  Uiso   1.00
H185   H     0.55404   0.29605   0.40228   0.00000  Uiso   1.00
H186   H     0.52706   0.32507   0.36764   0.00000  Uiso   1.00
H187   H     0.60183   0.31009   0.16856   0.00000  Uiso   1.00
H188   H     0.43182   0.06845   0.32460   0.00000  Uiso   1.00
H189   H     0.61450   0.11567   0.19232   0.00000  Uiso   1.00
H190   H     0.43102   0.29391   0.30457   0.00000  Uiso   1.00
H191   H     0.33570   0.23540   0.32562   0.00000  Uiso   1.00
H192   H     0.37880   0.07785   0.20480   0.00000  Uiso   1.00
H193   H     0.62000   0.25549   0.29330   0.00000  Uiso   1.00
H194   H     0.35211   0.15398   0.09351   0.00000  Uiso   1.00
H195   H     0.62977   0.09156   0.41883   0.00000  Uiso   1.00
H196   H     0.49106   0.21719   0.12140   0.00000  Uiso   1.00
H197   H     0.53045   0.20741   0.37477   0.00000  Uiso   1.00
H198   H     0.63383   0.19503   0.44725   0.00000  Uiso   1.00
N199   N     0.38093   0.16668   0.25001   0.00000  Uiso   1.00
N200   N     0.61907   0.16666   0.24999   0.00000  Uiso   1.00
O201   O     0.46179   0.22775   0.25000   0.00000  Uiso   1.00
O202   O     0.62431   0.09366   0.45232   0.00000  Uiso   1.00
O203   O     0.48208   0.19664   0.10169   0.00000  Uiso   1.00
O204   O     0.53143   0.18181   0.39253   0.00000  Uiso   1.00
O205   O     0.33819   0.17622   0.48873   0.00000  Uiso   1.00
O206   O     0.63203   0.08150   0.03393   0.00000  Uiso   1.00
O207   O     0.42469   0.13000   0.09898   0.00000  Uiso   1.00
O208   O     0.55727   0.10640   0.40787   0.00000  Uiso   1.00
O209   O     0.57738   0.28998   0.18721   0.00000  Uiso   1.00
O210   O     0.42224   0.04017   0.31792   0.00000  Uiso   1.00
O211   O     0.63868   0.10400   0.20395   0.00000  Uiso   1.00
O212   O     0.53821   0.10558   0.24999   0.00000  Uiso   1.00
O213   O     0.36386   0.22592   0.29888   0.00000  Uiso   1.00
O214   O     0.39668   0.10202   0.21062   0.00000  Uiso   1.00
O215   O     0.60193   0.22951   0.29327   0.00000  Uiso   1.00
O216   O     0.53823   0.22774   0.25000   0.00000  Uiso   1.00
O217   O     0.46177   0.10559   0.25000   0.00000  Uiso   1.00
O218   O     0.43994   0.16667   0.31612   0.00000  Uiso   1.00
O219   O     0.56006   0.16666   0.18387   0.00000  Uiso   1.00
O220   O     0.51639   0.16666   0.31612   0.00000  Uiso   1.00
O221   O     0.48361   0.16667   0.18388   0.00000  Uiso   1.00
O222   O     0.35621   0.15480   0.06025   0.00000  Uiso   1.00
Zn223  Zn    0.44896   0.16667   0.25000   0.00000  Uiso   1.00
Zn224  Zn    0.55104   0.16666   0.25000   0.00000  Uiso   1.00
C225   C     0.83353   0.24652   0.24928   0.00000  Uiso   1.00
C226   C     0.79405   0.31135   0.28087   0.00000  Uiso   1.00
C227   C     0.83292   0.04270   0.25264   0.00000  Uiso   1.00
C228   C     0.83347   0.29069   0.24915   0.00000  Uiso   1.00
C229   C     0.98456   0.13528   0.22819   0.00000  Uiso   1.00
C230   C     0.68224   0.19724   0.27335   0.00000  Uiso   1.00
C231   C     0.69870   0.13468   0.22954   0.00000  Uiso   1.00
C232   C     0.96740   0.19784   0.27238   0.00000  Uiso   1.00
C233   C     0.80361   0.16813   0.33783   0.00000  Uiso   1.00
C234   C     0.86310   0.16553   0.16221   0.00000  Uiso   1.00
C235   C     0.78577   0.16885   0.38848   0.00000  Uiso   1.00
C236   C     0.83302   0.08685   0.25113   0.00000  Uiso   1.00
C237   C     0.88019   0.15610   0.11260   0.00000  Uiso   1.00
C238   C     0.71967   0.16870   0.46263   0.00000  Uiso   1.00
C239   C     0.93015   0.11215   0.04880   0.00000  Uiso   1.00
C240   C     0.73651   0.16880   0.41384   0.00000  Uiso   1.00
C241   C     0.91925   0.12873   0.09349   0.00000  Uiso   1.00
C242   C     0.81830   0.16730   0.41199   0.00000  Uiso   1.00
C243   C     0.85051   0.16570   0.08737   0.00000  Uiso   1.00
C244   C     0.80223   0.15386   0.45777   0.00000  Uiso   1.00
C245   C     0.85759   0.14447   0.04558   0.00000  Uiso   1.00
C246   C     0.75257   0.15828   0.48497   0.00000  Uiso   1.00
C247   C     0.77256   0.14358   0.05341   0.00000  Uiso   1.00
C248   C     0.90100   0.12272   0.02284   0.00000  Uiso   1.00
C249   C     0.83539   0.14052   0.47811   0.00000  Uiso   1.00
C250   C     0.82193   0.14499   0.02583   0.00000  Uiso   1.00
C251   C     0.98497   0.20896   0.47008   0.00000  Uiso   1.00
C252   C     0.94789   0.23302   0.00959   0.00000  Uiso   1.00
C253   C     0.92050   0.26505   0.49167   0.00000  Uiso   1.00
C254   C     0.94310   0.04160   0.04268   0.00000  Uiso   1.00
C255   C     0.97589   0.01020   0.05423   0.00000  Uiso   1.00
C256   C     0.68881   0.00186   0.01304   0.00000  Uiso   1.00
C257   C     0.77131   0.08720   0.10026   0.00000  Uiso   1.00
C258   C     0.88003   0.12018   0.45318   0.00000  Uiso   1.00
C259   C     0.72962   0.05852   0.10266   0.00000  Uiso   1.00
C260   C     0.74110   0.01295   0.11002   0.00000  Uiso   1.00
C261   C     0.86354   0.07017   0.40680   0.00000  Uiso   1.00
C262   C     0.89211   0.03027   0.40770   0.00000  Uiso   1.00
C263   C     0.86578   0.32434   0.40148   0.00000  Uiso   1.00
C264   C     0.73770   0.15227   0.03338   0.00000  Uiso   1.00
C265   C     0.91301   0.11134   0.47579   0.00000  Uiso   1.00
C266   C     0.87298   0.31199   0.21881   0.00000  Uiso   1.00
C267   C     0.79376   0.02101   0.28387   0.00000  Uiso   1.00
C268   C     0.87225   0.02197   0.22072   0.00000  Uiso   1.00
H269   H     0.93973   0.11804   0.11420   0.00000  Uiso   1.00
H270   H     0.67894   0.23220   0.45000   0.00000  Uiso   1.00
H271   H     0.92203   0.21090   0.03251   0.00000  Uiso   1.00
H272   H     0.96649   0.24906   0.03037   0.00000  Uiso   1.00
H273   H     0.94566   0.28752   0.46796   0.00000  Uiso   1.00
H274   H     0.89497   0.28282   0.02131   0.00000  Uiso   1.00
H275   H     0.89979   0.24886   0.47288   0.00000  Uiso   1.00
H276   H     0.93576   0.03052   0.01162   0.00000  Uiso   1.00
H277   H     0.90826   0.04164   0.07267   0.00000  Uiso   1.00
H278   H     0.98437   0.02228   0.08417   0.00000  Uiso   1.00
H279   H     0.95631   0.31367   0.06513   0.00000  Uiso   1.00
H280   H     0.71123   0.17087   0.39589   0.00000  Uiso   1.00
H281   H     0.68046   0.32177   0.48351   0.00000  Uiso   1.00
H282   H     0.71159   0.31242   0.02317   0.00000  Uiso   1.00
H283   H     0.70929   0.03130   0.00179   0.00000  Uiso   1.00
H284   H     0.78130   0.08276   0.13125   0.00000  Uiso   1.00
H285   H     0.80350   0.07673   0.07055   0.00000  Uiso   1.00
H286   H     0.69670   0.06863   0.13132   0.00000  Uiso   1.00
H287   H     0.72280   0.06105   0.06968   0.00000  Uiso   1.00
H288   H     0.77281   0.00170   0.08049   0.00000  Uiso   1.00
H289   H     0.71002   0.32610   0.11255   0.00000  Uiso   1.00
H290   H     0.74861   0.00997   0.14267   0.00000  Uiso   1.00
H291   H     0.90168   0.03954   0.19683   0.00000  Uiso   1.00
H292   H     0.85644   0.07070   0.37378   0.00000  Uiso   1.00
H293   H     0.82766   0.06926   0.43514   0.00000  Uiso   1.00
H294   H     0.92779   0.03141   0.37942   0.00000  Uiso   1.00
H295   H     0.89775   0.02831   0.44135   0.00000  Uiso   1.00
H296   H     0.83031   0.32214   0.42990   0.00000  Uiso   1.00
H297   H     0.88737   0.29605   0.40228   0.00000  Uiso   1.00
H298   H     0.86039   0.32507   0.36764   0.00000  Uiso   1.00
H299   H     0.93516   0.31009   0.16856   0.00000  Uiso   1.00
H300   H     0.76516   0.06845   0.32460   0.00000  Uiso   1.00
H301   H     0.94784   0.11567   0.19232   0.00000  Uiso   1.00
H302   H     0.76436   0.29391   0.30457   0.00000  Uiso   1.00
H303   H     0.66903   0.23540   0.32562   0.00000  Uiso   1.00
H304   H     0.71213   0.07785   0.20480   0.00000  Uiso   1.00
H305   H     0.95333   0.25549   0.29330   0.00000  Uiso   1.00
H306   H     0.68545   0.15398   0.09351   0.00000  Uiso   1.00
H307   H     0.96310   0.09156   0.41883   0.00000  Uiso   1.00
H308   H     0.82439   0.21719   0.12140   0.00000  Uiso   1.00
H309   H     0.86379   0.20741   0.37477   0.00000  Uiso   1.00
H310   H     0.96716   0.19503   0.44725   0.00000  Uiso   1.00
N311   N     0.71426   0.16668   0.25001   0.00000  Uiso   1.00
N312   N     0.95241   0.16666   0.24999   0.00000  Uiso   1.00
O313   O     0.79512   0.22775   0.25000   0.00000  Uiso   1.00
O314   O     0.95764   0.09366   0.45232   0.00000  Uiso   1.00
O315   O     0.81542   0.19664   0.10169   0.00000  Uiso   1.00
O316   O     0.86476   0.18181   0.39253   0.00000  Uiso   1.00
O317   O     0.67152   0.17622   0.48873   0.00000  Uiso   1.00
O318   O     0.96536   0.08150   0.03393   0.00000  Uiso   1.00
O319   O     0.75803   0.13000   0.09898   0.00000  Uiso   1.00
O320   O     0.89061   0.10640   0.40787   0.00000  Uiso   1.00
O321   O     0.91071   0.28998   0.18721   0.00000  Uiso   1.00
O322   O     0.75557   0.04017   0.31792   0.00000  Uiso   1.00
O323   O     0.97202   0.10400   0.20395   0.00000  Uiso   1.00
O324   O     0.87154   0.10558   0.24999   0.00000  Uiso   1.00
O325   O     0.69719   0.22592   0.29888   0.00000  Uiso   1.00
O326   O     0.73001   0.10202   0.21062   0.00000  Uiso   1.00
O327   O     0.93526   0.22951   0.29327   0.00000  Uiso   1.00
O328   O     0.87157   0.22774   0.25000   0.00000  Uiso   1.00
O329   O     0.79510   0.10559   0.25000   0.00000  Uiso   1.00
O330   O     0.77328   0.16667   0.31612   0.00000  Uiso   1.00
O331   O     0.89339   0.16666   0.18387   0.00000  Uiso   1.00
O332   O     0.84972   0.16666   0.31612   0.00000  Uiso   1.00
O333   O     0.81695   0.16667   0.18388   0.00000  Uiso   1.00
O334   O     0.68954   0.15480   0.06025   0.00000  Uiso   1.00
Zn335  Zn    0.78229   0.16667   0.25000   0.00000  Uiso   1.00
Zn336  Zn    0.88438   0.16666   0.25000   0.00000  Uiso   1.00
C337   C     0.16686   0.57985   0.24928   0.00000  Uiso   1.00
C338   C     0.12738   0.64468   0.28087   0.00000  Uiso   1.00
C339   C     0.16625   0.37604   0.25264   0.00000  Uiso   1.00
C340   C     0.16680   0.62402   0.24915   0.00000  Uiso   1.00
C341   C     0.31789   0.46861   0.22819   0.00000  Uiso   1.00
C342   C     0.01557   0.53057   0.27335   0.00000  Uiso   1.00
C343   C     0.03203   0.46801   0.22954   0.00000  Uiso   1.00
C344   C     0.30073   0.53117   0.27238   0.00000  Uiso   1.00
C345   C     0.13694   0.50146   0.33783   0.00000  Uiso   1.00
C346   C     0.19643   0.49886   0.16221   0.00000  Uiso   1.00
C347   C     0.11910   0.50218   0.38848   0.00000  Uiso   1.00
C348   C     0.16635   0.42018   0.25113   0.00000  Uiso   1.00
C349   C     0.21352   0.48943   0.11260   0.00000  Uiso   1.00
C350   C     0.05301   0.50203   0.46263   0.00000  Uiso   1.00
C351   C     0.26349   0.44549   0.04880   0.00000  Uiso   1.00
C352   C     0.06985   0.50213   0.41384   0.00000  Uiso   1.00
C353   C     0.25259   0.46207   0.09349   0.00000  Uiso   1.00
C354   C     0.15163   0.50064   0.41199   0.00000  Uiso   1.00
C355   C     0.18384   0.49903   0.08737   0.00000  Uiso   1.00
C356   C     0.13556   0.48719   0.45777   0.00000  Uiso   1.00
C357   C     0.19092   0.47780   0.04558   0.00000  Uiso   1.00
C358   C     0.08590   0.49161   0.48497   0.00000  Uiso   1.00
C359   C     0.10589   0.47692   0.05341   0.00000  Uiso   1.00
C360   C     0.23434   0.45605   0.02284   0.00000  Uiso   1.00
C361   C     0.16873   0.47385   0.47811   0.00000  Uiso   1.00
C362   C     0.15527   0.47832   0.02583   0.00000  Uiso   1.00
C363   C     0.31830   0.54229   0.47008   0.00000  Uiso   1.00
C364   C     0.28123   0.56636   0.00959   0.00000  Uiso   1.00
C365   C     0.25383   0.59838   0.49167   0.00000  Uiso   1.00
C366   C     0.27643   0.37493   0.04268   0.00000  Uiso   1.00
C367   C     0.30923   0.34353   0.05423   0.00000  Uiso   1.00
C368   C     0.02214   0.33519   0.01304   0.00000  Uiso   1.00
C369   C     0.10464   0.42054   0.10026   0.00000  Uiso   1.00
C370   C     0.21336   0.45352   0.45318   0.00000  Uiso   1.00
C371   C     0.06295   0.39185   0.10266   0.00000  Uiso   1.00
C372   C     0.07443   0.34628   0.11002   0.00000  Uiso   1.00
C373   C     0.19687   0.40350   0.40680   0.00000  Uiso   1.00
C374   C     0.22544   0.36360   0.40770   0.00000  Uiso   1.00
C375   C     0.19911   0.65768   0.40148   0.00000  Uiso   1.00
C376   C     0.07103   0.48560   0.03338   0.00000  Uiso   1.00
C377   C     0.24634   0.44467   0.47579   0.00000  Uiso   1.00
C378   C     0.20632   0.64532   0.21881   0.00000  Uiso   1.00
C379   C     0.12709   0.35434   0.28387   0.00000  Uiso   1.00
C380   C     0.20558   0.35530   0.22072   0.00000  Uiso   1.00
H381   H     0.27306   0.45138   0.11420   0.00000  Uiso   1.00
H382   H     0.01227   0.56553   0.45000   0.00000  Uiso   1.00
H383   H     0.25537   0.54424   0.03251   0.00000  Uiso   1.00
H384   H     0.29982   0.58240   0.03037   0.00000  Uiso   1.00
H385   H     0.27900   0.62085   0.46796   0.00000  Uiso   1.00
H386   H     0.22830   0.61615   0.02131   0.00000  Uiso   1.00
H387   H     0.23313   0.58219   0.47288   0.00000  Uiso   1.00
H388   H     0.26910   0.36385   0.01162   0.00000  Uiso   1.00
H389   H     0.24160   0.37497   0.07267   0.00000  Uiso   1.00
H390   H     0.31770   0.35562   0.08417   0.00000  Uiso   1.00
H391   H     0.28965   0.64701   0.06513   0.00000  Uiso   1.00
H392   H     0.04456   0.50420   0.39589   0.00000  Uiso   1.00
H393   H     0.01380   0.65510   0.48351   0.00000  Uiso   1.00
H394   H     0.04493   0.64575   0.02317   0.00000  Uiso   1.00
H395   H     0.04263   0.36464   0.00179   0.00000  Uiso   1.00
H396   H     0.11463   0.41609   0.13125   0.00000  Uiso   1.00
H397   H     0.13684   0.41007   0.07055   0.00000  Uiso   1.00
H398   H     0.03003   0.40197   0.13132   0.00000  Uiso   1.00
H399   H     0.05614   0.39439   0.06968   0.00000  Uiso   1.00
H400   H     0.10614   0.33503   0.08049   0.00000  Uiso   1.00
H401   H     0.04336   0.65943   0.11255   0.00000  Uiso   1.00
H402   H     0.08194   0.34330   0.14267   0.00000  Uiso   1.00
H403   H     0.23501   0.37288   0.19683   0.00000  Uiso   1.00
H404   H     0.18978   0.40403   0.37378   0.00000  Uiso   1.00
H405   H     0.16100   0.40259   0.43514   0.00000  Uiso   1.00
H406   H     0.26112   0.36475   0.37942   0.00000  Uiso   1.00
H407   H     0.23108   0.36165   0.44135   0.00000  Uiso   1.00
H408   H     0.16365   0.65547   0.42990   0.00000  Uiso   1.00
H409   H     0.22071   0.62939   0.40228   0.00000  Uiso   1.00
H410   H     0.19373   0.65840   0.36764   0.00000  Uiso   1.00
H411   H     0.26850   0.64342   0.16856   0.00000  Uiso   1.00
H412   H     0.09849   0.40179   0.32460   0.00000  Uiso   1.00
H413   H     0.28117   0.44900   0.19232   0.00000  Uiso   1.00
H414   H     0.09769   0.62725   0.30457   0.00000  Uiso   1.00
H415   H     0.00236   0.56873   0.32562   0.00000  Uiso   1.00
H416   H     0.04546   0.41119   0.20480   0.00000  Uiso   1.00
H417   H     0.28667   0.58882   0.29330   0.00000  Uiso   1.00
H418   H     0.01878   0.48731   0.09351   0.00000  Uiso   1.00
H419   H     0.29643   0.42489   0.41883   0.00000  Uiso   1.00
H420   H     0.15772   0.55052   0.12140   0.00000  Uiso   1.00
H421   H     0.19712   0.54074   0.37477   0.00000  Uiso   1.00
H422   H     0.30049   0.52836   0.44725   0.00000  Uiso   1.00
N423   N     0.04759   0.50001   0.25001   0.00000  Uiso   1.00
N424   N     0.28574   0.49999   0.24999   0.00000  Uiso   1.00
O425   O     0.12846   0.56108   0.25000   0.00000  Uiso   1.00
O426   O     0.29098   0.42699   0.45232   0.00000  Uiso   1.00
O427   O     0.14875   0.52997   0.10169   0.00000  Uiso   1.00
O428   O     0.19810   0.51514   0.39253   0.00000  Uiso   1.00
O429   O     0.00485   0.50956   0.48873   0.00000  Uiso   1.00
O430   O     0.29869   0.41483   0.03393   0.00000  Uiso   1.00
O431   O     0.09136   0.46333   0.09898   0.00000  Uiso   1.00
O432   O     0.22394   0.43973   0.40787   0.00000  Uiso   1.00
O433   O     0.24404   0.62332   0.18721   0.00000  Uiso   1.00
O434   O     0.08890   0.37350   0.31792   0.00000  Uiso   1.00
O435   O     0.30535   0.43734   0.20395   0.00000  Uiso   1.00
O436   O     0.20488   0.43892   0.24999   0.00000  Uiso   1.00
O437   O     0.03053   0.55925   0.29888   0.00000  Uiso   1.00
O438   O     0.06334   0.43535   0.21062   0.00000  Uiso   1.00
O439   O     0.26859   0.56284   0.29327   0.00000  Uiso   1.00
O440   O     0.20490   0.56107   0.25000   0.00000  Uiso   1.00
O441   O     0.12843   0.43893   0.25000   0.00000  Uiso   1.00
O442   O     0.10661   0.50001   0.31612   0.00000  Uiso   1.00
O443   O     0.22672   0.49999   0.18387   0.00000  Uiso   1.00
O444   O     0.18305   0.50000   0.31612   0.00000  Uiso   1.00
O445   O     0.15028   0.50000   0.18388   0.00000  Uiso   1.00
O446   O     0.02288   0.48814   0.06025   0.00000  Uiso   1.00
Zn447  Zn    0.11562   0.50001   0.25000   0.00000  Uiso   1.00
Zn448  Zn    0.21771   0.49999   0.25000   0.00000  Uiso   1.00
C449   C     0.50020   0.57985   0.24928   0.00000  Uiso   1.00
C450   C     0.46071   0.64468   0.28087   0.00000  Uiso   1.00
C451   C     0.49959   0.37604   0.25264   0.00000  Uiso   1.00
C452   C     0.50014   0.62402   0.24915   0.00000  Uiso   1.00
C453   C     0.65122   0.46861   0.22819   0.00000  Uiso   1.00
C454   C     0.34891   0.53057   0.27335   0.00000  Uiso   1.00
C455   C     0.36536   0.46801   0.22954   0.00000  Uiso   1.00
C456   C     0.63406   0.53117   0.27238   0.00000  Uiso   1.00
C457   C     0.47028   0.50146   0.33783   0.00000  Uiso   1.00
C458   C     0.52977   0.49886   0.16221   0.00000  Uiso   1.00
C459   C     0.45243   0.50218   0.38848   0.00000  Uiso   1.00
C460   C     0.49969   0.42018   0.25113   0.00000  Uiso   1.00
C461   C     0.54685   0.48943   0.11260   0.00000  Uiso   1.00
C462   C     0.38634   0.50203   0.46263   0.00000  Uiso   1.00
C463   C     0.59682   0.44549   0.04880   0.00000  Uiso   1.00
C464   C     0.40318   0.50213   0.41384   0.00000  Uiso   1.00
C465   C     0.58592   0.46207   0.09349   0.00000  Uiso   1.00
C466   C     0.48496   0.50064   0.41199   0.00000  Uiso   1.00
C467   C     0.51717   0.49903   0.08737   0.00000  Uiso   1.00
C468   C     0.46889   0.48719   0.45777   0.00000  Uiso   1.00
C469   C     0.52425   0.47780   0.04558   0.00000  Uiso   1.00
C470   C     0.41923   0.49161   0.48497   0.00000  Uiso   1.00
C471   C     0.43923   0.47692   0.05341   0.00000  Uiso   1.00
C472   C     0.56767   0.45605   0.02284   0.00000  Uiso   1.00
C473   C     0.50206   0.47385   0.47811   0.00000  Uiso   1.00
C474   C     0.48860   0.47832   0.02583   0.00000  Uiso   1.00
C475   C     0.65163   0.54229   0.47008   0.00000  Uiso   1.00
C476   C     0.61456   0.56636   0.00959   0.00000  Uiso   1.00
C477   C     0.58716   0.59838   0.49167   0.00000  Uiso   1.00
C478   C     0.60976   0.37493   0.04268   0.00000  Uiso   1.00
C479   C     0.64256   0.34353   0.05423   0.00000  Uiso   1.00
C480   C     0.35547   0.33519   0.01304   0.00000  Uiso   1.00
C481   C     0.43797   0.42054   0.10026   0.00000  Uiso   1.00
C482   C     0.54669   0.45352   0.45318   0.00000  Uiso   1.00
C483   C     0.39629   0.39185   0.10266   0.00000  Uiso   1.00
C484   C     0.40776   0.34628   0.11002   0.00000  Uiso   1.00
C485   C     0.53020   0.40350   0.40680   0.00000  Uiso   1.00
C486   C     0.55878   0.36360   0.40770   0.00000  Uiso   1.00
C487   C     0.53244   0.65768   0.40148   0.00000  Uiso   1.00
C488   C     0.40436   0.48560   0.03338   0.00000  Uiso   1.00
C489   C     0.57967   0.44467   0.47579   0.00000  Uiso   1.00
C490   C     0.53965   0.64532   0.21881   0.00000  Uiso   1.00
C491   C     0.46043   0.35434   0.28387   0.00000  Uiso   1.00
C492   C     0.53891   0.35530   0.22072   0.00000  Uiso   1.00
H493   H     0.60640   0.45138   0.11420   0.00000  Uiso   1.00
H494   H     0.34560   0.56553   0.45000   0.00000  Uiso   1.00
H495   H     0.58870   0.54424   0.03251   0.00000  Uiso   1.00
H496   H     0.63316   0.58240   0.03037   0.00000  Uiso   1.00
H497   H     0.61233   0.62085   0.46796   0.00000  Uiso   1.00
H498   H     0.56164   0.61615   0.02131   0.00000  Uiso   1.00
H499   H     0.56646   0.58219   0.47288   0.00000  Uiso   1.00
H500   H     0.60243   0.36385   0.01162   0.00000  Uiso   1.00
H501   H     0.57493   0.37497   0.07267   0.00000  Uiso   1.00
H502   H     0.65104   0.35562   0.08417   0.00000  Uiso   1.00
H503   H     0.62298   0.64701   0.06513   0.00000  Uiso   1.00
H504   H     0.37789   0.50420   0.39589   0.00000  Uiso   1.00
H505   H     0.34713   0.65510   0.48351   0.00000  Uiso   1.00
H506   H     0.37826   0.64575   0.02317   0.00000  Uiso   1.00
H507   H     0.37596   0.36464   0.00179   0.00000  Uiso   1.00
H508   H     0.44797   0.41609   0.13125   0.00000  Uiso   1.00
H509   H     0.47017   0.41007   0.07055   0.00000  Uiso   1.00
H510   H     0.36336   0.40197   0.13132   0.00000  Uiso   1.00
H511   H     0.38947   0.39439   0.06968   0.00000  Uiso   1.00
H512   H     0.43947   0.33503   0.08049   0.00000  Uiso   1.00
H513   H     0.37669   0.65943   0.11255   0.00000  Uiso   1.00
H514   H     0.41528   0.34330   0.14267   0.00000  Uiso   1.00
H515   H     0.56835   0.37288   0.19683   0.00000  Uiso   1.00
H516   H     0.52311   0.40403   0.37378   0.00000  Uiso   1.00
H517   H     0.49433   0.40259   0.43514   0.00000  Uiso   1.00
H518   H     0.59446   0.36475   0.37942   0.00000  Uiso   1.00
H519   H     0.56442   0.36165   0.44135   0.00000  Uiso   1.00
H520   H     0.49698   0.65547   0.42990   0.00000  Uiso   1.00
H521   H     0.55404   0.62939   0.40228   0.00000  Uiso   1.00
H522   H     0.52706   0.65840   0.36764   0.00000  Uiso   1.00
H523   H     0.60183   0.64342   0.16856   0.00000  Uiso   1.00
H524   H     0.43182   0.40179   0.32460   0.00000  Uiso   1.00
H525   H     0.61450   0.44900   0.19232   0.00000  Uiso   1.00
H526   H     0.43102   0.62725   0.30457   0.00000  Uiso   1.00
H527   H     0.33570   0.56873   0.32562   0.00000  Uiso   1.00
H528   H     0.37880   0.41119   0.20480   0.00000  Uiso   1.00
H529   H     0.62000   0.58882   0.29330   0.00000  Uiso   1.00
H530   H     0.35211   0.48731   0.09351   0.00000  Uiso   1.00
H531   H     0.62977   0.42489   0.41883   0.00000  Uiso   1.00
H532   H     0.49106   0.55052   0.12140   0.00000  Uiso   1.00
H533   H     0.53045   0.54074   0.37477   0.00000  Uiso   1.00
H534   H     0.63383   0.52836   0.44725   0.00000  Uiso   1.00
N535   N     0.38093   0.50001   0.25001   0.00000  Uiso   1.00
N536   N     0.61907   0.49999   0.24999   0.00000  Uiso   1.00
O537   O     0.46179   0.56108   0.25000   0.00000  Uiso   1.00
O538   O     0.62431   0.42699   0.45232   0.00000  Uiso   1.00
O539   O     0.48208   0.52997   0.10169   0.00000  Uiso   1.00
O540   O     0.53143   0.51514   0.39253   0.00000  Uiso   1.00
O541   O     0.33819   0.50956   0.48873   0.00000  Uiso   1.00
O542   O     0.63203   0.41483   0.03393   0.00000  Uiso   1.00
O543   O     0.42469   0.46333   0.09898   0.00000  Uiso   1.00
O544   O     0.55727   0.43973   0.40787   0.00000  Uiso   1.00
O545   O     0.57738   0.62332   0.18721   0.00000  Uiso   1.00
O546   O     0.42224   0.37350   0.31792   0.00000  Uiso   1.00
O547   O     0.63868   0.43734   0.20395   0.00000  Uiso   1.00
O548   O     0.53821   0.43892   0.24999   0.00000  Uiso   1.00
O549   O     0.36386   0.55925   0.29888   0.00000  Uiso   1.00
O550   O     0.39668   0.43535   0.21062   0.00000  Uiso   1.00
O551   O     0.60193   0.56284   0.29327   0.00000  Uiso   1.00
O552   O     0.53823   0.56107   0.25000   0.00000  Uiso   1.00
O553   O     0.46177   0.43893   0.25000   0.00000  Uiso   1.00
O554   O     0.43994   0.50001   0.31612   0.00000  Uiso   1.00
O555   O     0.56006   0.49999   0.18387   0.00000  Uiso   1.00
O556   O     0.51639   0.50000   0.31612   0.00000  Uiso   1.00
O557   O     0.48361   0.50000   0.18388   0.00000  Uiso   1.00
O558   O     0.35621   0.48814   0.06025   0.00000  Uiso   1.00
Zn559  Zn    0.44896   0.50001   0.25000   0.00000  Uiso   1.00
Zn560  Zn    0.55104   0.49999   0.25000   0.00000  Uiso   1.00
C561   C     0.83353   0.57985   0.24928   0.00000  Uiso   1.00
C562   C     0.79405   0.64468   0.28087   0.00000  Uiso   1.00
C563   C     0.83292   0.37604   0.25264   0.00000  Uiso   1.00
C564   C     0.83347   0.62402   0.24915   0.00000  Uiso   1.00
C565   C     0.98456   0.46861   0.22819   0.00000  Uiso   1.00
C566   C     0.68224   0.53057   0.27335   0.00000  Uiso   1.00
C567   C     0.69870   0.46801   0.22954   0.00000  Uiso   1.00
C568   C     0.96740   0.53117   0.27238   0.00000  Uiso   1.00
C569   C     0.80361   0.50146   0.33783   0.00000  Uiso   1.00
C570   C     0.86310   0.49886   0.16221   0.00000  Uiso   1.00
C571   C     0.78577   0.50218   0.38848   0.00000  Uiso   1.00
C572   C     0.83302   0.42018   0.25113   0.00000  Uiso   1.00
C573   C     0.88019   0.48943   0.11260   0.00000  Uiso   1.00
C574   C     0.71967   0.50203   0.46263   0.00000  Uiso   1.00
C575   C     0.93015   0.44549   0.04880   0.00000  Uiso   1.00
C576   C     0.73651   0.50213   0.41384   0.00000  Uiso   1.00
C577   C     0.91925   0.46207   0.09349   0.00000  Uiso   1.00
C578   C     0.81830   0.50064   0.41199   0.00000  Uiso   1.00
C579   C     0.85051   0.49903   0.08737   0.00000  Uiso   1.00
C580   C     0.80223   0.48719   0.45777   0.00000  Uiso   1.00
C581   C     0.85759   0.47780   0.04558   0.00000  Uiso   1.00
C582   C     0.75257   0.49161   0.48497   0.00000  Uiso   1.00
C583   C     0.77256   0.47692   0.05341   0.00000  Uiso   1.00
C584   C     0.90100   0.45605   0.02284   0.00000  Uiso   1.00
C585   C     0.83539   0.47385   0.47811   0.00000  Uiso   1.00
C586   C     0.82193   0.47832   0.02583   0.00000  Uiso   1.00
C587   C     0.98497   0.54229   0.47008   0.00000  Uiso   1.00
C588   C     0.94789   0.56636   0.00959   0.00000  Uiso   1.00
C589   C     0.92050   0.59838   0.49167   0.00000  Uiso   1.00
C590   C     0.94310   0.37493   0.04268   0.00000  Uiso   1.00
C591   C     0.97589   0.34353   0.05423   0.00000  Uiso   1.00
C592   C     0.68881   0.33519   0.01304   0.00000  Uiso   1.00
C593   C     0.77131   0.42054   0.10026   0.00000  Uiso   1.00
C594   C     0.88003   0.45352   0.45318   0.00000  Uiso   1.00
C595   C     0.72962   0.39185   0.10266   0.00000  Uiso   1.00
C596   C     0.74110   0.34628   0.11002   0.00000  Uiso   1.00
C597   C     0.86354   0.40350   0.40680   0.00000  Uiso   1.00
C598   C     0.89211   0.36360   0.40770   0.00000  Uiso   1.00
C599   C     0.86578   0.65768   0.40148   0.00000  Uiso   1.00
C600   C     0.73770   0.48560   0.03338   0.00000  Uiso   1.00
C601   C     0.91301   0.44467   0.47579   0.00000  Uiso   1.00
C602   C     0.87298   0.64532   0.21881   0.00000  Uiso   1.00
C603   C     0.79376   0.35434   0.28387   0.00000  Uiso   1.00
C604   C     0.87225   0.35530   0.22072   0.00000  Uiso   1.00
H605   H     0.93973   0.45138   0.11420   0.00000  Uiso   1.00
H606   H     0.67894   0.56553   0.45000   0.00000  Uiso   1.00
H607   H     0.92203   0.54424   0.03251   0.00000  Uiso   1.00
H608   H     0.96649   0.58240   0.03037   0.00000  Uiso   1.00
H609   H     0.94566   0.62085   0.46796   0.00000  Uiso   1.00
H610   H     0.89497   0.61615   0.02131   0.00000  Uiso   1.00
H611   H     0.89979   0.58219   0.47288   0.00000  Uiso   1.00
H612   H     0.93576   0.36385   0.01162   0.00000  Uiso   1.00
H613   H     0.90826   0.37497   0.07267   0.00000  Uiso   1.00
H614   H     0.98437   0.35562   0.08417   0.00000  Uiso   1.00
H615   H     0.95631   0.64701   0.06513   0.00000  Uiso   1.00
H616   H     0.71123   0.50420   0.39589   0.00000  Uiso   1.00
H617   H     0.68046   0.65510   0.48351   0.00000  Uiso   1.00
H618   H     0.71159   0.64575   0.02317   0.00000  Uiso   1.00
H619   H     0.70929   0.36464   0.00179   0.00000  Uiso   1.00
H620   H     0.78130   0.41609   0.13125   0.00000  Uiso   1.00
H621   H     0.80350   0.41007   0.07055   0.00000  Uiso   1.00
H622   H     0.69670   0.40197   0.13132   0.00000  Uiso   1.00
H623   H     0.72280   0.39439   0.06968   0.00000  Uiso   1.00
H624   H     0.77281   0.33503   0.08049   0.00000  Uiso   1.00
H625   H     0.71002   0.65943   0.11255   0.00000  Uiso   1.00
H626   H     0.74861   0.34330   0.14267   0.00000  Uiso   1.00
H627   H     0.90168   0.37288   0.19683   0.00000  Uiso   1.00
H628   H     0.85644   0.40403   0.37378   0.00000  Uiso   1.00
H629   H     0.82766   0.40259   0.43514   0.00000  Uiso   1.00
H630   H     0.92779   0.36475   0.37942   0.00000  Uiso   1.00
H631   H     0.89775   0.36165   0.44135   0.00000  Uiso   1.00
H632   H     0.83031   0.65547   0.42990   0.00000  Uiso   1.00
H633   H     0.88737   0.62939   0.40228   0.00000  Uiso   1.00
H634   H     0.86039   0.65840   0.36764   0.00000  Uiso   1.00
H635   H     0.93516   0.64342   0.16856   0.00000  Uiso   1.00
H636   H     0.76516   0.40179   0.32460   0.00000  Uiso   1.00
H637   H     0.94784   0.44900   0.19232   0.00000  Uiso   1.00
H638   H     0.76436   0.62725   0.30457   0.00000  Uiso   1.00
H639   H     0.66903   0.56873   0.32562   0.00000  Uiso   1.00
H640   H     0.71213   0.41119   0.20480   0.00000  Uiso   1.00
H641   H     0.95333   0.58882   0.29330   0.00000  Uiso   1.00
H642   H     0.68545   0.48731   0.09351   0.00000  Uiso   1.00
H643   H     0.96310   0.42489   0.41883   0.00000  Uiso   1.00
H644   H     0.82439   0.55052   0.12140   0.00000  Uiso   1.00
H645   H     0.86379   0.54074   0.37477   0.00000  Uiso   1.00
H646   H     0.96716   0.52836   0.44725   0.00000  Uiso   1.00
N647   N     0.71426   0.50001   0.25001   0.00000  Uiso   1.00
N648   N     0.95241   0.49999   0.24999   0.00000  Uiso   1.00
O649   O     0.79512   0.56108   0.25000   0.00000  Uiso   1.00
O650   O     0.95764   0.42699   0.45232   0.00000  Uiso   1.00
O651   O     0.81542   0.52997   0.10169   0.00000  Uiso   1.00
O652   O     0.86476   0.51514   0.39253   0.00000  Uiso   1.00
O653   O     0.67152   0.50956   0.48873   0.00000  Uiso   1.00
O654   O     0.96536   0.41483   0.03393   0.00000  Uiso   1.00
O655   O     0.75803   0.46333   0.09898   0.00000  Uiso   1.00
O656   O     0.89061   0.43973   0.40787   0.00000  Uiso   1.00
O657   O     0.91071   0.62332   0.18721   0.00000  Uiso   1.00
O658   O     0.75557   0.37350   0.31792   0.00000  Uiso   1.00
O659   O     0.97202   0.43734   0.20395   0.00000  Uiso   1.00
O660   O     0.87154   0.43892   0.24999   0.00000  Uiso   1.00
O661   O     0.69719   0.55925   0.29888   0.00000  Uiso   1.00
O662   O     0.73001   0.43535   0.21062   0.00000  Uiso   1.00
O663   O     0.93526   0.56284   0.29327   0.00000  Uiso   1.00
O664   O     0.87157   0.56107   0.25000   0.00000  Uiso   1.00
O665   O     0.79510   0.43893   0.25000   0.00000  Uiso   1.00
O666   O     0.77328   0.50001   0.31612   0.00000  Uiso   1.00
O667   O     0.89339   0.49999   0.18387   0.00000  Uiso   1.00
O668   O     0.84972   0.50000   0.31612   0.00000  Uiso   1.00
O669   O     0.81695   0.50000   0.18388   0.00000  Uiso   1.00
O670   O     0.68954   0.48814   0.06025   0.00000  Uiso   1.00
Zn671  Zn    0.78229   0.50001   0.25000   0.00000  Uiso   1.00
Zn672  Zn    0.88438   0.49999   0.25000   0.00000  Uiso   1.00
C673   C     0.16686   0.91318   0.24928   0.00000  Uiso   1.00
C674   C     0.12738   0.97802   0.28087   0.00000  Uiso   1.00
C675   C     0.16625   0.70937   0.25264   0.00000  Uiso   1.00
C676   C     0.16680   0.95735   0.24915   0.00000  Uiso   1.00
C677   C     0.31789   0.80195   0.22819   0.00000  Uiso   1.00
C678   C     0.01557   0.86391   0.27335   0.00000  Uiso   1.00
C679   C     0.03203   0.80134   0.22954   0.00000  Uiso   1.00
C680   C     0.30073   0.86450   0.27238   0.00000  Uiso   1.00
C681   C     0.13694   0.83480   0.33783   0.00000  Uiso   1.00
C682   C     0.19643   0.83220   0.16221   0.00000  Uiso   1.00
C683   C     0.11910   0.83552   0.38848   0.00000  Uiso   1.00
C684   C     0.16635   0.75352   0.25113   0.00000  Uiso   1.00
C685   C     0.21352   0.82277   0.11260   0.00000  Uiso   1.00
C686   C     0.05301   0.83537   0.46263   0.00000  Uiso   1.00
C687   C     0.26349   0.77882   0.04880   0.00000  Uiso   1.00
C688   C     0.06985   0.83547   0.41384   0.00000  Uiso   1.00
C689   C     0.25259   0.79540   0.09349   0.00000  Uiso   1.00
C690   C     0.15163   0.83397   0.41199   0.00000  Uiso   1.00
C691   C     0.18384   0.83237   0.08737   0.00000  Uiso   1.00
C692   C     0.13556   0.82053   0.45777   0.00000  Uiso   1.00
C693   C     0.19092   0.81113   0.04558   0.00000  Uiso   1.00
C694   C     0.08590   0.82495   0.48497   0.00000  Uiso   1.00
C695   C     0.10589   0.81025   0.05341   0.00000  Uiso   1.00
C696   C     0.23434   0.78939   0.02284   0.00000  Uiso   1.00
C697   C     0.16873   0.80719   0.47811   0.00000  Uiso   1.00
C698   C     0.15527   0.81165   0.02583   0.00000  Uiso   1.00
C699   C     0.31830   0.87563   0.47008   0.00000  Uiso   1.00
C700   C     0.28123   0.89969   0.00959   0.00000  Uiso   1.00
C701   C     0.25383   0.93171   0.49167   0.00000  Uiso   1.00
C702   C     0.27643   0.70826   0.04268   0.00000  Uiso   1.00
C703   C     0.30923   0.67686   0.05423   0.00000  Uiso   1.00
C704   C     0.02214   0.66852   0.01304   0.00000  Uiso   1.00
C705   C     0.10464   0.75387   0.10026   0.00000  Uiso   1.00
C706   C     0.21336   0.78685   0.45318   0.00000  Uiso   1.00
C707   C     0.06295   0.72519   0.10266   0.00000  Uiso   1.00
C708   C     0.07443   0.67961   0.11002   0.00000  Uiso   1.00
C709   C     0.19687   0.73683   0.40680   0.00000  Uiso   1.00
C710   C     0.22544   0.69694   0.40770   0.00000  Uiso   1.00
C711   C     0.19911   0.99101   0.40148   0.00000  Uiso   1.00
C712   C     0.07103   0.81893   0.03338   0.00000  Uiso   1.00
C713   C     0.24634   0.77801   0.47579   0.00000  Uiso   1.00
C714   C     0.20632   0.97865   0.21881   0.00000  Uiso   1.00
C715   C     0.12709   0.68767   0.28387   0.00000  Uiso   1.00
C716   C     0.20558   0.68863   0.22072   0.00000  Uiso   1.00
H717   H     0.27306   0.78471   0.11420   0.00000  Uiso   1.00
H718   H     0.01227   0.89886   0.45000   0.00000  Uiso   1.00
H719   H     0.25537   0.87757   0.03251   0.00000  Uiso   1.00
H720   H     0.29982   0.91573   0.03037   0.00000  Uiso   1.00
H721   H     0.27900   0.95418   0.46796   0.00000  Uiso   1.00
H722   H     0.22830   0.94949   0.02131   0.00000  Uiso   1.00
H723   H     0.23313   0.91552   0.47288   0.00000  Uiso   1.00
H724   H     0.26910   0.69719   0.01162   0.00000  Uiso   1.00
H725   H     0.24160   0.70830   0.07267   0.00000  Uiso   1.00
H726   H     0.31770   0.68895   0.08417   0.00000  Uiso   1.00
H727   H     0.28965   0.98034   0.06513   0.00000  Uiso   1.00
H728   H     0.04456   0.83753   0.39589   0.00000  Uiso   1.00
H729   H     0.01380   0.98843   0.48351   0.00000  Uiso   1.00
H730   H     0.04493   0.97909   0.02317   0.00000  Uiso   1.00
H731   H     0.04263   0.69797   0.00179   0.00000  Uiso   1.00
H732   H     0.11463   0.74943   0.13125   0.00000  Uiso   1.00
H733   H     0.13684   0.74340   0.07055   0.00000  Uiso   1.00
H734   H     0.03003   0.73530   0.13132   0.00000  Uiso   1.00
H735   H     0.05614   0.72772   0.06968   0.00000  Uiso   1.00
H736   H     0.10614   0.66836   0.08049   0.00000  Uiso   1.00
H737   H     0.04336   0.99277   0.11255   0.00000  Uiso   1.00
H738   H     0.08194   0.67664   0.14267   0.00000  Uiso   1.00
H739   H     0.23501   0.70621   0.19683   0.00000  Uiso   1.00
H740   H     0.18978   0.73737   0.37378   0.00000  Uiso   1.00
H741   H     0.16100   0.73593   0.43514   0.00000  Uiso   1.00
H742   H     0.26112   0.69808   0.37942   0.00000  Uiso   1.00
H743   H     0.23108   0.69498   0.44135   0.00000  Uiso   1.00
H744   H     0.16365   0.98880   0.42990   0.00000  Uiso   1.00
H745   H     0.22071   0.96272   0.40228   0.00000  Uiso   1.00
H746   H     0.19373   0.99173   0.36764   0.00000  Uiso   1.00
H747   H     0.26850   0.97676   0.16856   0.00000  Uiso   1.00
H748   H     0.09849   0.73512   0.32460   0.00000  Uiso   1.00
H749   H     0.28117   0.78234   0.19232   0.00000  Uiso   1.00
H750   H     0.09769   0.96058   0.30457   0.00000  Uiso   1.00
H751   H     0.00236   0.90206   0.32562   0.00000  Uiso   1.00
H752   H     0.04546   0.74452   0.20480   0.00000  Uiso   1.00
H753   H     0.28667   0.92215   0.29330   0.00000  Uiso   1.00
H754   H     0.01878   0.82065   0.09351   0.00000  Uiso   1.00
H755   H     0.29643   0.75822   0.41883   0.00000  Uiso   1.00
H756   H     0.15772   0.88385   0.12140   0.00000  Uiso   1.00
H757   H     0.19712   0.87408   0.37477   0.00000  Uiso   1.00
H758   H     0.30049   0.86169   0.44725   0.00000  Uiso   1.00
N759   N     0.04759   0.83334   0.25001   0.00000  Uiso   1.00
N760   N     0.28574   0.83332   0.24999   0.00000  Uiso   1.00
O761   O     0.12846   0.89442   0.25000   0.00000  Uiso   1.00
O762   O     0.29098   0.76033   0.45232   0.00000  Uiso   1.00
O763   O     0.14875   0.86331   0.10169   0.00000  Uiso   1.00
O764   O     0.19810   0.84847   0.39253   0.00000  Uiso   1.00
O765   O     0.00485   0.84289   0.48873   0.00000  Uiso   1.00
O766   O     0.29869   0.74816   0.03393   0.00000  Uiso   1.00
O767   O     0.09136   0.79666   0.09898   0.00000  Uiso   1.00
O768   O     0.22394   0.77306   0.40787   0.00000  Uiso   1.00
O769   O     0.24404   0.95665   0.18721   0.00000  Uiso   1.00
O770   O     0.08890   0.70683   0.31792   0.00000  Uiso   1.00
O771   O     0.30535   0.77067   0.20395   0.00000  Uiso   1.00
O772   O     0.20488   0.77225   0.24999   0.00000  Uiso   1.00
O773   O     0.03053   0.89259   0.29888   0.00000  Uiso   1.00
O774   O     0.06334   0.76868   0.21062   0.00000  Uiso   1.00
O775   O     0.26859   0.89618   0.29327   0.00000  Uiso   1.00
O776   O     0.20490   0.89441   0.25000   0.00000  Uiso   1.00
O777   O     0.12843   0.77226   0.25000   0.00000  Uiso   1.00
O778   O     0.10661   0.83334   0.31612   0.00000  Uiso   1.00
O779   O     0.22672   0.83333   0.18387   0.00000  Uiso   1.00
O780   O     0.18305   0.83333   0.31612   0.00000  Uiso   1.00
O781   O     0.15028   0.83334   0.18388   0.00000  Uiso   1.00
O782   O     0.02288   0.82147   0.06025   0.00000  Uiso   1.00
Zn783  Zn    0.11562   0.83334   0.25000   0.00000  Uiso   1.00
Zn784  Zn    0.21771   0.83333   0.25000   0.00000  Uiso   1.00
C785   C     0.50020   0.91318   0.24928   0.00000  Uiso   1.00
C786   C     0.46071   0.97802   0.28087   0.00000  Uiso   1.00
C787   C     0.49959   0.70937   0.25264   0.00000  Uiso   1.00
C788   C     0.50014   0.95735   0.24915   0.00000  Uiso   1.00
C789   C     0.65122   0.80195   0.22819   0.00000  Uiso   1.00
C790   C     0.34891   0.86391   0.27335   0.00000  Uiso   1.00
C791   C     0.36536   0.80134   0.22954   0.00000  Uiso   1.00
C792   C     0.63406   0.86450   0.27238   0.00000  Uiso   1.00
C793   C     0.47028   0.83480   0.33783   0.00000  Uiso   1.00
C794   C     0.52977   0.83220   0.16221   0.00000  Uiso   1.00
C795   C     0.45243   0.83552   0.38848   0.00000  Uiso   1.00
C796   C     0.49969   0.75352   0.25113   0.00000  Uiso   1.00
C797   C     0.54685   0.82277   0.11260   0.00000  Uiso   1.00
C798   C     0.38634   0.83537   0.46263   0.00000  Uiso   1.00
C799   C     0.59682   0.77882   0.04880   0.00000  Uiso   1.00
C800   C     0.40318   0.83547   0.41384   0.00000  Uiso   1.00
C801   C     0.58592   0.79540   0.09349   0.00000  Uiso   1.00
C802   C     0.48496   0.83397   0.41199   0.00000  Uiso   1.00
C803   C     0.51717   0.83237   0.08737   0.00000  Uiso   1.00
C804   C     0.46889   0.82053   0.45777   0.00000  Uiso   1.00
C805   C     0.52425   0.81113   0.04558   0.00000  Uiso   1.00
C806   C     0.41923   0.82495   0.48497   0.00000  Uiso   1.00
C807   C     0.43923   0.81025   0.05341   0.00000  Uiso   1.00
C808   C     0.56767   0.78939   0.02284   0.00000  Uiso   1.00
C809   C     0.50206   0.80719   0.47811   0.00000  Uiso   1.00
C810   C     0.48860   0.81165   0.02583   0.00000  Uiso   1.00
C811   C     0.65163   0.87563   0.47008   0.00000  Uiso   1.00
C812   C     0.61456   0.89969   0.00959   0.00000  Uiso   1.00
C813   C     0.58716   0.93171   0.49167   0.00000  Uiso   1.00
C814   C     0.60976   0.70826   0.04268   0.00000  Uiso   1.00
C815   C     0.64256   0.67686   0.05423   0.00000  Uiso   1.00
C816   C     0.35547   0.66852   0.01304   0.00000  Uiso   1.00
C817   C     0.43797   0.75387   0.10026   0.00000  Uiso   1.00
C818   C     0.54669   0.78685   0.45318   0.00000  Uiso   1.00
C819   C     0.39629   0.72519   0.10266   0.00000  Uiso   1.00
C820   C     0.40776   0.67961   0.11002   0.00000  Uiso   1.00
C821   C     0.53020   0.73683   0.40680   0.00000  Uiso   1.00
C822   C     0.55878   0.69694   0.40770   0.00000  Uiso   1.00
C823   C     0.53244   0.99101   0.40148   0.00000  Uiso   1.00
C824   C     0.40436   0.81893   0.03338   0.00000  Uiso   1.00
C825   C     0.57967   0.77801   0.47579   0.00000  Uiso   1.00
C826   C     0.53965   0.97865   0.21881   0.00000  Uiso   1.00
C827   C     0.46043   0.68767   0.28387   0.00000  Uiso   1.00
C828   C     0.53891   0.68863   0.22072   0.00000  Uiso   1.00
H829   H     0.60640   0.78471   0.11420   0.00000  Uiso   1.00
H830   H     0.34560   0.89886   0.45000   0.00000  Uiso   1.00
H831   H     0.58870   0.87757   0.03251   0.00000  Uiso   1.00
H832   H     0.63316   0.91573   0.03037   0.00000  Uiso   1.00
H833   H     0.61233   0.95418   0.46796   0.00000  Uiso   1.00
H834   H     0.56164   0.94949   0.02131   0.00000  Uiso   1.00
H835   H     0.56646   0.91552   0.47288   0.00000  Uiso   1.00
H836   H     0.60243   0.69719   0.01162   0.00000  Uiso   1.00
H837   H     0.57493   0.70830   0.07267   0.00000  Uiso   1.00
H838   H     0.65104   0.68895   0.08417   0.00000  Uiso   1.00
H839   H     0.62298   0.98034   0.06513   0.00000  Uiso   1.00
H840   H     0.37789   0.83753   0.39589   0.00000  Uiso   1.00
H841   H     0.34713   0.98843   0.48351   0.00000  Uiso   1.00
H842   H     0.37826   0.97909   0.02317   0.00000  Uiso   1.00
H843   H     0.37596   0.69797   0.00179   0.00000  Uiso   1.00
H844   H     0.44797   0.74943   0.13125   0.00000  Uiso   1.00
H845   H     0.47017   0.74340   0.07055   0.00000  Uiso   1.00
H846   H     0.36336   0.73530   0.13132   0.00000  Uiso   1.00
H847   H     0.38947   0.72772   0.06968   0.00000  Uiso   1.00
H848   H     0.43947   0.66836   0.08049   0.00000  Uiso   1.00
H849   H     0.37669   0.99277   0.11255   0.00000  Uiso   1.00
H850   H     0.41528   0.67664   0.14267   0.00000  Uiso   1.00
H851   H     0.56835   0.70621   0.19683   0.00000  Uiso   1.00
H852   H     0.52311   0.73737   0.37378   0.00000  Uiso   1.00
H853   H     0.49433   0.73593   0.43514   0.00000  Uiso   1.00
H854   H     0.59446   0.69808   0.37942   0.00000  Uiso   1.00
H855   H     0.56442   0.69498   0.44135   0.00000  Uiso   1.00
H856   H     0.49698   0.98880   0.42990   0.00000  Uiso   1.00
H857   H     0.55404   0.96272   0.40228   0.00000  Uiso   1.00
H858   H     0.52706   0.99173   0.36764   0.00000  Uiso   1.00
H859   H     0.60183   0.97676   0.16856   0.00000  Uiso   1.00
H860   H     0.43182   0.73512   0.32460   0.00000  Uiso   1.00
H861   H     0.61450   0.78234   0.19232   0.00000  Uiso   1.00
H862   H     0.43102   0.96058   0.30457   0.00000  Uiso   1.00
H863   H     0.33570   0.90206   0.32562   0.00000  Uiso   1.00
H864   H     0.37880   0.74452   0.20480   0.00000  Uiso   1.00
H865   H     0.62000   0.92215   0.29330   0.00000  Uiso   1.00
H866   H     0.35211   0.82065   0.09351   0.00000  Uiso   1.00
H867   H     0.62977   0.75822   0.41883   0.00000  Uiso   1.00
H868   H     0.49106   0.88385   0.12140   0.00000  Uiso   1.00
H869   H     0.53045   0.87408   0.37477   0.00000  Uiso   1.00
H870   H     0.63383   0.86169   0.44725   0.00000  Uiso   1.00
N871   N     0.38093   0.83334   0.25001   0.00000  Uiso   1.00
N872   N     0.61907   0.83332   0.24999   0.00000  Uiso   1.00
O873   O     0.46179   0.89442   0.25000   0.00000  Uiso   1.00
O874   O     0.62431   0.76033   0.45232   0.00000  Uiso   1.00
O875   O     0.48208   0.86331   0.10169   0.00000  Uiso   1.00
O876   O     0.53143   0.84847   0.39253   0.00000  Uiso   1.00
O877   O     0.33819   0.84289   0.48873   0.00000  Uiso   1.00
O878   O     0.63203   0.74816   0.03393   0.00000  Uiso   1.00
O879   O     0.42469   0.79666   0.09898   0.00000  Uiso   1.00
O880   O     0.55727   0.77306   0.40787   0.00000  Uiso   1.00
O881   O     0.57738   0.95665   0.18721   0.00000  Uiso   1.00
O882   O     0.42224   0.70683   0.31792   0.00000  Uiso   1.00
O883   O     0.63868   0.77067   0.20395   0.00000  Uiso   1.00
O884   O     0.53821   0.77225   0.24999   0.00000  Uiso   1.00
O885   O     0.36386   0.89259   0.29888   0.00000  Uiso   1.00
O886   O     0.39668   0.76868   0.21062   0.00000  Uiso   1.00
O887   O     0.60193   0.89618   0.29327   0.00000  Uiso   1.00
O888   O     0.53823   0.89441   0.25000   0.00000  Uiso   1.00
O889   O     0.46177   0.77226   0.25000   0.00000  Uiso   1.00
O890   O     0.43994   0.83334   0.31612   0.00000  Uiso   1.00
O891   O     0.56006   0.83333   0.18387   0.00000  Uiso   1.00
O892   O     0.51639   0.83333   0.31612   0.00000  Uiso   1.00
O893   O     0.48361   0.83334   0.18388   0.00000  Uiso   1.00
O894   O     0.35621   0.82147   0.06025   0.00000  Uiso   1.00
Zn895  Zn    0.44896   0.83334   0.25000   0.00000  Uiso   1.00
Zn896  Zn    0.55104   0.83333   0.25000   0.00000  Uiso   1.00
C897   C     0.83353   0.91318   0.24928   0.00000  Uiso   1.00
C898   C     0.79405   0.97802   0.28087   0.00000  Uiso   1.00
C899   C     0.83292   0.70937   0.25264   0.00000  Uiso   1.00
C900   C     0.83347   0.95735   0.24915   0.00000  Uiso   1.00
C901   C     0.98456   0.80195   0.22819   0.00000  Uiso   1.00
C902   C     0.68224   0.86391   0.27335   0.00000  Uiso   1.00
C903   C     0.69870   0.80134   0.22954   0.00000  Uiso   1.00
C904   C     0.96740   0.86450   0.27238   0.00000  Uiso   1.00
C905   C     0.80361   0.83480   0.33783   0.00000  Uiso   1.00
C906   C     0.86310   0.83220   0.16221   0.00000  Uiso   1.00
C907   C     0.78577   0.83552   0.38848   0.00000  Uiso   1.00
C908   C     0.83302   0.75352   0.25113   0.00000  Uiso   1.00
C909   C     0.88019   0.82277   0.11260   0.00000  Uiso   1.00
C910   C     0.71967   0.83537   0.46263   0.00000  Uiso   1.00
C911   C     0.93015   0.77882   0.04880   0.00000  Uiso   1.00
C912   C     0.73651   0.83547   0.41384   0.00000  Uiso   1.00
C913   C     0.91925   0.79540   0.09349   0.00000  Uiso   1.00
C914   C     0.81830   0.83397   0.41199   0.00000  Uiso   1.00
C915   C     0.85051   0.83237   0.08737   0.00000  Uiso   1.00
C916   C     0.80223   0.82053   0.45777   0.00000  Uiso   1.00
C917   C     0.85759   0.81113   0.04558   0.00000  Uiso   1.00
C918   C     0.75257   0.82495   0.48497   0.00000  Uiso   1.00
C919   C     0.77256   0.81025   0.05341   0.00000  Uiso   1.00
C920   C     0.90100   0.78939   0.02284   0.00000  Uiso   1.00
C921   C     0.83539   0.80719   0.47811   0.00000  Uiso   1.00
C922   C     0.82193   0.81165   0.02583   0.00000  Uiso   1.00
C923   C     0.98497   0.87563   0.47008   0.00000  Uiso   1.00
C924   C     0.94789   0.89969   0.00959   0.00000  Uiso   1.00
C925   C     0.92050   0.93171   0.49167   0.00000  Uiso   1.00
C926   C     0.94310   0.70826   0.04268   0.00000  Uiso   1.00
C927   C     0.97589   0.67686   0.05423   0.00000  Uiso   1.00
C928   C     0.68881   0.66852   0.01304   0.00000  Uiso   1.00
C929   C     0.77131   0.75387   0.10026   0.00000  Uiso   1.00
C930   C     0.88003   0.78685   0.45318   0.00000  Uiso   1.00
C931   C     0.72962   0.72519   0.10266   0.00000  Uiso   1.00
C932   C     0.74110   0.67961   0.11002   0.00000  Uiso   1.00
C933   C     0.86354   0.73683   0.40680   0.00000  Uiso   1.00
C934   C     0.89211   0.69694   0.40770   0.00000  Uiso   1.00
C935   C     0.86578   0.99101   0.40148   0.00000  Uiso   1.00
C936   C     0.73770   0.81893   0.03338   0.00000  Uiso   1.00
C937   C     0.91301   0.77801   0.47579   0.00000  Uiso   1.00
C938   C     0.87298   0.97865   0.21881   0.00000  Uiso   1.00
C939   C     0.79376   0.68767   0.28387   0.00000  Uiso   1.00
C940   C     0.87225   0.68863   0.22072   0.00000  Uiso   1.00
H941   H     0.93973   0.78471   0.11420   0.00000  Uiso   1.00
H942   H     0.67894   0.89886   0.45000   0.00000  Uiso   1.00
H943   H     0.92203   0.87757   0.03251   0.00000  Uiso   1.00
H944   H     0.96649   0.91573   0.03037   0.00000  Uiso   1.00
H945   H     0.94566   0.95418   0.46796   0.00000  Uiso   1.00
H946   H     0.89497   0.94949   0.02131   0.00000  Uiso   1.00
H947   H     0.89979   0.91552   0.47288   0.00000  Uiso   1.00
H948   H     0.93576   0.69719   0.01162   0.00000  Uiso   1.00
H949   H     0.90826   0.70830   0.07267   0.00000  Uiso   1.00
H950   H     0.98437   0.68895   0.08417   0.00000  Uiso   1.00
H951   H     0.95631   0.98034   0.06513   0.00000  Uiso   1.00
H952   H     0.71123   0.83753   0.39589   0.00000  Uiso   1.00
H953   H     0.68046   0.98843   0.48351   0.00000  Uiso   1.00
H954   H     0.71159   0.97909   0.02317   0.00000  Uiso   1.00
H955   H     0.70929   0.69797   0.00179   0.00000  Uiso   1.00
H956   H     0.78130   0.74943   0.13125   0.00000  Uiso   1.00
H957   H     0.80350   0.74340   0.07055   0.00000  Uiso   1.00
H958   H     0.69670   0.73530   0.13132   0.00000  Uiso   1.00
H959   H     0.72280   0.72772   0.06968   0.00000  Uiso   1.00
H960   H     0.77281   0.66836   0.08049   0.00000  Uiso   1.00
H961   H     0.71002   0.99277   0.11255   0.00000  Uiso   1.00
H962   H     0.74861   0.67664   0.14267   0.00000  Uiso   1.00
H963   H     0.90168   0.70621   0.19683   0.00000  Uiso   1.00
H964   H     0.85644   0.73737   0.37378   0.00000  Uiso   1.00
H965   H     0.82766   0.73593   0.43514   0.00000  Uiso   1.00
H966   H     0.92779   0.69808   0.37942   0.00000  Uiso   1.00
H967   H     0.89775   0.69498   0.44135   0.00000  Uiso   1.00
H968   H     0.83031   0.98880   0.42990   0.00000  Uiso   1.00
H969   H     0.88737   0.96272   0.40228   0.00000  Uiso   1.00
H970   H     0.86039   0.99173   0.36764   0.00000  Uiso   1.00
H971   H     0.93516   0.97676   0.16856   0.00000  Uiso   1.00
H972   H     0.76516   0.73512   0.32460   0.00000  Uiso   1.00
H973   H     0.94784   0.78234   0.19232   0.00000  Uiso   1.00
H974   H     0.76436   0.96058   0.30457   0.00000  Uiso   1.00
H975   H     0.66903   0.90206   0.32562   0.00000  Uiso   1.00
H976   H     0.71213   0.74452   0.20480   0.00000  Uiso   1.00
H977   H     0.95333   0.92215   0.29330   0.00000  Uiso   1.00
H978   H     0.68545   0.82065   0.09351   0.00000  Uiso   1.00
H979   H     0.96310   0.75822   0.41883   0.00000  Uiso   1.00
H980   H     0.82439   0.88385   0.12140   0.00000  Uiso   1.00
H981   H     0.86379   0.87408   0.37477   0.00000  Uiso   1.00
H982   H     0.96716   0.86169   0.44725   0.00000  Uiso   1.00
N983   N     0.71426   0.83334   0.25001   0.00000  Uiso   1.00
N984   N     0.95241   0.83332   0.24999   0.00000  Uiso   1.00
O985   O     0.79512   0.89442   0.25000   0.00000  Uiso   1.00
O986   O     0.95764   0.76033   0.45232   0.00000  Uiso   1.00
O987   O     0.81542   0.86331   0.10169   0.00000  Uiso   1.00
O988   O     0.86476   0.84847   0.39253   0.00000  Uiso   1.00
O989   O     0.67152   0.84289   0.48873   0.00000  Uiso   1.00
O990   O     0.96536   0.74816   0.03393   0.00000  Uiso   1.00
O991   O     0.75803   0.79666   0.09898   0.00000  Uiso   1.00
O992   O     0.89061   0.77306   0.40787   0.00000  Uiso   1.00
O993   O     0.91071   0.95665   0.18721   0.00000  Uiso   1.00
O994   O     0.75557   0.70683   0.31792   0.00000  Uiso   1.00
O995   O     0.97202   0.77067   0.20395   0.00000  Uiso   1.00
O996   O     0.87154   0.77225   0.24999   0.00000  Uiso   1.00
O997   O     0.69719   0.89259   0.29888   0.00000  Uiso   1.00
O998   O     0.73001   0.76868   0.21062   0.00000  Uiso   1.00
O999   O     0.93526   0.89618   0.29327   0.00000  Uiso   1.00
O1000  O     0.87157   0.89441   0.25000   0.00000  Uiso   1.00
O1001  O     0.79510   0.77226   0.25000   0.00000  Uiso   1.00
O1002  O     0.77328   0.83334   0.31612   0.00000  Uiso   1.00
O1003  O     0.89339   0.83333   0.18387   0.00000  Uiso   1.00
O1004  O     0.84972   0.83333   0.31612   0.00000  Uiso   1.00
O1005  O     0.81695   0.83334   0.18388   0.00000  Uiso   1.00
O1006  O     0.68954   0.82147   0.06025   0.00000  Uiso   1.00
Zn1007 Zn    0.78229   0.83334   0.25000   0.00000  Uiso   1.00
Zn1008 Zn    0.88438   0.83333   0.25000   0.00000  Uiso   1.00
C1009  C     0.16686   0.24652   0.74928   0.00000  Uiso   1.00
C1010  C     0.12738   0.31135   0.78087   0.00000  Uiso   1.00
C1011  C     0.16625   0.04270   0.75264   0.00000  Uiso   1.00
C1012  C     0.16680   0.29069   0.74915   0.00000  Uiso   1.00
C1013  C     0.31789   0.13528   0.72819   0.00000  Uiso   1.00
C1014  C     0.01557   0.19724   0.77335   0.00000  Uiso   1.00
C1015  C     0.03203   0.13468   0.72954   0.00000  Uiso   1.00
C1016  C     0.30073   0.19784   0.77238   0.00000  Uiso   1.00
C1017  C     0.13694   0.16813   0.83783   0.00000  Uiso   1.00
C1018  C     0.19643   0.16553   0.66221   0.00000  Uiso   1.00
C1019  C     0.11910   0.16885   0.88848   0.00000  Uiso   1.00
C1020  C     0.16635   0.08685   0.75113   0.00000  Uiso   1.00
C1021  C     0.21352   0.15610   0.61260   0.00000  Uiso   1.00
C1022  C     0.05301   0.16870   0.96263   0.00000  Uiso   1.00
C1023  C     0.26349   0.11215   0.54880   0.00000  Uiso   1.00
C1024  C     0.06985   0.16880   0.91384   0.00000  Uiso   1.00
C1025  C     0.25259   0.12873   0.59349   0.00000  Uiso   1.00
C1026  C     0.15163   0.16730   0.91199   0.00000  Uiso   1.00
C1027  C     0.18384   0.16570   0.58737   0.00000  Uiso   1.00
C1028  C     0.13556   0.15386   0.95777   0.00000  Uiso   1.00
C1029  C     0.19092   0.14447   0.54558   0.00000  Uiso   1.00
C1030  C     0.08590   0.15828   0.98497   0.00000  Uiso   1.00
C1031  C     0.10589   0.14358   0.55341   0.00000  Uiso   1.00
C1032  C     0.23434   0.12272   0.52284   0.00000  Uiso   1.00
C1033  C     0.16873   0.14052   0.97811   0.00000  Uiso   1.00
C1034  C     0.15527   0.14499   0.52583   0.00000  Uiso   1.00
C1035  C     0.31830   0.20896   0.97008   0.00000  Uiso   1.00
C1036  C     0.28123   0.23302   0.50959   0.00000  Uiso   1.00
C1037  C     0.25383   0.26505   0.99167   0.00000  Uiso   1.00
C1038  C     0.27643   0.04160   0.54268   0.00000  Uiso   1.00
C1039  C     0.30923   0.01020   0.55423   0.00000  Uiso   1.00
C1040  C     0.02214   0.00186   0.51304   0.00000  Uiso   1.00
C1041  C     0.10464   0.08720   0.60026   0.00000  Uiso   1.00
C1042  C     0.21336   0.12018   0.95318   0.00000  Uiso   1.00
C1043  C     0.06295   0.05852   0.60266   0.00000  Uiso   1.00
C1044  C     0.07443   0.01295   0.61002   0.00000  Uiso   1.00
C1045  C     0.19687   0.07017   0.90680   0.00000  Uiso   1.00
C1046  C     0.22544   0.03027   0.90770   0.00000  Uiso   1.00
C1047  C     0.19911   0.32434   0.90148   0.00000  Uiso   1.00
C1048  C     0.07103   0.15227   0.53338   0.00000  Uiso   1.00
C1049  C     0.24634   0.11134   0.97579   0.00000  Uiso   1.00
C1050  C     0.20632   0.31199   0.71881   0.00000  Uiso   1.00
C1051  C     0.12709   0.02101   0.78387   0.00000  Uiso   1.00
C1052  C     0.20558   0.02197   0.72072   0.00000  Uiso   1.00
H1053  H     0.27306   0.11804   0.61420   0.00000  Uiso   1.00
H1054  H     0.01227   0.23220   0.95000   0.00000  Uiso   1.00
H1055  H     0.25537   0.21090   0.53251   0.00000  Uiso   1.00
H1056  H     0.29982   0.24906   0.53037   0.00000  Uiso   1.00
H1057  H     0.27900   0.28752   0.96796   0.00000  Uiso   1.00
H1058  H     0.22830   0.28282   0.52131   0.00000  Uiso   1.00
H1059  H     0.23313   0.24886   0.97288   0.00000  Uiso   1.00
H1060  H     0.26910   0.03052   0.51162   0.00000  Uiso   1.00
H1061  H     0.24160   0.04164   0.57267   0.00000  Uiso   1.00
H1062  H     0.31770   0.02228   0.58417   0.00000  Uiso   1.00
H1063  H     0.28965   0.31367   0.56513   0.00000  Uiso   1.00
H1064  H     0.04456   0.17087   0.89589   0.00000  Uiso   1.00
H1065  H     0.01380   0.32177   0.98351   0.00000  Uiso   1.00
H1066  H     0.04493   0.31242   0.52317   0.00000  Uiso   1.00
H1067  H     0.04263   0.03130   0.50179   0.00000  Uiso   1.00
H1068  H     0.11463   0.08276   0.63125   0.00000  Uiso   1.00
H1069  H     0.13684   0.07673   0.57055   0.00000  Uiso   1.00
H1070  H     0.03003   0.06863   0.63132   0.00000  Uiso   1.00
H1071  H     0.05614   0.06105   0.56968   0.00000  Uiso   1.00
H1072  H     0.10614   0.00170   0.58049   0.00000  Uiso   1.00
H1073  H     0.04336   0.32610   0.61255   0.00000  Uiso   1.00
H1074  H     0.08194   0.00997   0.64267   0.00000  Uiso   1.00
H1075  H     0.23501   0.03954   0.69683   0.00000  Uiso   1.00
H1076  H     0.18978   0.07070   0.87378   0.00000  Uiso   1.00
H1077  H     0.16100   0.06926   0.93514   0.00000  Uiso   1.00
H1078  H     0.26112   0.03141   0.87942   0.00000  Uiso   1.00
H1079  H     0.23108   0.02831   0.94135   0.00000  Uiso   1.00
H1080  H     0.16365   0.32214   0.92990   0.00000  Uiso   1.00
H1081  H     0.22071   0.29605   0.90228   0.00000  Uiso   1.00
H1082  H     0.19373   0.32507   0.86764   0.00000  Uiso   1.00
H1083  H     0.26850   0.31009   0.66856   0.00000  Uiso   1.00
H1084  H     0.09849   0.06845   0.82460   0.00000  Uiso   1.00
H1085  H     0.28117   0.11567   0.69232   0.00000  Uiso   1.00
H1086  H     0.09769   0.29391   0.80457   0.00000  Uiso   1.00
H1087  H     0.00236   0.23540   0.82562   0.00000  Uiso   1.00
H1088  H     0.04546   0.07785   0.70480   0.00000  Uiso   1.00
H1089  H     0.28667   0.25549   0.79330   0.00000  Uiso   1.00
H1090  H     0.01878   0.15398   0.59351   0.00000  Uiso   1.00
H1091  H     0.29643   0.09156   0.91883   0.00000  Uiso   1.00
H1092  H     0.15772   0.21719   0.62140   0.00000  Uiso   1.00
H1093  H     0.19712   0.20741   0.87477   0.00000  Uiso   1.00
H1094  H     0.30049   0.19503   0.94725   0.00000  Uiso   1.00
N1095  N     0.04759   0.16668   0.75001   0.00000  Uiso   1.00
N1096  N     0.28574   0.16666   0.74999   0.00000  Uiso   1.00
O1097  O     0.12846   0.22775   0.75000   0.00000  Uiso   1.00
O1098  O     0.29098   0.09366   0.95232   0.00000  Uiso   1.00
O1099  O     0.14875   0.19664   0.60169   0.00000  Uiso   1.00
O1100  O     0.19810   0.18181   0.89253   0.00000  Uiso   1.00
O1101  O     0.00485   0.17622   0.98873   0.00000  Uiso   1.00
O1102  O     0.29869   0.08150   0.53393   0.00000  Uiso   1.00
O1103  O     0.09136   0.13000   0.59898   0.00000  Uiso   1.00
O1104  O     0.22394   0.10640   0.90787   0.00000  Uiso   1.00
O1105  O     0.24404   0.28998   0.68721   0.00000  Uiso   1.00
O1106  O     0.08890   0.04017   0.81792   0.00000  Uiso   1.00
O1107  O     0.30535   0.10400   0.70395   0.00000  Uiso   1.00
O1108  O     0.20488   0.10558   0.74999   0.00000  Uiso   1.00
O1109  O     0.03053   0.22592   0.79888   0.00000  Uiso   1.00
O1110  O     0.06334   0.10202   0.71062   0.00000  Uiso   1.00
O1111  O     0.26859   0.22951   0.79327   0.00000  Uiso   1.00
O1112  O     0.20490   0.22774   0.75000   0.00000  Uiso   1.00
O1113  O     0.12843   0.10559   0.75000   0.00000  Uiso   1.00
O1114  O     0.10661   0.16667   0.81612   0.00000  Uiso   1.00
O1115  O     0.22672   0.16666   0.68387   0.00000  Uiso   1.00
O1116  O     0.18305   0.16666   0.81612   0.00000  Uiso   1.00
O1117  O     0.15028   0.16667   0.68388   0.00000  Uiso   1.00
O1118  O     0.02288   0.15480   0.56025   0.00000  Uiso   1.00
Zn1119 Zn    0.11562   0.16667   0.75000   0.00000  Uiso   1.00
Zn1120 Zn    0.21771   0.16666   0.75000   0.00000  Uiso   1.00
C1121  C     0.50020   0.24652   0.74928   0.00000  Uiso   1.00
C1122  C     0.46071   0.31135   0.78087   0.00000  Uiso   1.00
C1123  C     0.49959   0.04270   0.75264   0.00000  Uiso   1.00
C1124  C     0.50014   0.29069   0.74915   0.00000  Uiso   1.00
C1125  C     0.65122   0.13528   0.72819   0.00000  Uiso   1.00
C1126  C     0.34891   0.19724   0.77335   0.00000  Uiso   1.00
C1127  C     0.36536   0.13468   0.72954   0.00000  Uiso   1.00
C1128  C     0.63406   0.19784   0.77238   0.00000  Uiso   1.00
C1129  C     0.47028   0.16813   0.83783   0.00000  Uiso   1.00
C1130  C     0.52977   0.16553   0.66221   0.00000  Uiso   1.00
C1131  C     0.45243   0.16885   0.88848   0.00000  Uiso   1.00
C1132  C     0.49969   0.08685   0.75113   0.00000  Uiso   1.00
C1133  C     0.54685   0.15610   0.61260   0.00000  Uiso   1.00
C1134  C     0.38634   0.16870   0.96263   0.00000  Uiso   1.00
C1135  C     0.59682   0.11215   0.54880   0.00000  Uiso   1.00
C1136  C     0.40318   0.16880   0.91384   0.00000  Uiso   1.00
C1137  C     0.58592   0.12873   0.59349   0.00000  Uiso   1.00
C1138  C     0.48496   0.16730   0.91199   0.00000  Uiso   1.00
C1139  C     0.51717   0.16570   0.58737   0.00000  Uiso   1.00
C1140  C     0.46889   0.15386   0.95777   0.00000  Uiso   1.00
C1141  C     0.52425   0.14447   0.54558   0.00000  Uiso   1.00
C1142  C     0.41923   0.15828   0.98497   0.00000  Uiso   1.00
C1143  C     0.43923   0.14358   0.55341   0.00000  Uiso   1.00
C1144  C     0.56767   0.12272   0.52284   0.00000  Uiso   1.00
C1145  C     0.50206   0.14052   0.97811   0.00000  Uiso   1.00
C1146  C     0.48860   0.14499   0.52583   0.00000  Uiso   1.00
C1147  C     0.65163   0.20896   0.97008   0.00000  Uiso   1.00
C1148  C     0.61456   0.23302   0.50959   0.00000  Uiso   1.00
C1149  C     0.58716   0.26505   0.99167   0.00000  Uiso   1.00
C1150  C     0.60976   0.04160   0.54268   0.00000  Uiso   1.00
C1151  C     0.64256   0.01020   0.55423   0.00000  Uiso   1.00
C1152  C     0.35547   0.00186   0.51304   0.00000  Uiso   1.00
C1153  C     0.43797   0.08720   0.60026   0.00000  Uiso   1.00
C1154  C     0.54669   0.12018   0.95318   0.00000  Uiso   1.00
C1155  C     0.39629   0.05852   0.60266   0.00000  Uiso   1.00
C1156  C     0.40776   0.01295   0.61002   0.00000  Uiso   1.00
C1157  C     0.53020   0.07017   0.90680   0.00000  Uiso   1.00
C1158  C     0.55878   0.03027   0.90770   0.00000  Uiso   1.00
C1159  C     0.53244   0.32434   0.90148   0.00000  Uiso   1.00
C1160  C     0.40436   0.15227   0.53338   0.00000  Uiso   1.00
C1161  C     0.57967   0.11134   0.97579   0.00000  Uiso   1.00
C1162  C     0.53965   0.31199   0.71881   0.00000  Uiso   1.00
C1163  C     0.46043   0.02101   0.78387   0.00000  Uiso   1.00
C1164  C     0.53891   0.02197   0.72072   0.00000  Uiso   1.00
H1165  H     0.60640   0.11804   0.61420   0.00000  Uiso   1.00
H1166  H     0.34560   0.23220   0.95000   0.00000  Uiso   1.00
H1167  H     0.58870   0.21090   0.53251   0.00000  Uiso   1.00
H1168  H     0.63316   0.24906   0.53037   0.00000  Uiso   1.00
H1169  H     0.61233   0.28752   0.96796   0.00000  Uiso   1.00
H1170  H     0.56164   0.28282   0.52131   0.00000  Uiso   1.00
H1171  H     0.56646   0.24886   0.97288   0.00000  Uiso   1.00
H1172  H     0.60243   0.03052   0.51162   0.00000  Uiso   1.00
H1173  H     0.57493   0.04164   0.57267   0.00000  Uiso   1.00
H1174  H     0.65104   0.02228   0.58417   0.00000  Uiso   1.00
H1175  H     0.62298   0.31367   0.56513   0.00000  Uiso   1.00
H1176  H     0.37789   0.17087   0.89589   0.00000  Uiso   1.00
H1177  H     0.34713   0.32177   0.98351   0.00000  Uiso   1.00
H1178  H     0.37826   0.31242   0.52317   0.00000  Uiso   1.00
H1179  H     0.37596   0.03130   0.50179   0.00000  Uiso   1.00
H1180  H     0.44797   0.08276   0.63125   0.00000  Uiso   1.00
H1181  H     0.47017   0.07673   0.57055   0.00000  Uiso   1.00
H1182  H     0.36336   0.06863   0.63132   0.00000  Uiso   1.00
H1183  H     0.38947   0.06105   0.56968   0.00000  Uiso   1.00
H1184  H     0.43947   0.00170   0.58049   0.00000  Uiso   1.00
H1185  H     0.37669   0.32610   0.61255   0.00000  Uiso   1.00
H1186  H     0.41528   0.00997   0.64267   0.00000  Uiso   1.00
H1187  H     0.56835   0.03954   0.69683   0.00000  Uiso   1.00
H1188  H     0.52311   0.07070   0.87378   0.00000  Uiso   1.00
H1189  H     0.49433   0.06926   0.93514   0.00000  Uiso   1.00
H1190  H     0.59446   0.03141   0.87942   0.00000  Uiso   1.00
H1191  H     0.56442   0.02831   0.94135   0.00000  Uiso   1.00
H1192  H     0.49698   0.32214   0.92990   0.00000  Uiso   1.00
H1193  H     0.55404   0.29605   0.90228   0.00000  Uiso   1.00
H1194  H     0.52706   0.32507   0.86764   0.00000  Uiso   1.00
H1195  H     0.60183   0.31009   0.66856   0.00000  Uiso   1.00
H1196  H     0.43182   0.06845   0.82460   0.00000  Uiso   1.00
H1197  H     0.61450   0.11567   0.69232   0.00000  Uiso   1.00
H1198  H     0.43102   0.29391   0.80457   0.00000  Uiso   1.00
H1199  H     0.33570   0.23540   0.82562   0.00000  Uiso   1.00
H1200  H     0.37880   0.07785   0.70480   0.00000  Uiso   1.00
H1201  H     0.62000   0.25549   0.79330   0.00000  Uiso   1.00
H1202  H     0.35211   0.15398   0.59351   0.00000  Uiso   1.00
H1203  H     0.62977   0.09156   0.91883   0.00000  Uiso   1.00
H1204  H     0.49106   0.21719   0.62140   0.00000  Uiso   1.00
H1205  H     0.53045   0.20741   0.87477   0.00000  Uiso   1.00
H1206  H     0.63383   0.19503   0.94725   0.00000  Uiso   1.00
N1207  N     0.38093   0.16668   0.75001   0.00000  Uiso   1.00
N1208  N     0.61907   0.16666   0.74999   0.00000  Uiso   1.00
O1209  O     0.46179   0.22775   0.75000   0.00000  Uiso   1.00
O1210  O     0.62431   0.09366   0.95232   0.00000  Uiso   1.00
O1211  O     0.48208   0.19664   0.60169   0.00000  Uiso   1.00
O1212  O     0.53143   0.18181   0.89253   0.00000  Uiso   1.00
O1213  O     0.33819   0.17622   0.98873   0.00000  Uiso   1.00
O1214  O     0.63203   0.08150   0.53393   0.00000  Uiso   1.00
O1215  O     0.42469   0.13000   0.59898   0.00000  Uiso   1.00
O1216  O     0.55727   0.10640   0.90787   0.00000  Uiso   1.00
O1217  O     0.57738   0.28998   0.68721   0.00000  Uiso   1.00
O1218  O     0.42224   0.04017   0.81792   0.00000  Uiso   1.00
O1219  O     0.63868   0.10400   0.70395   0.00000  Uiso   1.00
O1220  O     0.53821   0.10558   0.74999   0.00000  Uiso   1.00
O1221  O     0.36386   0.22592   0.79888   0.00000  Uiso   1.00
O1222  O     0.39668   0.10202   0.71062   0.00000  Uiso   1.00
O1223  O     0.60193   0.22951   0.79327   0.00000  Uiso   1.00
O1224  O     0.53823   0.22774   0.75000   0.00000  Uiso   1.00
O1225  O     0.46177   0.10559   0.75000   0.00000  Uiso   1.00
O1226  O     0.43994   0.16667   0.81612   0.00000  Uiso   1.00
O1227  O     0.56006   0.16666   0.68387   0.00000  Uiso   1.00
O1228  O     0.51639   0.16666   0.81612   0.00000  Uiso   1.00
O1229  O     0.48361   0.16667   0.68388   0.00000  Uiso   1.00
O1230  O     0.35621   0.15480   0.56025   0.00000  Uiso   1.00
Zn1231 Zn    0.44896   0.16667   0.75000   0.00000  Uiso   1.00
Zn1232 Zn    0.55104   0.16666   0.75000   0.00000  Uiso   1.00
C1233  C     0.83353   0.24652   0.74928   0.00000  Uiso   1.00
C1234  C     0.79405   0.31135   0.78087   0.00000  Uiso   1.00
C1235  C     0.83292   0.04270   0.75264   0.00000  Uiso   1.00
C1236  C     0.83347   0.29069   0.74915   0.00000  Uiso   1.00
C1237  C     0.98456   0.13528   0.72819   0.00000  Uiso   1.00
C1238  C     0.68224   0.19724   0.77335   0.00000  Uiso   1.00
C1239  C     0.69870   0.13468   0.72954   0.00000  Uiso   1.00
C1240  C     0.96740   0.19784   0.77238   0.00000  Uiso   1.00
C1241  C     0.80361   0.16813   0.83783   0.00000  Uiso   1.00
C1242  C     0.86310   0.16553   0.66221   0.00000  Uiso   1.00
C1243  C     0.78577   0.16885   0.88848   0.00000  Uiso   1.00
C1244  C     0.83302   0.08685   0.75113   0.00000  Uiso   1.00
C1245  C     0.88019   0.15610   0.61260   0.00000  Uiso   1.00
C1246  C     0.71967   0.16870   0.96263   0.00000  Uiso   1.00
C1247  C     0.93015   0.11215   0.54880   0.00000  Uiso   1.00
C1248  C     0.73651   0.16880   0.91384   0.00000  Uiso   1.00
C1249  C     0.91925   0.12873   0.59349   0.00000  Uiso   1.00
C1250  C     0.81830   0.16730   0.91199   0.00000  Uiso   1.00
C1251  C     0.85051   0.16570   0.58737   0.00000  Uiso   1.00
C1252  C     0.80223   0.15386   0.95777   0.00000  Uiso   1.00
C1253  C     0.85759   0.14447   0.54558   0.00000  Uiso   1.00
C1254  C     0.75257   0.15828   0.98497   0.00000  Uiso   1.00
C1255  C     0.77256   0.14358   0.55341   0.00000  Uiso   1.00
C1256  C     0.90100   0.12272   0.52284   0.00000  Uiso   1.00
C1257  C     0.83539   0.14052   0.97811   0.00000  Uiso   1.00
C1258  C     0.82193   0.14499   0.52583   0.00000  Uiso   1.00
C1259  C     0.98497   0.20896   0.97008   0.00000  Uiso   1.00
C1260  C     0.94789   0.23302   0.50959   0.00000  Uiso   1.00
C1261  C     0.92050   0.26505   0.99167   0.00000  Uiso   1.00
C1262  C     0.94310   0.04160   0.54268   0.00000  Uiso   1.00
C1263  C     0.97589   0.01020   0.55423   0.00000  Uiso   1.00
C1264  C     0.68881   0.00186   0.51304   0.00000  Uiso   1.00
C1265  C     0.77131   0.08720   0.60026   0.00000  Uiso   1.00
C1266  C     0.88003   0.12018   0.95318   0.00000  Uiso   1.00
C1267  C     0.72962   0.05852   0.60266   0.00000  Uiso   1.00
C1268  C     0.74110   0.01295   0.61002   0.00000  Uiso   1.00
C1269  C     0.86354   0.07017   0.90680   0.00000  Uiso   1.00
C1270  C     0.89211   0.03027   0.90770   0.00000  Uiso   1.00
C1271  C     0.86578   0.32434   0.90148   0.00000  Uiso   1.00
C1272  C     0.73770   0.15227   0.53338   0.00000  Uiso   1.00
C1273  C     0.91301   0.11134   0.97579   0.00000  Uiso   1.00
C1274  C     0.87298   0.31199   0.71881   0.00000  Uiso   1.00
C1275  C     0.79376   0.02101   0.78387   0.00000  Uiso   1.00
C1276  C     0.87225   0.02197   0.72072   0.00000  Uiso   1.00
H1277  H     0.93973   0.11804   0.61420   0.00000  Uiso   1.00
H1278  H     0.67894   0.23220   0.95000   0.00000  Uiso   1.00
H1279  H     0.92203   0.21090   0.53251   0.00000  Uiso   1.00
H1280  H     0.96649   0.24906   0.53037   0.00000  Uiso   1.00
H1281  H     0.94566   0.28752   0.96796   0.00000  Uiso   1.00
H1282  H     0.89497   0.28282   0.52131   0.00000  Uiso   1.00
H1283  H     0.89979   0.24886   0.97288   0.00000  Uiso   1.00
H1284  H     0.93576   0.03052   0.51162   0.00000  Uiso   1.00
H1285  H     0.90826   0.04164   0.57267   0.00000  Uiso   1.00
H1286  H     0.98437   0.02228   0.58417   0.00000  Uiso   1.00
H1287  H     0.95631   0.31367   0.56513   0.00000  Uiso   1.00
H1288  H     0.71123   0.17087   0.89589   0.00000  Uiso   1.00
H1289  H     0.68046   0.32177   0.98351   0.00000  Uiso   1.00
H1290  H     0.71159   0.31242   0.52317   0.00000  Uiso   1.00
H1291  H     0.70929   0.03130   0.50179   0.00000  Uiso   1.00
H1292  H     0.78130   0.08276   0.63125   0.00000  Uiso   1.00
H1293  H     0.80350   0.07673   0.57055   0.00000  Uiso   1.00
H1294  H     0.69670   0.06863   0.63132   0.00000  Uiso   1.00
H1295  H     0.72280   0.06105   0.56968   0.00000  Uiso   1.00
H1296  H     0.77281   0.00170   0.58049   0.00000  Uiso   1.00
H1297  H     0.71002   0.32610   0.61255   0.00000  Uiso   1.00
H1298  H     0.74861   0.00997   0.64267   0.00000  Uiso   1.00
H1299  H     0.90168   0.03954   0.69683   0.00000  Uiso   1.00
H1300  H     0.85644   0.07070   0.87378   0.00000  Uiso   1.00
H1301  H     0.82766   0.06926   0.93514   0.00000  Uiso   1.00
H1302  H     0.92779   0.03141   0.87942   0.00000  Uiso   1.00
H1303  H     0.89775   0.02831   0.94135   0.00000  Uiso   1.00
H1304  H     0.83031   0.32214   0.92990   0.00000  Uiso   1.00
H1305  H     0.88737   0.29605   0.90228   0.00000  Uiso   1.00
H1306  H     0.86039   0.32507   0.86764   0.00000  Uiso   1.00
H1307  H     0.93516   0.31009   0.66856   0.00000  Uiso   1.00
H1308  H     0.76516   0.06845   0.82460   0.00000  Uiso   1.00
H1309  H     0.94784   0.11567   0.69232   0.00000  Uiso   1.00
H1310  H     0.76436   0.29391   0.80457   0.00000  Uiso   1.00
H1311  H     0.66903   0.23540   0.82562   0.00000  Uiso   1.00
H1312  H     0.71213   0.07785   0.70480   0.00000  Uiso   1.00
H1313  H     0.95333   0.25549   0.79330   0.00000  Uiso   1.00
H1314  H     0.68545   0.15398   0.59351   0.00000  Uiso   1.00
H1315  H     0.96310   0.09156   0.91883   0.00000  Uiso   1.00
H1316  H     0.82439   0.21719   0.62140   0.00000  Uiso   1.00
H1317  H     0.86379   0.20741   0.87477   0.00000  Uiso   1.00
H1318  H     0.96716   0.19503   0.94725   0.00000  Uiso   1.00
N1319  N     0.71426   0.16668   0.75001   0.00000  Uiso   1.00
N1320  N     0.95241   0.16666   0.74999   0.00000  Uiso   1.00
O1321  O     0.79512   0.22775   0.75000   0.00000  Uiso   1.00
O1322  O     0.95764   0.09366   0.95232   0.00000  Uiso   1.00
O1323  O     0.81542   0.19664   0.60169   0.00000  Uiso   1.00
O1324  O     0.86476   0.18181   0.89253   0.00000  Uiso   1.00
O1325  O     0.67152   0.17622   0.98873   0.00000  Uiso   1.00
O1326  O     0.96536   0.08150   0.53393   0.00000  Uiso   1.00
O1327  O     0.75803   0.13000   0.59898   0.00000  Uiso   1.00
O1328  O     0.89061   0.10640   0.90787   0.00000  Uiso   1.00
O1329  O     0.91071   0.28998   0.68721   0.00000  Uiso   1.00
O1330  O     0.75557   0.04017   0.81792   0.00000  Uiso   1.00
O1331  O     0.97202   0.10400   0.70395   0.00000  Uiso   1.00
O1332  O     0.87154   0.10558   0.74999   0.00000  Uiso   1.00
O1333  O     0.69719   0.22592   0.79888   0.00000  Uiso   1.00
O1334  O     0.73001   0.10202   0.71062   0.00000  Uiso   1.00
O1335  O     0.93526   0.22951   0.79327   0.00000  Uiso   1.00
O1336  O     0.87157   0.22774   0.75000   0.00000  Uiso   1.00
O1337  O     0.79510   0.10559   0.75000   0.00000  Uiso   1.00
O1338  O     0.77328   0.16667   0.81612   0.00000  Uiso   1.00
O1339  O     0.89339   0.16666   0.68387   0.00000  Uiso   1.00
O1340  O     0.84972   0.16666   0.81612   0.00000  Uiso   1.00
O1341  O     0.81695   0.16667   0.68388   0.00000  Uiso   1.00
O1342  O     0.68954   0.15480   0.56025   0.00000  Uiso   1.00
Zn1343 Zn    0.78229   0.16667   0.75000   0.00000  Uiso   1.00
Zn1344 Zn    0.88438   0.16666   0.75000   0.00000  Uiso   1.00
C1345  C     0.16686   0.57985   0.74928   0.00000  Uiso   1.00
C1346  C     0.12738   0.64468   0.78087   0.00000  Uiso   1.00
C1347  C     0.16625   0.37604   0.75264   0.00000  Uiso   1.00
C1348  C     0.16680   0.62402   0.74915   0.00000  Uiso   1.00
C1349  C     0.31789   0.46861   0.72819   0.00000  Uiso   1.00
C1350  C     0.01557   0.53057   0.77335   0.00000  Uiso   1.00
C1351  C     0.03203   0.46801   0.72954   0.00000  Uiso   1.00
C1352  C     0.30073   0.53117   0.77238   0.00000  Uiso   1.00
C1353  C     0.13694   0.50146   0.83783   0.00000  Uiso   1.00
C1354  C     0.19643   0.49886   0.66221   0.00000  Uiso   1.00
C1355  C     0.11910   0.50218   0.88848   0.00000  Uiso   1.00
C1356  C     0.16635   0.42018   0.75113   0.00000  Uiso   1.00
C1357  C     0.21352   0.48943   0.61260   0.00000  Uiso   1.00
C1358  C     0.05301   0.50203   0.96263   0.00000  Uiso   1.00
C1359  C     0.26349   0.44549   0.54880   0.00000  Uiso   1.00
C1360  C     0.06985   0.50213   0.91384   0.00000  Uiso   1.00
C1361  C     0.25259   0.46207   0.59349   0.00000  Uiso   1.00
C1362  C     0.15163   0.50064   0.91199   0.00000  Uiso   1.00
C1363  C     0.18384   0.49903   0.58737   0.00000  Uiso   1.00
C1364  C     0.13556   0.48719   0.95777   0.00000  Uiso   1.00
C1365  C     0.19092   0.47780   0.54558   0.00000  Uiso   1.00
C1366  C     0.08590   0.49161   0.98497   0.00000  Uiso   1.00
C1367  C     0.10589   0.47692   0.55341   0.00000  Uiso   1.00
C1368  C     0.23434   0.45605   0.52284   0.00000  Uiso   1.00
C1369  C     0.16873   0.47385   0.97811   0.00000  Uiso   1.00
C1370  C     0.15527   0.47832   0.52583   0.00000  Uiso   1.00
C1371  C     0.31830   0.54229   0.97008   0.00000  Uiso   1.00
C1372  C     0.28123   0.56636   0.50959   0.00000  Uiso   1.00
C1373  C     0.25383   0.59838   0.99167   0.00000  Uiso   1.00
C1374  C     0.27643   0.37493   0.54268   0.00000  Uiso   1.00
C1375  C     0.30923   0.34353   0.55423   0.00000  Uiso   1.00
C1376  C     0.02214   0.33519   0.51304   0.00000  Uiso   1.00
C1377  C     0.10464   0.42054   0.60026   0.00000  Uiso   1.00
C1378  C     0.21336   0.45352   0.95318   0.00000  Uiso   1.00
C1379  C     0.06295   0.39185   0.60266   0.00000  Uiso   1.00
C1380  C     0.07443   0.34628   0.61002   0.00000  Uiso   1.00
C1381  C     0.19687   0.40350   0.90680   0.00000  Uiso   1.00
C1382  C     0.22544   0.36360   0.90770   0.00000  Uiso   1.00
C1383  C     0.19911   0.65768   0.90148   0.00000  Uiso   1.00
C1384  C     0.07103   0.48560   0.53338   0.00000  Uiso   1.00
C1385  C     0.24634   0.44467   0.97579   0.00000  Uiso   1.00
C1386  C     0.20632   0.64532   0.71881   0.00000  Uiso   1.00
C1387  C     0.12709   0.35434   0.78387   0.00000  Uiso   1.00
C1388  C     0.20558   0.35530   0.72072   0.00000  Uiso   1.00
H1389  H     0.27306   0.45138   0.61420   0.00000  Uiso   1.00
H1390  H     0.01227   0.56553   0.95000   0.00000  Uiso   1.00
H1391  H     0.25537   0.54424   0.53251   0.00000  Uiso   1.00
H1392  H     0.29982   0.58240   0.53037   0.00000  Uiso   1.00
H1393  H     0.27900   0.62085   0.96796   0.00000  Uiso   1.00
H1394  H     0.22830   0.61615   0.52131   0.00000  Uiso   1.00
H1395  H     0.23313   0.58219   0.97288   0.00000  Uiso   1.00
H1396  H     0.26910   0.36385   0.51162   0.00000  Uiso   1.00
H1397  H     0.24160   0.37497   0.57267   0.00000  Uiso   1.00
H1398  H     0.31770   0.35562   0.58417   0.00000  Uiso   1.00
H1399  H     0.28965   0.64701   0.56513   0.00000  Uiso   1.00
H1400  H     0.04456   0.50420   0.89589   0.00000  Uiso   1.00
H1401  H     0.01380   0.65510   0.98351   0.00000  Uiso   1.00
H1402  H     0.04493   0.64575   0.52317   0.00000  Uiso   1.00
H1403  H     0.04263   0.36464   0.50179   0.00000  Uiso   1.00
H1404  H     0.11463   0.41609   0.63125   0.00000  Uiso   1.00
H1405  H     0.13684   0.41007   0.57055   0.00000  Uiso   1.00
H1406  H     0.03003   0.40197   0.63132   0.00000  Uiso   1.00
H1407  H     0.05614   0.39439   0.56968   0.00000  Uiso   1.00
H1408  H     0.10614   0.33503   0.58049   0.00000  Uiso   1.00
H1409  H     0.04336   0.65943   0.61255   0.00000  Uiso   1.00
H1410  H     0.08194   0.34330   0.64267   0.00000  Uiso   1.00
H1411  H     0.23501   0.37288   0.69683   0.00000  Uiso   1.00
H1412  H     0.18978   0.40403   0.87378   0.00000  Uiso   1.00
H1413  H     0.16100   0.40259   0.93514   0.00000  Uiso   1.00
H1414  H     0.26112   0.36475   0.87942   0.00000  Uiso   1.00
H1415  H     0.23108   0.36165   0.94135   0.00000  Uiso   1.00
H1416  H     0.16365   0.65547   0.92990   0.00000  Uiso   1.00
H1417  H     0.22071   0.62939   0.90228   0.00000  Uiso   1.00
H1418  H     0.19373   0.65840   0.86764   0.00000  Uiso   1.00
H1419  H     0.26850   0.64342   0.66856   0.00000  Uiso   1.00
H1420  H     0.09849   0.40179   0.82460   0.00000  Uiso   1.00
H1421  H     0.28117   0.44900   0.69232   0.00000  Uiso   1.00
H1422  H     0.09769   0.62725   0.80457   0.00000  Uiso   1.00
H1423  H     0.00236   0.56873   0.82562   0.00000  Uiso   1.00
H1424  H     0.04546   0.41119   0.70480   0.00000  Uiso   1.00
H1425  H     0.28667   0.58882   0.79330   0.00000  Uiso   1.00
H1426  H     0.01878   0.48731   0.59351   0.00000  Uiso   1.00
H1427  H     0.29643   0.42489   0.91883   0.00000  Uiso   1.00
H1428  H     0.15772   0.55052   0.62140   0.00000  Uiso   1.00
H1429  H     0.19712   0.54074   0.87477   0.00000  Uiso   1.00
H1430  H     0.30049   0.52836   0.94725   0.00000  Uiso   1.00
N1431  N     0.04759   0.50001   0.75001   0.00000  Uiso   1.00
N1432  N     0.28574   0.49999   0.74999   0.00000  Uiso   1.00
O1433  O     0.12846   0.56108   0.75000   0.00000  Uiso   1.00
O1434  O     0.29098   0.42699   0.95232   0.00000  Uiso   1.00
O1435  O     0.14875   0.52997   0.60169   0.00000  Uiso   1.00
O1436  O     0.19810   0.51514   0.89253   0.00000  Uiso   1.00
O1437  O     0.00485   0.50956   0.98873   0.00000  Uiso   1.00
O1438  O     0.29869   0.41483   0.53393   0.00000  Uiso   1.00
O1439  O     0.09136   0.46333   0.59898   0.00000  Uiso   1.00
O1440  O     0.22394   0.43973   0.90787   0.00000  Uiso   1.00
O1441  O     0.24404   0.62332   0.68721   0.00000  Uiso   1.00
O1442  O     0.08890   0.37350   0.81792   0.00000  Uiso   1.00
O1443  O     0.30535   0.43734   0.70395   0.00000  Uiso   1.00
O1444  O     0.20488   0.43892   0.74999   0.00000  Uiso   1.00
O1445  O     0.03053   0.55925   0.79888   0.00000  Uiso   1.00
O1446  O     0.06334   0.43535   0.71062   0.00000  Uiso   1.00
O1447  O     0.26859   0.56284   0.79327   0.00000  Uiso   1.00
O1448  O     0.20490   0.56107   0.75000   0.00000  Uiso   1.00
O1449  O     0.12843   0.43893   0.75000   0.00000  Uiso   1.00
O1450  O     0.10661   0.50001   0.81612   0.00000  Uiso   1.00
O1451  O     0.22672   0.49999   0.68387   0.00000  Uiso   1.00
O1452  O     0.18305   0.50000   0.81612   0.00000  Uiso   1.00
O1453  O     0.15028   0.50000   0.68388   0.00000  Uiso   1.00
O1454  O     0.02288   0.48814   0.56025   0.00000  Uiso   1.00
Zn1455 Zn    0.11562   0.50001   0.75000   0.00000  Uiso   1.00
Zn1456 Zn    0.21771   0.49999   0.75000   0.00000  Uiso   1.00
C1457  C     0.50020   0.57985   0.74928   0.00000  Uiso   1.00
C1458  C     0.46071   0.64468   0.78087   0.00000  Uiso   1.00
C1459  C     0.49959   0.37604   0.75264   0.00000  Uiso   1.00
C1460  C     0.50014   0.62402   0.74915   0.00000  Uiso   1.00
C1461  C     0.65122   0.46861   0.72819   0.00000  Uiso   1.00
C1462  C     0.34891   0.53057   0.77335   0.00000  Uiso   1.00
C1463  C     0.36536   0.46801   0.72954   0.00000  Uiso   1.00
C1464  C     0.63406   0.53117   0.77238   0.00000  Uiso   1.00
C1465  C     0.47028   0.50146   0.83783   0.00000  Uiso   1.00
C1466  C     0.52977   0.49886   0.66221   0.00000  Uiso   1.00
C1467  C     0.45243   0.50218   0.88848   0.00000  Uiso   1.00
C1468  C     0.49969   0.42018   0.75113   0.00000  Uiso   1.00
C1469  C     0.54685   0.48943   0.61260   0.00000  Uiso   1.00
C1470  C     0.38634   0.50203   0.96263   0.00000  Uiso   1.00
C1471  C     0.59682   0.44549   0.54880   0.00000  Uiso   1.00
C1472  C     0.40318   0.50213   0.91384   0.00000  Uiso   1.00
C1473  C     0.58592   0.46207   0.59349   0.00000  Uiso   1.00
C1474  C     0.48496   0.50064   0.91199   0.00000  Uiso   1.00
C1475  C     0.51717   0.49903   0.58737   0.00000  Uiso   1.00
C1476  C     0.46889   0.48719   0.95777   0.00000  Uiso   1.00
C1477  C     0.52425   0.47780   0.54558   0.00000  Uiso   1.00
C1478  C     0.41923   0.49161   0.98497   0.00000  Uiso   1.00
C1479  C     0.43923   0.47692   0.55341   0.00000  Uiso   1.00
C1480  C     0.56767   0.45605   0.52284   0.00000  Uiso   1.00
C1481  C     0.50206   0.47385   0.97811   0.00000  Uiso   1.00
C1482  C     0.48860   0.47832   0.52583   0.00000  Uiso   1.00
C1483  C     0.65163   0.54229   0.97008   0.00000  Uiso   1.00
C1484  C     0.61456   0.56636   0.50959   0.00000  Uiso   1.00
C1485  C     0.58716   0.59838   0.99167   0.00000  Uiso   1.00
C1486  C     0.60976   0.37493   0.54268   0.00000  Uiso   1.00
C1487  C     0.64256   0.34353   0.55423   0.00000  Uiso   1.00
C1488  C     0.35547   0.33519   0.51304   0.00000  Uiso   1.00
C1489  C     0.43797   0.42054   0.60026   0.00000  Uiso   1.00
C1490  C     0.54669   0.45352   0.95318   0.00000  Uiso   1.00
C1491  C     0.39629   0.39185   0.60266   0.00000  Uiso   1.00
C1492  C     0.40776   0.34628   0.61002   0.00000  Uiso   1.00
C1493  C     0.53020   0.40350   0.90680   0.00000  Uiso   1.00
C1494  C     0.55878   0.36360   0.90770   0.00000  Uiso   1.00
C1495  C     0.53244   0.65768   0.90148   0.00000  Uiso   1.00
C1496  C     0.40436   0.48560   0.53338   0.00000  Uiso   1.00
C1497  C     0.57967   0.44467   0.97579   0.00000  Uiso   1.00
C1498  C     0.53965   0.64532   0.71881   0.00000  Uiso   1.00
C1499  C     0.46043   0.35434   0.78387   0.00000  Uiso   1.00
C1500  C     0.53891   0.35530   0.72072   0.00000  Uiso   1.00
H1501  H     0.60640   0.45138   0.61420   0.00000  Uiso   1.00
H1502  H     0.34560   0.56553   0.95000   0.00000  Uiso   1.00
H1503  H     0.58870   0.54424   0.53251   0.00000  Uiso   1.00
H1504  H     0.63316   0.58240   0.53037   0.00000  Uiso   1.00
H1505  H     0.61233   0.62085   0.96796   0.00000  Uiso   1.00
H1506  H     0.56164   0.61615   0.52131   0.00000  Uiso   1.00
H1507  H     0.56646   0.58219   0.97288   0.00000  Uiso   1.00
H1508  H     0.60243   0.36385   0.51162   0.00000  Uiso   1.00
H1509  H     0.57493   0.37497   0.57267   0.00000  Uiso   1.00
H1510  H     0.65104   0.35562   0.58417   0.00000  Uiso   1.00
H1511  H     0.62298   0.64701   0.56513   0.00000  Uiso   1.00
H1512  H     0.37789   0.50420   0.89589   0.00000  Uiso   1.00
H1513  H     0.34713   0.65510   0.98351   0.00000  Uiso   1.00
H1514  H     0.37826   0.64575   0.52317   0.00000  Uiso   1.00
H1515  H     0.37596   0.36464   0.50179   0.00000  Uiso   1.00
H1516  H     0.44797   0.41609   0.63125   0.00000  Uiso   1.00
H1517  H     0.47017   0.41007   0.57055   0.00000  Uiso   1.00
H1518  H     0.36336   0.40197   0.63132   0.00000  Uiso   1.00
H1519  H     0.38947   0.39439   0.56968   0.00000  Uiso   1.00
H1520  H     0.43947   0.33503   0.58049   0.00000  Uiso   1.00
H1521  H     0.37669   0.65943   0.61255   0.00000  Uiso   1.00
H1522  H     0.41528   0.34330   0.64267   0.00000  Uiso   1.00
H1523  H     0.56835   0.37288   0.69683   0.00000  Uiso   1.00
H1524  H     0.52311   0.40403   0.87378   0.00000  Uiso   1.00
H1525  H     0.49433   0.40259   0.93514   0.00000  Uiso   1.00
H1526  H     0.59446   0.36475   0.87942   0.00000  Uiso   1.00
H1527  H     0.56442   0.36165   0.94135   0.00000  Uiso   1.00
H1528  H     0.49698   0.65547   0.92990   0.00000  Uiso   1.00
H1529  H     0.55404   0.62939   0.90228   0.00000  Uiso   1.00
H1530  H     0.52706   0.65840   0.86764   0.00000  Uiso   1.00
H1531  H     0.60183   0.64342   0.66856   0.00000  Uiso   1.00
H1532  H     0.43182   0.40179   0.82460   0.00000  Uiso   1.00
H1533  H     0.61450   0.44900   0.69232   0.00000  Uiso   1.00
H1534  H     0.43102   0.62725   0.80457   0.00000  Uiso   1.00
H1535  H     0.33570   0.56873   0.82562   0.00000  Uiso   1.00
H1536  H     0.37880   0.41119   0.70480   0.00000  Uiso   1.00
H1537  H     0.62000   0.58882   0.79330   0.00000  Uiso   1.00
H1538  H     0.35211   0.48731   0.59351   0.00000  Uiso   1.00
H1539  H     0.62977   0.42489   0.91883   0.00000  Uiso   1.00
H1540  H     0.49106   0.55052   0.62140   0.00000  Uiso   1.00
H1541  H     0.53045   0.54074   0.87477   0.00000  Uiso   1.00
H1542  H     0.63383   0.52836   0.94725   0.00000  Uiso   1.00
N1543  N     0.38093   0.50001   0.75001   0.00000  Uiso   1.00
N1544  N     0.61907   0.49999   0.74999   0.00000  Uiso   1.00
O1545  O     0.46179   0.56108   0.75000   0.00000  Uiso   1.00
O1546  O     0.62431   0.42699   0.95232   0.00000  Uiso   1.00
O1547  O     0.48208   0.52997   0.60169   0.00000  Uiso   1.00
O1548  O     0.53143   0.51514   0.89253   0.00000  Uiso   1.00
O1549  O     0.33819   0.50956   0.98873   0.00000  Uiso   1.00
O1550  O     0.63203   0.41483   0.53393   0.00000  Uiso   1.00
O1551  O     0.42469   0.46333   0.59898   0.00000  Uiso   1.00
O1552  O     0.55727   0.43973   0.90787   0.00000  Uiso   1.00
O1553  O     0.57738   0.62332   0.68721   0.00000  Uiso   1.00
O1554  O     0.42224   0.37350   0.81792   0.00000  Uiso   1.00
O1555  O     0.63868   0.43734   0.70395   0.00000  Uiso   1.00
O1556  O     0.53821   0.43892   0.74999   0.00000  Uiso   1.00
O1557  O     0.36386   0.55925   0.79888   0.00000  Uiso   1.00
O1558  O     0.39668   0.43535   0.71062   0.00000  Uiso   1.00
O1559  O     0.60193   0.56284   0.79327   0.00000  Uiso   1.00
O1560  O     0.53823   0.56107   0.75000   0.00000  Uiso   1.00
O1561  O     0.46177   0.43893   0.75000   0.00000  Uiso   1.00
O1562  O     0.43994   0.50001   0.81612   0.00000  Uiso   1.00
O1563  O     0.56006   0.49999   0.68387   0.00000  Uiso   1.00
O1564  O     0.51639   0.50000   0.81612   0.00000  Uiso   1.00
O1565  O     0.48361   0.50000   0.68388   0.00000  Uiso   1.00
O1566  O     0.35621   0.48814   0.56025   0.00000  Uiso   1.00
Zn1567 Zn    0.44896   0.50001   0.75000   0.00000  Uiso   1.00
Zn1568 Zn    0.55104   0.49999   0.75000   0.00000  Uiso   1.00
C1569  C     0.83353   0.57985   0.74928   0.00000  Uiso   1.00
C1570  C     0.79405   0.64468   0.78087   0.00000  Uiso   1.00
C1571  C     0.83292   0.37604   0.75264   0.00000  Uiso   1.00
C1572  C     0.83347   0.62402   0.74915   0.00000  Uiso   1.00
C1573  C     0.98456   0.46861   0.72819   0.00000  Uiso   1.00
C1574  C     0.68224   0.53057   0.77335   0.00000  Uiso   1.00
C1575  C     0.69870   0.46801   0.72954   0.00000  Uiso   1.00
C1576  C     0.96740   0.53117   0.77238   0.00000  Uiso   1.00
C1577  C     0.80361   0.50146   0.83783   0.00000  Uiso   1.00
C1578  C     0.86310   0.49886   0.66221   0.00000  Uiso   1.00
C1579  C     0.78577   0.50218   0.88848   0.00000  Uiso   1.00
C1580  C     0.83302   0.42018   0.75113   0.00000  Uiso   1.00
C1581  C     0.88019   0.48943   0.61260   0.00000  Uiso   1.00
C1582  C     0.71967   0.50203   0.96263   0.00000  Uiso   1.00
C1583  C     0.93015   0.44549   0.54880   0.00000  Uiso   1.00
C1584  C     0.73651   0.50213   0.91384   0.00000  Uiso   1.00
C1585  C     0.91925   0.46207   0.59349   0.00000  Uiso   1.00
C1586  C     0.81830   0.50064   0.91199   0.00000  Uiso   1.00
C1587  C     0.85051   0.49903   0.58737   0.00000  Uiso   1.00
C1588  C     0.80223   0.48719   0.95777   0.00000  Uiso   1.00
C1589  C     0.85759   0.47780   0.54558   0.00000  Uiso   1.00
C1590  C     0.75257   0.49161   0.98497   0.00000  Uiso   1.00
C1591  C     0.77256   0.47692   0.55341   0.00000  Uiso   1.00
C1592  C     0.90100   0.45605   0.52284   0.00000  Uiso   1.00
C1593  C     0.83539   0.47385   0.97811   0.00000  Uiso   1.00
C1594  C     0.82193   0.47832   0.52583   0.00000  Uiso   1.00
C1595  C     0.98497   0.54229   0.97008   0.00000  Uiso   1.00
C1596  C     0.94789   0.56636   0.50959   0.00000  Uiso   1.00
C1597  C     0.92050   0.59838   0.99167   0.00000  Uiso   1.00
C1598  C     0.94310   0.37493   0.54268   0.00000  Uiso   1.00
C1599  C     0.97589   0.34353   0.55423   0.00000  Uiso   1.00
C1600  C     0.68881   0.33519   0.51304   0.00000  Uiso   1.00
C1601  C     0.77131   0.42054   0.60026   0.00000  Uiso   1.00
C1602  C     0.88003   0.45352   0.95318   0.00000  Uiso   1.00
C1603  C     0.72962   0.39185   0.60266   0.00000  Uiso   1.00
C1604  C     0.74110   0.34628   0.61002   0.00000  Uiso   1.00
C1605  C     0.86354   0.40350   0.90680   0.00000  Uiso   1.00
C1606  C     0.89211   0.36360   0.90770   0.00000  Uiso   1.00
C1607  C     0.86578   0.65768   0.90148   0.00000  Uiso   1.00
C1608  C     0.73770   0.48560   0.53338   0.00000  Uiso   1.00
C1609  C     0.91301   0.44467   0.97579   0.00000  Uiso   1.00
C1610  C     0.87298   0.64532   0.71881   0.00000  Uiso   1.00
C1611  C     0.79376   0.35434   0.78387   0.00000  Uiso   1.00
C1612  C     0.87225   0.35530   0.72072   0.00000  Uiso   1.00
H1613  H     0.93973   0.45138   0.61420   0.00000  Uiso   1.00
H1614  H     0.67894   0.56553   0.95000   0.00000  Uiso   1.00
H1615  H     0.92203   0.54424   0.53251   0.00000  Uiso   1.00
H1616  H     0.96649   0.58240   0.53037   0.00000  Uiso   1.00
H1617  H     0.94566   0.62085   0.96796   0.00000  Uiso   1.00
H1618  H     0.89497   0.61615   0.52131   0.00000  Uiso   1.00
H1619  H     0.89979   0.58219   0.97288   0.00000  Uiso   1.00
H1620  H     0.93576   0.36385   0.51162   0.00000  Uiso   1.00
H1621  H     0.90826   0.37497   0.57267   0.00000  Uiso   1.00
H1622  H     0.98437   0.35562   0.58417   0.00000  Uiso   1.00
H1623  H     0.95631   0.64701   0.56513   0.00000  Uiso   1.00
H1624  H     0.71123   0.50420   0.89589   0.00000  Uiso   1.00
H1625  H     0.68046   0.65510   0.98351   0.00000  Uiso   1.00
H1626  H     0.71159   0.64575   0.52317   0.00000  Uiso   1.00
H1627  H     0.70929   0.36464   0.50179   0.00000  Uiso   1.00
H1628  H     0.78130   0.41609   0.63125   0.00000  Uiso   1.00
H1629  H     0.80350   0.41007   0.57055   0.00000  Uiso   1.00
H1630  H     0.69670   0.40197   0.63132   0.00000  Uiso   1.00
H1631  H     0.72280   0.39439   0.56968   0.00000  Uiso   1.00
H1632  H     0.77281   0.33503   0.58049   0.00000  Uiso   1.00
H1633  H     0.71002   0.65943   0.61255   0.00000  Uiso   1.00
H1634  H     0.74861   0.34330   0.64267   0.00000  Uiso   1.00
H1635  H     0.90168   0.37288   0.69683   0.00000  Uiso   1.00
H1636  H     0.85644   0.40403   0.87378   0.00000  Uiso   1.00
H1637  H     0.82766   0.40259   0.93514   0.00000  Uiso   1.00
H1638  H     0.92779   0.36475   0.87942   0.00000  Uiso   1.00
H1639  H     0.89775   0.36165   0.94135   0.00000  Uiso   1.00
H1640  H     0.83031   0.65547   0.92990   0.00000  Uiso   1.00
H1641  H     0.88737   0.62939   0.90228   0.00000  Uiso   1.00
H1642  H     0.86039   0.65840   0.86764   0.00000  Uiso   1.00
H1643  H     0.93516   0.64342   0.66856   0.00000  Uiso   1.00
H1644  H     0.76516   0.40179   0.82460   0.00000  Uiso   1.00
H1645  H     0.94784   0.44900   0.69232   0.00000  Uiso   1.00
H1646  H     0.76436   0.62725   0.80457   0.00000  Uiso   1.00
H1647  H     0.66903   0.56873   0.82562   0.00000  Uiso   1.00
H1648  H     0.71213   0.41119   0.70480   0.00000  Uiso   1.00
H1649  H     0.95333   0.58882   0.79330   0.00000  Uiso   1.00
H1650  H     0.68545   0.48731   0.59351   0.00000  Uiso   1.00
H1651  H     0.96310   0.42489   0.91883   0.00000  Uiso   1.00
H1652  H     0.82439   0.55052   0.62140   0.00000  Uiso   1.00
H1653  H     0.86379   0.54074   0.87477   0.00000  Uiso   1.00
H1654  H     0.96716   0.52836   0.94725   0.00000  Uiso   1.00
N1655  N     0.71426   0.50001   0.75001   0.00000  Uiso   1.00
N1656  N     0.95241   0.49999   0.74999   0.00000  Uiso   1.00
O1657  O     0.79512   0.56108   0.75000   0.00000  Uiso   1.00
O1658  O     0.95764   0.42699   0.95232   0.00000  Uiso   1.00
O1659  O     0.81542   0.52997   0.60169   0.00000  Uiso   1.00
O1660  O     0.86476   0.51514   0.89253   0.00000  Uiso   1.00
O1661  O     0.67152   0.50956   0.98873   0.00000  Uiso   1.00
O1662  O     0.96536   0.41483   0.53393   0.00000  Uiso   1.00
O1663  O     0.75803   0.46333   0.59898   0.00000  Uiso   1.00
O1664  O     0.89061   0.43973   0.90787   0.00000  Uiso   1.00
O1665  O     0.91071   0.62332   0.68721   0.00000  Uiso   1.00
O1666  O     0.75557   0.37350   0.81792   0.00000  Uiso   1.00
O1667  O     0.97202   0.43734   0.70395   0.00000  Uiso   1.00
O1668  O     0.87154   0.43892   0.74999   0.00000  Uiso   1.00
O1669  O     0.69719   0.55925   0.79888   0.00000  Uiso   1.00
O1670  O     0.73001   0.43535   0.71062   0.00000  Uiso   1.00
O1671  O     0.93526   0.56284   0.79327   0.00000  Uiso   1.00
O1672  O     0.87157   0.56107   0.75000   0.00000  Uiso   1.00
O1673  O     0.79510   0.43893   0.75000   0.00000  Uiso   1.00
O1674  O     0.77328   0.50001   0.81612   0.00000  Uiso   1.00
O1675  O     0.89339   0.49999   0.68387   0.00000  Uiso   1.00
O1676  O     0.84972   0.50000   0.81612   0.00000  Uiso   1.00
O1677  O     0.81695   0.50000   0.68388   0.00000  Uiso   1.00
O1678  O     0.68954   0.48814   0.56025   0.00000  Uiso   1.00
Zn1679 Zn    0.78229   0.50001   0.75000   0.00000  Uiso   1.00
Zn1680 Zn    0.88438   0.49999   0.75000   0.00000  Uiso   1.00
C1681  C     0.16686   0.91318   0.74928   0.00000  Uiso   1.00
C1682  C     0.12738   0.97802   0.78087   0.00000  Uiso   1.00
C1683  C     0.16625   0.70937   0.75264   0.00000  Uiso   1.00
C1684  C     0.16680   0.95735   0.74915   0.00000  Uiso   1.00
C1685  C     0.31789   0.80195   0.72819   0.00000  Uiso   1.00
C1686  C     0.01557   0.86391   0.77335   0.00000  Uiso   1.00
C1687  C     0.03203   0.80134   0.72954   0.00000  Uiso   1.00
C1688  C     0.30073   0.86450   0.77238   0.00000  Uiso   1.00
C1689  C     0.13694   0.83480   0.83783   0.00000  Uiso   1.00
C1690  C     0.19643   0.83220   0.66221   0.00000  Uiso   1.00
C1691  C     0.11910   0.83552   0.88848   0.00000  Uiso   1.00
C1692  C     0.16635   0.75352   0.75113   0.00000  Uiso   1.00
C1693  C     0.21352   0.82277   0.61260   0.00000  Uiso   1.00
C1694  C     0.05301   0.83537   0.96263   0.00000  Uiso   1.00
C1695  C     0.26349   0.77882   0.54880   0.00000  Uiso   1.00
C1696  C     0.06985   0.83547   0.91384   0.00000  Uiso   1.00
C1697  C     0.25259   0.79540   0.59349   0.00000  Uiso   1.00
C1698  C     0.15163   0.83397   0.91199   0.00000  Uiso   1.00
C1699  C     0.18384   0.83237   0.58737   0.00000  Uiso   1.00
C1700  C     0.13556   0.82053   0.95777   0.00000  Uiso   1.00
C1701  C     0.19092   0.81113   0.54558   0.00000  Uiso   1.00
C1702  C     0.08590   0.82495   0.98497   0.00000  Uiso   1.00
C1703  C     0.10589   0.81025   0.55341   0.00000  Uiso   1.00
C1704  C     0.23434   0.78939   0.52284   0.00000  Uiso   1.00
C1705  C     0.16873   0.80719   0.97811   0.00000  Uiso   1.00
C1706  C     0.15527   0.81165   0.52583   0.00000  Uiso   1.00
C1707  C     0.31830   0.87563   0.97008   0.00000  Uiso   1.00
C1708  C     0.28123   0.89969   0.50959   0.00000  Uiso   1.00
C1709  C     0.25383   0.93171   0.99167   0.00000  Uiso   1.00
C1710  C     0.27643   0.70826   0.54268   0.00000  Uiso   1.00
C1711  C     0.30923   0.67686   0.55423   0.00000  Uiso   1.00
C1712  C     0.02214   0.66852   0.51304   0.00000  Uiso   1.00
C1713  C     0.10464   0.75387   0.60026   0.00000  Uiso   1.00
C1714  C     0.21336   0.78685   0.95318   0.00000  Uiso   1.00
C1715  C     0.06295   0.72519   0.60266   0.00000  Uiso   1.00
C1716  C     0.07443   0.67961   0.61002   0.00000  Uiso   1.00
C1717  C     0.19687   0.73683   0.90680   0.00000  Uiso   1.00
C1718  C     0.22544   0.69694   0.90770   0.00000  Uiso   1.00
C1719  C     0.19911   0.99101   0.90148   0.00000  Uiso   1.00
C1720  C     0.07103   0.81893   0.53338   0.00000  Uiso   1.00
C1721  C     0.24634   0.77801   0.97579   0.00000  Uiso   1.00
C1722  C     0.20632   0.97865   0.71881   0.00000  Uiso   1.00
C1723  C     0.12709   0.68767   0.78387   0.00000  Uiso   1.00
C1724  C     0.20558   0.68863   0.72072   0.00000  Uiso   1.00
H1725  H     0.27306   0.78471   0.61420   0.00000  Uiso   1.00
H1726  H     0.01227   0.89886   0.95000   0.00000  Uiso   1.00
H1727  H     0.25537   0.87757   0.53251   0.00000  Uiso   1.00
H1728  H     0.29982   0.91573   0.53037   0.00000  Uiso   1.00
H1729  H     0.27900   0.95418   0.96796   0.00000  Uiso   1.00
H1730  H     0.22830   0.94949   0.52131   0.00000  Uiso   1.00
H1731  H     0.23313   0.91552   0.97288   0.00000  Uiso   1.00
H1732  H     0.26910   0.69719   0.51162   0.00000  Uiso   1.00
H1733  H     0.24160   0.70830   0.57267   0.00000  Uiso   1.00
H1734  H     0.31770   0.68895   0.58417   0.00000  Uiso   1.00
H1735  H     0.28965   0.98034   0.56513   0.00000  Uiso   1.00
H1736  H     0.04456   0.83753   0.89589   0.00000  Uiso   1.00
H1737  H     0.01380   0.98843   0.98351   0.00000  Uiso   1.00
H1738  H     0.04493   0.97909   0.52317   0.00000  Uiso   1.00
H1739  H     0.04263   0.69797   0.50179   0.00000  Uiso   1.00
H1740  H     0.11463   0.74943   0.63125   0.00000  Uiso   1.00
H1741  H     0.13684   0.74340   0.57055   0.00000  Uiso   1.00
H1742  H     0.03003   0.73530   0.63132   0.00000  Uiso   1.00
H1743  H     0.05614   0.72772   0.56968   0.00000  Uiso   1.00
H1744  H     0.10614   0.66836   0.58049   0.00000  Uiso   1.00
H1745  H     0.04336   0.99277   0.61255   0.00000  Uiso   1.00
H1746  H     0.08194   0.67664   0.64267   0.00000  Uiso   1.00
H1747  H     0.23501   0.70621   0.69683   0.00000  Uiso   1.00
H1748  H     0.18978   0.73737   0.87378   0.00000  Uiso   1.00
H1749  H     0.16100   0.73593   0.93514   0.00000  Uiso   1.00
H1750  H     0.26112   0.69808   0.87942   0.00000  Uiso   1.00
H1751  H     0.23108   0.69498   0.94135   0.00000  Uiso   1.00
H1752  H     0.16365   0.98880   0.92990   0.00000  Uiso   1.00
H1753  H     0.22071   0.96272   0.90228   0.00000  Uiso   1.00
H1754  H     0.19373   0.99173   0.86764   0.00000  Uiso   1.00
H1755  H     0.26850   0.97676   0.66856   0.00000  Uiso   1.00
H1756  H     0.09849   0.73512   0.82460   0.00000  Uiso   1.00
H1757  H     0.28117   0.78234   0.69232   0.00000  Uiso   1.00
H1758  H     0.09769   0.96058   0.80457   0.00000  Uiso   1.00
H1759  H     0.00236   0.90206   0.82562   0.00000  Uiso   1.00
H1760  H     0.04546   0.74452   0.70480   0.00000  Uiso   1.00
H1761  H     0.28667   0.92215   0.79330   0.00000  Uiso   1.00
H1762  H     0.01878   0.82065   0.59351   0.00000  Uiso   1.00
H1763  H     0.29643   0.75822   0.91883   0.00000  Uiso   1.00
H1764  H     0.15772   0.88385   0.62140   0.00000  Uiso   1.00
H1765  H     0.19712   0.87408   0.87477   0.00000  Uiso   1.00
H1766  H     0.30049   0.86169   0.94725   0.00000  Uiso   1.00
N1767  N     0.04759   0.83334   0.75001   0.00000  Uiso   1.00
N1768  N     0.28574   0.83332   0.74999   0.00000  Uiso   1.00
O1769  O     0.12846   0.89442   0.75000   0.00000  Uiso   1.00
O1770  O     0.29098   0.76033   0.95232   0.00000  Uiso   1.00
O1771  O     0.14875   0.86331   0.60169   0.00000  Uiso   1.00
O1772  O     0.19810   0.84847   0.89253   0.00000  Uiso   1.00
O1773  O     0.00485   0.84289   0.98873   0.00000  Uiso   1.00
O1774  O     0.29869   0.74816   0.53393   0.00000  Uiso   1.00
O1775  O     0.09136   0.79666   0.59898   0.00000  Uiso   1.00
O1776  O     0.22394   0.77306   0.90787   0.00000  Uiso   1.00
O1777  O     0.24404   0.95665   0.68721   0.00000  Uiso   1.00
O1778  O     0.08890   0.70683   0.81792   0.00000  Uiso   1.00
O1779  O     0.30535   0.77067   0.70395   0.00000  Uiso   1.00
O1780  O     0.20488   0.77225   0.74999   0.00000  Uiso   1.00
O1781  O     0.03053   0.89259   0.79888   0.00000  Uiso   1.00
O1782  O     0.06334   0.76868   0.71062   0.00000  Uiso   1.00
O1783  O     0.26859   0.89618   0.79327   0.00000  Uiso   1.00
O1784  O     0.20490   0.89441   0.75000   0.00000  Uiso   1.00
O1785  O     0.12843   0.77226   0.75000   0.00000  Uiso   1.00
O1786  O     0.10661   0.83334   0.81612   0.00000  Uiso   1.00
O1787  O     0.22672   0.83333   0.68387   0.00000  Uiso   1.00
O1788  O     0.18305   0.83333   0.81612   0.00000  Uiso   1.00
O1789  O     0.15028   0.83334   0.68388   0.00000  Uiso   1.00
O1790  O     0.02288   0.82147   0.56025   0.00000  Uiso   1.00
Zn1791 Zn    0.11562   0.83334   0.75000   0.00000  Uiso   1.00
Zn1792 Zn    0.21771   0.83333   0.75000   0.00000  Uiso   1.00
C1793  C     0.50020   0.91318   0.74928   0.00000  Uiso   1.00
C1794  C     0.46071   0.97802   0.78087   0.00000  Uiso   1.00
C1795  C     0.49959   0.70937   0.75264   0.00000  Uiso   1.00
C1796  C     0.50014   0.95735   0.74915   0.00000  Uiso   1.00
C1797  C     0.65122   0.80195   0.72819   0.00000  Uiso   1.00
C1798  C     0.34891   0.86391   0.77335   0.00000  Uiso   1.00
C1799  C     0.36536   0.80134   0.72954   0.00000  Uiso   1.00
C1800  C     0.63406   0.86450   0.77238   0.00000  Uiso   1.00
C1801  C     0.47028   0.83480   0.83783   0.00000  Uiso   1.00
C1802  C     0.52977   0.83220   0.66221   0.00000  Uiso   1.00
C1803  C     0.45243   0.83552   0.88848   0.00000  Uiso   1.00
C1804  C     0.49969   0.75352   0.75113   0.00000  Uiso   1.00
C1805  C     0.54685   0.82277   0.61260   0.00000  Uiso   1.00
C1806  C     0.38634   0.83537   0.96263   0.00000  Uiso   1.00
C1807  C     0.59682   0.77882   0.54880   0.00000  Uiso   1.00
C1808  C     0.40318   0.83547   0.91384   0.00000  Uiso   1.00
C1809  C     0.58592   0.79540   0.59349   0.00000  Uiso   1.00
C1810  C     0.48496   0.83397   0.91199   0.00000  Uiso   1.00
C1811  C     0.51717   0.83237   0.58737   0.00000  Uiso   1.00
C1812  C     0.46889   0.82053   0.95777   0.00000  Uiso   1.00
C1813  C     0.52425   0.81113   0.54558   0.00000  Uiso   1.00
C1814  C     0.41923   0.82495   0.98497   0.00000  Uiso   1.00
C1815  C     0.43923   0.81025   0.55341   0.00000  Uiso   1.00
C1816  C     0.56767   0.78939   0.52284   0.00000  Uiso   1.00
C1817  C     0.50206   0.80719   0.97811   0.00000  Uiso   1.00
C1818  C     0.48860   0.81165   0.52583   0.00000  Uiso   1.00
C1819  C     0.65163   0.87563   0.97008   0.00000  Uiso   1.00
C1820  C     0.61456   0.89969   0.50959   0.00000  Uiso   1.00
C1821  C     0.58716   0.93171   0.99167   0.00000  Uiso   1.00
C1822  C     0.60976   0.70826   0.54268   0.00000  Uiso   1.00
C1823  C     0.64256   0.67686   0.55423   0.00000  Uiso   1.00
C1824  C     0.35547   0.66852   0.51304   0.00000  Uiso   1.00
C1825  C     0.43797   0.75387   0.60026   0.00000  Uiso   1.00
C1826  C     0.54669   0.78685   0.95318   0.00000  Uiso   1.00
C1827  C     0.39629   0.72519   0.60266   0.00000  Uiso   1.00
C1828  C     0.40776   0.67961   0.61002   0.00000  Uiso   1.00
C1829  C     0.53020   0.73683   0.90680   0.00000  Uiso   1.00
C1830  C     0.55878   0.69694   0.90770   0.00000  Uiso   1.00
C1831  C     0.53244   0.99101   0.90148   0.00000  Uiso   1.00
C1832  C     0.40436   0.81893   0.53338   0.00000  Uiso   1.00
C1833  C     0.57967   0.77801   0.97579   0.00000  Uiso   1.00
C1834  C     0.53965   0.97865   0.71881   0.00000  Uiso   1.00
C1835  C     0.46043   0.68767   0.78387   0.00000  Uiso   1.00
C1836  C     0.53891   0.68863   0.72072   0.00000  Uiso   1.00
H1837  H     0.60640   0.78471   0.61420   0.00000  Uiso   1.00
H1838  H     0.34560   0.89886   0.95000   0.00000  Uiso   1.00
H1839  H     0.58870   0.87757   0.53251   0.00000  Uiso   1.00
H1840  H     0.63316   0.91573   0.53037   0.00000  Uiso   1.00
H1841  H     0.61233   0.95418   0.96796   0.00000  Uiso   1.00
H1842  H     0.56164   0.94949   0.52131   0.00000  Uiso   1.00
H1843  H     0.56646   0.91552   0.97288   0.00000  Uiso   1.00
H1844  H     0.60243   0.69719   0.51162   0.00000  Uiso   1.00
H1845  H     0.57493   0.70830   0.57267   0.00000  Uiso   1.00
H1846  H     0.65104   0.68895   0.58417   0.00000  Uiso   1.00
H1847  H     0.62298   0.98034   0.56513   0.00000  Uiso   1.00
H1848  H     0.37789   0.83753   0.89589   0.00000  Uiso   1.00
H1849  H     0.34713   0.98843   0.98351   0.00000  Uiso   1.00
H1850  H     0.37826   0.97909   0.52317   0.00000  Uiso   1.00
H1851  H     0.37596   0.69797   0.50179   0.00000  Uiso   1.00
H1852  H     0.44797   0.74943   0.63125   0.00000  Uiso   1.00
H1853  H     0.47017   0.74340   0.57055   0.00000  Uiso   1.00
H1854  H     0.36336   0.73530   0.63132   0.00000  Uiso   1.00
H1855  H     0.38947   0.72772   0.56968   0.00000  Uiso   1.00
H1856  H     0.43947   0.66836   0.58049   0.00000  Uiso   1.00
H1857  H     0.37669   0.99277   0.61255   0.00000  Uiso   1.00
H1858  H     0.41528   0.67664   0.64267   0.00000  Uiso   1.00
H1859  H     0.56835   0.70621   0.69683   0.00000  Uiso   1.00
H1860  H     0.52311   0.73737   0.87378   0.00000  Uiso   1.00
H1861  H     0.49433   0.73593   0.93514   0.00000  Uiso   1.00
H1862  H     0.59446   0.69808   0.87942   0.00000  Uiso   1.00
H1863  H     0.56442   0.69498   0.94135   0.00000  Uiso   1.00
H1864  H     0.49698   0.98880   0.92990   0.00000  Uiso   1.00
H1865  H     0.55404   0.96272   0.90228   0.00000  Uiso   1.00
H1866  H     0.52706   0.99173   0.86764   0.00000  Uiso   1.00
H1867  H     0.60183   0.97676   0.66856   0.00000  Uiso   1.00
H1868  H     0.43182   0.73512   0.82460   0.00000  Uiso   1.00
H1869  H     0.61450   0.78234   0.69232   0.00000  Uiso   1.00
H1870  H     0.43102   0.96058   0.80457   0.00000  Uiso   1.00
H1871  H     0.33570   0.90206   0.82562   0.00000  Uiso   1.00
H1872  H     0.37880   0.74452   0.70480   0.00000  Uiso   1.00
H1873  H     0.62000   0.92215   0.79330   0.00000  Uiso   1.00
H1874  H     0.35211   0.82065   0.59351   0.00000  Uiso   1.00
H1875  H     0.62977   0.75822   0.91883   0.00000  Uiso   1.00
H1876  H     0.49106   0.88385   0.62140   0.00000  Uiso   1.00
H1877  H     0.53045   0.87408   0.87477   0.00000  Uiso   1.00
H1878  H     0.63383   0.86169   0.94725   0.00000  Uiso   1.00
N1879  N     0.38093   0.83334   0.75001   0.00000  Uiso   1.00
N1880  N     0.61907   0.83332   0.74999   0.00000  Uiso   1.00
O1881  O     0.46179   0.89442   0.75000   0.00000  Uiso   1.00
O1882  O     0.62431   0.76033   0.95232   0.00000  Uiso   1.00
O1883  O     0.48208   0.86331   0.60169   0.00000  Uiso   1.00
O1884  O     0.53143   0.84847   0.89253   0.00000  Uiso   1.00
O1885  O     0.33819   0.84289   0.98873   0.00000  Uiso   1.00
O1886  O     0.63203   0.74816   0.53393   0.00000  Uiso   1.00
O1887  O     0.42469   0.79666   0.59898   0.00000  Uiso   1.00
O1888  O     0.55727   0.77306   0.90787   0.00000  Uiso   1.00
O1889  O     0.57738   0.95665   0.68721   0.00000  Uiso   1.00
O1890  O     0.42224   0.70683   0.81792   0.00000  Uiso   1.00
O1891  O     0.63868   0.77067   0.70395   0.00000  Uiso   1.00
O1892  O     0.53821   0.77225   0.74999   0.00000  Uiso   1.00
O1893  O     0.36386   0.89259   0.79888   0.00000  Uiso   1.00
O1894  O     0.39668   0.76868   0.71062   0.00000  Uiso   1.00
O1895  O     0.60193   0.89618   0.79327   0.00000  Uiso   1.00
O1896  O     0.53823   0.89441   0.75000   0.00000  Uiso   1.00
O1897  O     0.46177   0.77226   0.75000   0.00000  Uiso   1.00
O1898  O     0.43994   0.83334   0.81612   0.00000  Uiso   1.00
O1899  O     0.56006   0.83333   0.68387   0.00000  Uiso   1.00
O1900  O     0.51639   0.83333   0.81612   0.00000  Uiso   1.00
O1901  O     0.48361   0.83334   0.68388   0.00000  Uiso   1.00
O1902  O     0.35621   0.82147   0.56025   0.00000  Uiso   1.00
Zn1903 Zn    0.44896   0.83334   0.75000   0.00000  Uiso   1.00
Zn1904 Zn    0.55104   0.83333   0.75000   0.00000  Uiso   1.00
C1905  C     0.83353   0.91318   0.74928   0.00000  Uiso   1.00
C1906  C     0.79405   0.97802   0.78087   0.00000  Uiso   1.00
C1907  C     0.83292   0.70937   0.75264   0.00000  Uiso   1.00
C1908  C     0.83347   0.95735   0.74915   0.00000  Uiso   1.00
C1909  C     0.98456   0.80195   0.72819   0.00000  Uiso   1.00
C1910  C     0.68224   0.86391   0.77335   0.00000  Uiso   1.00
C1911  C     0.69870   0.80134   0.72954   0.00000  Uiso   1.00
C1912  C     0.96740   0.86450   0.77238   0.00000  Uiso   1.00
C1913  C     0.80361   0.83480   0.83783   0.00000  Uiso   1.00
C1914  C     0.86310   0.83220   0.66221   0.00000  Uiso   1.00
C1915  C     0.78577   0.83552   0.88848   0.00000  Uiso   1.00
C1916  C     0.83302   0.75352   0.75113   0.00000  Uiso   1.00
C1917  C     0.88019   0.82277   0.61260   0.00000  Uiso   1.00
C1918  C     0.71967   0.83537   0.96263   0.00000  Uiso   1.00
C1919  C     0.93015   0.77882   0.54880   0.00000  Uiso   1.00
C1920  C     0.73651   0.83547   0.91384   0.00000  Uiso   1.00
C1921  C     0.91925   0.79540   0.59349   0.00000  Uiso   1.00
C1922  C     0.81830   0.83397   0.91199   0.00000  Uiso   1.00
C1923  C     0.85051   0.83237   0.58737   0.00000  Uiso   1.00
C1924  C     0.80223   0.82053   0.95777   0.00000  Uiso   1.00
C1925  C     0.85759   0.81113   0.54558   0.00000  Uiso   1.00
C1926  C     0.75257   0.82495   0.98497   0.00000  Uiso   1.00
C1927  C     0.77256   0.81025   0.55341   0.00000  Uiso   1.00
C1928  C     0.90100   0.78939   0.52284   0.00000  Uiso   1.00
C1929  C     0.83539   0.80719   0.97811   0.00000  Uiso   1.00
C1930  C     0.82193   0.81165   0.52583   0.00000  Uiso   1.00
C1931  C     0.98497   0.87563   0.97008   0.00000  Uiso   1.00
C1932  C     0.94789   0.89969   0.50959   0.00000  Uiso   1.00
C1933  C     0.92050   0.93171   0.99167   0.00000  Uiso   1.00
C1934  C     0.94310   0.70826   0.54268   0.00000  Uiso   1.00
C1935  C     0.97589   0.67686   0.55423   0.00000  Uiso   1.00
C1936  C     0.68881   0.66852   0.51304   0.00000  Uiso   1.00
C1937  C     0.77131   0.75387   0.60026   0.00000  Uiso   1.00
C1938  C     0.88003   0.78685   0.95318   0.00000  Uiso   1.00
C1939  C     0.72962   0.72519   0.60266   0.00000  Uiso   1.00
C1940  C     0.74110   0.67961   0.61002   0.00000  Uiso   1.00
C1941  C     0.86354   0.73683   0.90680   0.00000  Uiso   1.00
C1942  C     0.89211   0.69694   0.90770   0.00000  Uiso   1.00
C1943  C     0.86578   0.99101   0.90148   0.00000  Uiso   1.00
C1944  C     0.73770   0.81893   0.53338   0.00000  Uiso   1.00
C1945  C     0.91301   0.77801   0.97579   0.00000  Uiso   1.00
C1946  C     0.87298   0.97865   0.71881   0.00000  Uiso   1.00
C1947  C     0.79376   0.68767   0.78387   0.00000  Uiso   1.00
C1948  C     0.87225   0.68863   0.72072   0.00000  Uiso   1.00
H1949  H     0.93973   0.78471   0.61420   0.00000  Uiso   1.00
H1950  H     0.67894   0.89886   0.95000   0.00000  Uiso   1.00
H1951  H     0.92203   0.87757   0.53251   0.00000  Uiso   1.00
H1952  H     0.96649   0.91573   0.53037   0.00000  Uiso   1.00
H1953  H     0.94566   0.95418   0.96796   0.00000  Uiso   1.00
H1954  H     0.89497   0.94949   0.52131   0.00000  Uiso   1.00
H1955  H     0.89979   0.91552   0.97288   0.00000  Uiso   1.00
H1956  H     0.93576   0.69719   0.51162   0.00000  Uiso   1.00
H1957  H     0.90826   0.70830   0.57267   0.00000  Uiso   1.00
H1958  H     0.98437   0.68895   0.58417   0.00000  Uiso   1.00
H1959  H     0.95631   0.98034   0.56513   0.00000  Uiso   1.00
H1960  H     0.71123   0.83753   0.89589   0.00000  Uiso   1.00
H1961  H     0.68046   0.98843   0.98351   0.00000  Uiso   1.00
H1962  H     0.71159   0.97909   0.52317   0.00000  Uiso   1.00
H1963  H     0.70929   0.69797   0.50179   0.00000  Uiso   1.00
H1964  H     0.78130   0.74943   0.63125   0.00000  Uiso   1.00
H1965  H     0.80350   0.74340   0.57055   0.00000  Uiso   1.00
H1966  H     0.69670   0.73530   0.63132   0.00000  Uiso   1.00
H1967  H     0.72280   0.72772   0.56968   0.00000  Uiso   1.00
H1968  H     0.77281   0.66836   0.58049   0.00000  Uiso   1.00
H1969  H     0.71002   0.99277   0.61255   0.00000  Uiso   1.00
H1970  H     0.74861   0.67664   0.64267   0.00000  Uiso   1.00
H1971  H     0.90168   0.70621   0.69683   0.00000  Uiso   1.00
H1972  H     0.85644   0.73737   0.87378   0.00000  Uiso   1.00
H1973  H     0.82766   0.73593   0.93514   0.00000  Uiso   1.00
H1974  H     0.92779   0.69808   0.87942   0.00000  Uiso   1.00
H1975  H     0.89775   0.69498   0.94135   0.00000  Uiso   1.00
H1976  H     0.83031   0.98880   0.92990   0.00000  Uiso   1.00
H1977  H     0.88737   0.96272   0.90228   0.00000  Uiso   1.00
H1978  H     0.86039   0.99173   0.86764   0.00000  Uiso   1.00
H1979  H     0.93516   0.97676   0.66856   0.00000  Uiso   1.00
H1980  H     0.76516   0.73512   0.82460   0.00000  Uiso   1.00
H1981  H     0.94784   0.78234   0.69232   0.00000  Uiso   1.00
H1982  H     0.76436   0.96058   0.80457   0.00000  Uiso   1.00
H1983  H     0.66903   0.90206   0.82562   0.00000  Uiso   1.00
H1984  H     0.71213   0.74452   0.70480   0.00000  Uiso   1.00
H1985  H     0.95333   0.92215   0.79330   0.00000  Uiso   1.00
H1986  H     0.68545   0.82065   0.59351   0.00000  Uiso   1.00
H1987  H     0.96310   0.75822   0.91883   0.00000  Uiso   1.00
H1988  H     0.82439   0.88385   0.62140   0.00000  Uiso   1.00
H1989  H     0.86379   0.87408   0.87477   0.00000  Uiso   1.00
H1990  H     0.96716   0.86169   0.94725   0.00000  Uiso   1.00
N1991  N     0.71426   0.83334   0.75001   0.00000  Uiso   1.00
N1992  N     0.95241   0.83332   0.74999   0.00000  Uiso   1.00
O1993  O     0.79512   0.89442   0.75000   0.00000  Uiso   1.00
O1994  O     0.95764   0.76033   0.95232   0.00000  Uiso   1.00
O1995  O     0.81542   0.86331   0.60169   0.00000  Uiso   1.00
O1996  O     0.86476   0.84847   0.89253   0.00000  Uiso   1.00
O1997  O     0.67152   0.84289   0.98873   0.00000  Uiso   1.00
O1998  O     0.96536   0.74816   0.53393   0.00000  Uiso   1.00
O1999  O     0.75803   0.79666   0.59898   0.00000  Uiso   1.00
O2000  O     0.89061   0.77306   0.90787   0.00000  Uiso   1.00
O2001  O     0.91071   0.95665   0.68721   0.00000  Uiso   1.00
O2002  O     0.75557   0.70683   0.81792   0.00000  Uiso   1.00
O2003  O     0.97202   0.77067   0.70395   0.00000  Uiso   1.00
O2004  O     0.87154   0.77225   0.74999   0.00000  Uiso   1.00
O2005  O     0.69719   0.89259   0.79888   0.00000  Uiso   1.00
O2006  O     0.73001   0.76868   0.71062   0.00000  Uiso   1.00
O2007  O     0.93526   0.89618   0.79327   0.00000  Uiso   1.00
O2008  O     0.87157   0.89441   0.75000   0.00000  Uiso   1.00
O2009  O     0.79510   0.77226   0.75000   0.00000  Uiso   1.00
O2010  O     0.77328   0.83334   0.81612   0.00000  Uiso   1.00
O2011  O     0.89339   0.83333   0.68387   0.00000  Uiso   1.00
O2012  O     0.84972   0.83333   0.81612   0.00000  Uiso   1.00
O2013  O     0.81695   0.83334   0.68388   0.00000  Uiso   1.00
O2014  O     0.68954   0.82147   0.56025   0.00000  Uiso   1.00
Zn2015 Zn    0.78229   0.83334   0.75000   0.00000  Uiso   1.00
Zn2016 Zn    0.88438   0.83333   0.75000   0.00000  Uiso   1.00
loop_
_geom_bond_atom_site_label_1
_geom_bond_atom_site_label_2
_geom_bond_distance
_geom_bond_site_symmetry_2
_ccdc_geom_bond_type
C1     O104    1.285   .     A
C1     O89     1.286   .     A
C1     C4      1.408   .     S
C2     C4      1.393   .     A
C2     H78     1.085   .     S
C2     C379    1.373   .     S
C3     C43     1.409   .     A
C3     C12     1.408   .     S
C3     C44     1.395   .     A
C4     C42     1.399   .     A
C5     N88     1.377   .     A
C5     O99     1.373   .     S
C5     C119    1.429   .     S
C6     O101    1.378   .     S
C6     N87     1.369   .     A
C6     C232    1.445   1_455 S
C7     N87     1.363   .     A
C7     O102    1.376   .     S
C7     C229    1.429   1_455 S
C8     N88     1.371   .     A
C8     O103    1.377   .     S
C8     C118    1.445   .     S
C9     O108    1.297   .     A
C9     O106    1.302   .     A
C9     C11     1.462   .     S
C10    O109    1.298   .     A
C10    O107    1.299   .     A
C10    C13     1.461   .     S
C11    C18     1.401   .     A
C11    C16     1.396   .     A
C12    O105    1.286   .     A
C12    O100    1.285   .     A
C13    C19     1.403   .     A
C13    C17     1.400   .     A
C14    O93     1.392   .     S
C14    C16     1.408   .     A
C14    C22     1.422   .     A
C15    O94     1.382   .     S
C15    C24     1.414   .     A
C15    C17     1.400   .     A
C16    H56     1.083   .     S
C17    H45     1.083   .     S
C18    O92     1.382   .     S
C18    C20     1.392   .     A
C19    C21     1.401   .     A
C19    O91     1.385   .     S
C20    C25     1.410   .     A
C20    C22     1.424   .     A
C21    C26     1.398   .     A
C21    C24     1.410   .     A
C22    C1048   1.414   .     S
C23    C26     1.415   .     A
C23    C40     1.410   .     A
C23    O95     1.389   .     S
C24    C1049   1.412   1_554 S
C25    C34     1.428   .     A
C25    C1034   1.389   .     S
C26    C1033   1.389   1_554 S
C27    H86     1.112   .     S
C27    C1036   1.524   .     S
C27    H158    1.117   .     S
C27    O205    1.419   .     S
C28    H47     1.103   .     S
C28    H48     1.109   .     S
C28    C1035   1.524   1_554 S
C28    C1037   1.527   1_554 S
C29    H49     1.110   .     S
C29    H51     1.111   .     S
C29    C1036   1.527   .     S
C29    H1058   1.110   .     S
C30    H53     1.119   .     S
C30    H52     1.112   .     S
C30    O94     1.420   .     S
C30    C31     1.524   .     S
C31    H54     1.108   .     S
C31    C144    1.528   .     S
C31    H727    1.109   1_545 S
C32    H59     1.111   .     S
C32    C255    1.528   1_455 S
C32    H1737   1.110   1_544 S
C32    H730    1.110   1_545 S
C33    O95     1.423   .     S
C33    H60     1.107   .     S
C33    C35     1.526   .     S
C33    H61     1.114   .     S
C34    O96     1.388   .     S
C34    C41     1.419   .     A
C35    C36     1.528   .     S
C35    H62     1.108   .     S
C35    H63     1.109   .     S
C36    H66     1.111   .     S
C36    H64     1.111   .     S
C36    H737    1.110   1_545 S
C37    H69     1.116   .     S
C37    H68     1.111   .     S
C37    O96     1.419   .     S
C37    C38     1.533   .     S
C38    H70     1.112   .     S
C38    H71     1.111   .     S
C38    C711    1.527   1_545 S
C39    H72     1.111   .     S
C39    H73     1.111   .     S
C39    H74     1.111   .     S
C39    C374    1.527   .     S
C40    O110    1.380   .     S
C40    C1030   1.414   1_554 S
C41    O90     1.384   .     S
C41    C1032   1.412   .     S
C42    O97     1.383   .     S
C42    C380    1.382   .     S
C43    O98     1.382   .     S
C43    C674    1.373   1_545 S
C44    H67     1.085   .     S
C44    C714    1.382   1_545 S
H46    C251    1.117   1_455 S
H50    C1037   1.110   1_554 S
H55    C367    1.109   .     S
H57    C1376   1.110   .     S
H58    C368    1.110   .     S
H65    C372    1.110   .     S
H75    O97     0.992   .     S
H76    O98     0.990   .     S
H77    O99     0.983   .     S
H79    O101    0.990   .     S
H80    O102    0.990   .     S
H81    O103    0.990   .     S
H82    O110    0.990   .     S
H83    O90     0.989   .     S
H84    O91     0.991   .     S
H85    O92     0.992   .     S
N87    Zn111   2.025   .     S
N88    Zn112   2.025   .     S
O89    Zn111   1.986   .     S
O93    C251    1.419   1_455 S
O100   Zn112   1.986   .     S
O104   Zn112   1.982   .     S
O105   Zn111   1.982   .     S
O106   Zn111   1.961   .     S
O107   Zn112   1.961   .     S
O108   Zn112   1.933   .     S
O109   Zn111   1.933   .     S
C113   O216    1.285   .     A
C113   O201    1.286   .     A
C113   C116    1.408   .     S
C114   C116    1.393   .     A
C114   H190    1.085   .     S
C114   C491    1.373   .     S
C115   C155    1.409   .     A
C115   C124    1.408   .     S
C115   C156    1.395   .     A
C116   C154    1.399   .     A
C117   N200    1.377   .     A
C117   O211    1.373   .     S
C117   C231    1.429   .     S
C118   O213    1.378   .     S
C118   N199    1.369   .     A
C119   N199    1.363   .     A
C119   O214    1.376   .     S
C120   N200    1.371   .     A
C120   O215    1.377   .     S
C120   C230    1.445   .     S
C121   O220    1.297   .     A
C121   O218    1.302   .     A
C121   C123    1.462   .     S
C122   O221    1.298   .     A
C122   O219    1.299   .     A
C122   C125    1.461   .     S
C123   C130    1.401   .     A
C123   C128    1.396   .     A
C124   O217    1.286   .     A
C124   O212    1.285   .     A
C125   C131    1.403   .     A
C125   C129    1.400   .     A
C126   O205    1.392   .     S
C126   C128    1.408   .     A
C126   C134    1.422   .     A
C127   O206    1.382   .     S
C127   C136    1.414   .     A
C127   C129    1.400   .     A
C128   H168    1.083   .     S
C129   H157    1.083   .     S
C130   O204    1.382   .     S
C130   C132    1.392   .     A
C131   C133    1.401   .     A
C131   O203    1.385   .     S
C132   C137    1.410   .     A
C132   C134    1.424   .     A
C133   C138    1.398   .     A
C133   C136    1.410   .     A
C134   C1160   1.414   .     S
C135   C138    1.415   .     A
C135   C152    1.410   .     A
C135   O207    1.389   .     S
C136   C1161   1.412   1_554 S
C137   C146    1.428   .     A
C137   C1146   1.389   .     S
C138   C1145   1.389   1_554 S
C139   H198    1.112   .     S
C139   C1148   1.524   .     S
C139   H270    1.117   .     S
C139   O317    1.419   .     S
C140   H159    1.103   .     S
C140   H160    1.109   .     S
C140   C1147   1.524   1_554 S
C140   C1149   1.527   1_554 S
C141   H161    1.110   .     S
C141   H163    1.111   .     S
C141   C1148   1.527   .     S
C141   H1170   1.110   .     S
C142   H165    1.119   .     S
C142   H164    1.112   .     S
C142   O206    1.420   .     S
C142   C143    1.524   .     S
C143   H166    1.108   .     S
C143   C256    1.528   .     S
C143   H839    1.109   1_545 S
C144   H171    1.111   .     S
C144   H1849   1.110   1_544 S
C144   H842    1.110   1_545 S
C145   O207    1.423   .     S
C145   H172    1.107   .     S
C145   C147    1.526   .     S
C145   H173    1.114   .     S
C146   O208    1.388   .     S
C146   C153    1.419   .     A
C147   C148    1.528   .     S
C147   H174    1.108   .     S
C147   H175    1.109   .     S
C148   H178    1.111   .     S
C148   H176    1.111   .     S
C148   H849    1.110   1_545 S
C149   H181    1.116   .     S
C149   H180    1.111   .     S
C149   O208    1.419   .     S
C149   C150    1.533   .     S
C150   H182    1.112   .     S
C150   H183    1.111   .     S
C150   C823    1.527   1_545 S
C151   H184    1.111   .     S
C151   H185    1.111   .     S
C151   H186    1.111   .     S
C151   C486    1.527   .     S
C152   O222    1.380   .     S
C152   C1142   1.414   1_554 S
C153   O202    1.384   .     S
C153   C1144   1.412   .     S
C154   O209    1.383   .     S
C154   C492    1.382   .     S
C155   O210    1.382   .     S
C155   C786    1.373   1_545 S
C156   H179    1.085   .     S
C156   C826    1.382   1_545 S
H162   C1149   1.110   1_554 S
H167   C479    1.109   .     S
H169   C1488   1.110   .     S
H170   C480    1.110   .     S
H177   C484    1.110   .     S
H187   O209    0.992   .     S
H188   O210    0.990   .     S
H189   O211    0.983   .     S
H191   O213    0.990   .     S
H192   O214    0.990   .     S
H193   O215    0.990   .     S
H194   O222    0.990   .     S
H195   O202    0.989   .     S
H196   O203    0.991   .     S
H197   O204    0.992   .     S
N199   Zn223   2.025   .     S
N200   Zn224   2.025   .     S
O201   Zn223   1.986   .     S
O212   Zn224   1.986   .     S
O216   Zn224   1.982   .     S
O217   Zn223   1.982   .     S
O218   Zn223   1.961   .     S
O219   Zn224   1.961   .     S
O220   Zn224   1.933   .     S
O221   Zn223   1.933   .     S
C225   O328    1.285   .     A
C225   O313    1.286   .     A
C225   C228    1.408   .     S
C226   C228    1.393   .     A
C226   H302    1.085   .     S
C226   C603    1.373   .     S
C227   C267    1.409   .     A
C227   C236    1.408   .     S
C227   C268    1.395   .     A
C228   C266    1.399   .     A
C229   N312    1.377   .     A
C229   O323    1.373   .     S
C229   C7      1.429   1_655 S
C230   O325    1.378   .     S
C230   N311    1.369   .     A
C231   N311    1.363   .     A
C231   O326    1.376   .     S
C232   N312    1.371   .     A
C232   O327    1.377   .     S
C232   C6      1.445   1_655 S
C233   O332    1.297   .     A
C233   O330    1.302   .     A
C233   C235    1.462   .     S
C234   O333    1.298   .     A
C234   O331    1.299   .     A
C234   C237    1.461   .     S
C235   C242    1.401   .     A
C235   C240    1.396   .     A
C236   O329    1.286   .     A
C236   O324    1.285   .     A
C237   C243    1.403   .     A
C237   C241    1.400   .     A
C238   O317    1.392   .     S
C238   C240    1.408   .     A
C238   C246    1.422   .     A
C239   O318    1.382   .     S
C239   C248    1.414   .     A
C239   C241    1.400   .     A
C240   H280    1.083   .     S
C241   H269    1.083   .     S
C242   O316    1.382   .     S
C242   C244    1.392   .     A
C243   C245    1.401   .     A
C243   O315    1.385   .     S
C244   C249    1.410   .     A
C244   C246    1.424   .     A
C245   C250    1.398   .     A
C245   C248    1.410   .     A
C246   C1272   1.414   .     S
C247   C250    1.415   .     A
C247   C264    1.410   .     A
C247   O319    1.389   .     S
C248   C1273   1.412   1_554 S
C249   C258    1.428   .     A
C249   C1258   1.389   .     S
C250   C1257   1.389   1_554 S
C251   H310    1.112   .     S
C251   C1260   1.524   .     S
C251   H46     1.117   1_655 S
C251   O93     1.419   1_655 S
C252   H271    1.103   .     S
C252   H272    1.109   .     S
C252   C1259   1.524   1_554 S
C252   C1261   1.527   1_554 S
C253   H273    1.110   .     S
C253   H275    1.111   .     S
C253   C1260   1.527   .     S
C253   H1282   1.110   .     S
C254   H277    1.119   .     S
C254   H276    1.112   .     S
C254   O318    1.420   .     S
C254   C255    1.524   .     S
C255   H278    1.108   .     S
C255   C32     1.528   1_655 S
C255   H951    1.109   1_545 S
C256   H283    1.111   .     S
C256   H1961   1.110   1_544 S
C256   H954    1.110   1_545 S
C257   O319    1.423   .     S
C257   H284    1.107   .     S
C257   C259    1.526   .     S
C257   H285    1.114   .     S
C258   O320    1.388   .     S
C258   C265    1.419   .     A
C259   C260    1.528   .     S
C259   H286    1.108   .     S
C259   H287    1.109   .     S
C260   H290    1.111   .     S
C260   H288    1.111   .     S
C260   H961    1.110   1_545 S
C261   H293    1.116   .     S
C261   H292    1.111   .     S
C261   O320    1.419   .     S
C261   C262    1.533   .     S
C262   H294    1.112   .     S
C262   H295    1.111   .     S
C262   C935    1.527   1_545 S
C263   H296    1.111   .     S
C263   H297    1.111   .     S
C263   H298    1.111   .     S
C263   C598    1.527   .     S
C264   O334    1.380   .     S
C264   C1254   1.414   1_554 S
C265   O314    1.384   .     S
C265   C1256   1.412   .     S
C266   O321    1.383   .     S
C266   C604    1.382   .     S
C267   O322    1.382   .     S
C267   C898    1.373   1_545 S
C268   H291    1.085   .     S
C268   C938    1.382   1_545 S
H274   C1261   1.110   1_554 S
H279   C591    1.109   .     S
H281   C1600   1.110   .     S
H282   C592    1.110   .     S
H289   C596    1.110   .     S
H299   O321    0.992   .     S
H300   O322    0.990   .     S
H301   O323    0.983   .     S
H303   O325    0.990   .     S
H304   O326    0.990   .     S
H305   O327    0.990   .     S
H306   O334    0.990   .     S
H307   O314    0.989   .     S
H308   O315    0.991   .     S
H309   O316    0.992   .     S
N311   Zn335   2.025   .     S
N312   Zn336   2.025   .     S
O313   Zn335   1.986   .     S
O324   Zn336   1.986   .     S
O328   Zn336   1.982   .     S
O329   Zn335   1.982   .     S
O330   Zn335   1.961   .     S
O331   Zn336   1.961   .     S
O332   Zn336   1.933   .     S
O333   Zn335   1.933   .     S
C337   O440    1.285   .     A
C337   O425    1.286   .     A
C337   C340    1.408   .     S
C338   C340    1.393   .     A
C338   H414    1.085   .     S
C338   C715    1.373   .     S
C339   C379    1.409   .     A
C339   C348    1.408   .     S
C339   C380    1.395   .     A
C340   C378    1.399   .     A
C341   N424    1.377   .     A
C341   O435    1.373   .     S
C341   C455    1.429   .     S
C342   O437    1.378   .     S
C342   N423    1.369   .     A
C342   C568    1.445   1_455 S
C343   N423    1.363   .     A
C343   O438    1.376   .     S
C343   C565    1.429   1_455 S
C344   N424    1.371   .     A
C344   O439    1.377   .     S
C344   C454    1.445   .     S
C345   O444    1.297   .     A
C345   O442    1.302   .     A
C345   C347    1.462   .     S
C346   O445    1.298   .     A
C346   O443    1.299   .     A
C346   C349    1.461   .     S
C347   C354    1.401   .     A
C347   C352    1.396   .     A
C348   O441    1.286   .     A
C348   O436    1.285   .     A
C349   C355    1.403   .     A
C349   C353    1.400   .     A
C350   O429    1.392   .     S
C350   C352    1.408   .     A
C350   C358    1.422   .     A
C351   O430    1.382   .     S
C351   C360    1.414   .     A
C351   C353    1.400   .     A
C352   H392    1.083   .     S
C353   H381    1.083   .     S
C354   O428    1.382   .     S
C354   C356    1.392   .     A
C355   C357    1.401   .     A
C355   O427    1.385   .     S
C356   C361    1.410   .     A
C356   C358    1.424   .     A
C357   C362    1.398   .     A
C357   C360    1.410   .     A
C358   C1384   1.414   .     S
C359   C362    1.415   .     A
C359   C376    1.410   .     A
C359   O431    1.389   .     S
C360   C1385   1.412   1_554 S
C361   C370    1.428   .     A
C361   C1370   1.389   .     S
C362   C1369   1.389   1_554 S
C363   H422    1.112   .     S
C363   C1372   1.524   .     S
C363   H494    1.117   .     S
C363   O541    1.419   .     S
C364   H383    1.103   .     S
C364   H384    1.109   .     S
C364   C1371   1.524   1_554 S
C364   C1373   1.527   1_554 S
C365   H385    1.110   .     S
C365   H387    1.111   .     S
C365   C1372   1.527   .     S
C365   H1394   1.110   .     S
C366   H389    1.119   .     S
C366   H388    1.112   .     S
C366   O430    1.420   .     S
C366   C367    1.524   .     S
C367   H390    1.108   .     S
C367   C480    1.528   .     S
C368   H395    1.111   .     S
C368   C591    1.528   1_455 S
C368   H1065   1.110   1_554 S
C369   O431    1.423   .     S
C369   H396    1.107   .     S
C369   C371    1.526   .     S
C369   H397    1.114   .     S
C370   O432    1.388   .     S
C370   C377    1.419   .     A
C371   C372    1.528   .     S
C371   H398    1.108   .     S
C371   H399    1.109   .     S
C372   H402    1.111   .     S
C372   H400    1.111   .     S
C373   H405    1.116   .     S
C373   H404    1.111   .     S
C373   O432    1.419   .     S
C373   C374    1.533   .     S
C374   H406    1.112   .     S
C374   H407    1.111   .     S
C375   H408    1.111   .     S
C375   H409    1.111   .     S
C375   H410    1.111   .     S
C375   C710    1.527   .     S
C376   O446    1.380   .     S
C376   C1366   1.414   1_554 S
C377   O426    1.384   .     S
C377   C1368   1.412   .     S
C378   O433    1.383   .     S
C378   C716    1.382   .     S
C379   O434    1.382   .     S
C380   H403    1.085   .     S
H382   C587    1.117   1_455 S
H386   C1373   1.110   1_554 S
H391   C703    1.109   .     S
H393   C1712   1.110   .     S
H394   C704    1.110   .     S
H401   C708    1.110   .     S
H411   O433    0.992   .     S
H412   O434    0.990   .     S
H413   O435    0.983   .     S
H415   O437    0.990   .     S
H416   O438    0.990   .     S
H417   O439    0.990   .     S
H418   O446    0.990   .     S
H419   O426    0.989   .     S
H420   O427    0.991   .     S
H421   O428    0.992   .     S
N423   Zn447   2.025   .     S
N424   Zn448   2.025   .     S
O425   Zn447   1.986   .     S
O429   C587    1.419   1_455 S
O436   Zn448   1.986   .     S
O440   Zn448   1.982   .     S
O441   Zn447   1.982   .     S
O442   Zn447   1.961   .     S
O443   Zn448   1.961   .     S
O444   Zn448   1.933   .     S
O445   Zn447   1.933   .     S
C449   O552    1.285   .     A
C449   O537    1.286   .     A
C449   C452    1.408   .     S
C450   C452    1.393   .     A
C450   H526    1.085   .     S
C450   C827    1.373   .     S
C451   C491    1.409   .     A
C451   C460    1.408   .     S
C451   C492    1.395   .     A
C452   C490    1.399   .     A
C453   N536    1.377   .     A
C453   O547    1.373   .     S
C453   C567    1.429   .     S
C454   O549    1.378   .     S
C454   N535    1.369   .     A
C455   N535    1.363   .     A
C455   O550    1.376   .     S
C456   N536    1.371   .     A
C456   O551    1.377   .     S
C456   C566    1.445   .     S
C457   O556    1.297   .     A
C457   O554    1.302   .     A
C457   C459    1.462   .     S
C458   O557    1.298   .     A
C458   O555    1.299   .     A
C458   C461    1.461   .     S
C459   C466    1.401   .     A
C459   C464    1.396   .     A
C460   O553    1.286   .     A
C460   O548    1.285   .     A
C461   C467    1.403   .     A
C461   C465    1.400   .     A
C462   O541    1.392   .     S
C462   C464    1.408   .     A
C462   C470    1.422   .     A
C463   O542    1.382   .     S
C463   C472    1.414   .     A
C463   C465    1.400   .     A
C464   H504    1.083   .     S
C465   H493    1.083   .     S
C466   O540    1.382   .     S
C466   C468    1.392   .     A
C467   C469    1.401   .     A
C467   O539    1.385   .     S
C468   C473    1.410   .     A
C468   C470    1.424   .     A
C469   C474    1.398   .     A
C469   C472    1.410   .     A
C470   C1496   1.414   .     S
C471   C474    1.415   .     A
C471   C488    1.410   .     A
C471   O543    1.389   .     S
C472   C1497   1.412   1_554 S
C473   C482    1.428   .     A
C473   C1482   1.389   .     S
C474   C1481   1.389   1_554 S
C475   H534    1.112   .     S
C475   C1484   1.524   .     S
C475   H606    1.117   .     S
C475   O653    1.419   .     S
C476   H495    1.103   .     S
C476   H496    1.109   .     S
C476   C1483   1.524   1_554 S
C476   C1485   1.527   1_554 S
C477   H497    1.110   .     S
C477   H499    1.111   .     S
C477   C1484   1.527   .     S
C477   H1506   1.110   .     S
C478   H501    1.119   .     S
C478   H500    1.112   .     S
C478   O542    1.420   .     S
C478   C479    1.524   .     S
C479   H502    1.108   .     S
C479   C592    1.528   .     S
C480   H507    1.111   .     S
C480   H1177   1.110   1_554 S
C481   O543    1.423   .     S
C481   H508    1.107   .     S
C481   C483    1.526   .     S
C481   H509    1.114   .     S
C482   O544    1.388   .     S
C482   C489    1.419   .     A
C483   C484    1.528   .     S
C483   H510    1.108   .     S
C483   H511    1.109   .     S
C484   H514    1.111   .     S
C484   H512    1.111   .     S
C485   H517    1.116   .     S
C485   H516    1.111   .     S
C485   O544    1.419   .     S
C485   C486    1.533   .     S
C486   H518    1.112   .     S
C486   H519    1.111   .     S
C487   H520    1.111   .     S
C487   H521    1.111   .     S
C487   H522    1.111   .     S
C487   C822    1.527   .     S
C488   O558    1.380   .     S
C488   C1478   1.414   1_554 S
C489   O538    1.384   .     S
C489   C1480   1.412   .     S
C490   O545    1.383   .     S
C490   C828    1.382   .     S
C491   O546    1.382   .     S
C492   H515    1.085   .     S
H498   C1485   1.110   1_554 S
H503   C815    1.109   .     S
H505   C1824   1.110   .     S
H506   C816    1.110   .     S
H513   C820    1.110   .     S
H523   O545    0.992   .     S
H524   O546    0.990   .     S
H525   O547    0.983   .     S
H527   O549    0.990   .     S
H528   O550    0.990   .     S
H529   O551    0.990   .     S
H530   O558    0.990   .     S
H531   O538    0.989   .     S
H532   O539    0.991   .     S
H533   O540    0.992   .     S
N535   Zn559   2.025   .     S
N536   Zn560   2.025   .     S
O537   Zn559   1.986   .     S
O548   Zn560   1.986   .     S
O552   Zn560   1.982   .     S
O553   Zn559   1.982   .     S
O554   Zn559   1.961   .     S
O555   Zn560   1.961   .     S
O556   Zn560   1.933   .     S
O557   Zn559   1.933   .     S
C561   O664    1.285   .     A
C561   O649    1.286   .     A
C561   C564    1.408   .     S
C562   C564    1.393   .     A
C562   H638    1.085   .     S
C562   C939    1.373   .     S
C563   C603    1.409   .     A
C563   C572    1.408   .     S
C563   C604    1.395   .     A
C564   C602    1.399   .     A
C565   N648    1.377   .     A
C565   O659    1.373   .     S
C565   C343    1.429   1_655 S
C566   O661    1.378   .     S
C566   N647    1.369   .     A
C567   N647    1.363   .     A
C567   O662    1.376   .     S
C568   N648    1.371   .     A
C568   O663    1.377   .     S
C568   C342    1.445   1_655 S
C569   O668    1.297   .     A
C569   O666    1.302   .     A
C569   C571    1.462   .     S
C570   O669    1.298   .     A
C570   O667    1.299   .     A
C570   C573    1.461   .     S
C571   C578    1.401   .     A
C571   C576    1.396   .     A
C572   O665    1.286   .     A
C572   O660    1.285   .     A
C573   C579    1.403   .     A
C573   C577    1.400   .     A
C574   O653    1.392   .     S
C574   C576    1.408   .     A
C574   C582    1.422   .     A
C575   O654    1.382   .     S
C575   C584    1.414   .     A
C575   C577    1.400   .     A
C576   H616    1.083   .     S
C577   H605    1.083   .     S
C578   O652    1.382   .     S
C578   C580    1.392   .     A
C579   C581    1.401   .     A
C579   O651    1.385   .     S
C580   C585    1.410   .     A
C580   C582    1.424   .     A
C581   C586    1.398   .     A
C581   C584    1.410   .     A
C582   C1608   1.414   .     S
C583   C586    1.415   .     A
C583   C600    1.410   .     A
C583   O655    1.389   .     S
C584   C1609   1.412   1_554 S
C585   C594    1.428   .     A
C585   C1594   1.389   .     S
C586   C1593   1.389   1_554 S
C587   H646    1.112   .     S
C587   C1596   1.524   .     S
C587   H382    1.117   1_655 S
C587   O429    1.419   1_655 S
C588   H607    1.103   .     S
C588   H608    1.109   .     S
C588   C1595   1.524   1_554 S
C588   C1597   1.527   1_554 S
C589   H609    1.110   .     S
C589   H611    1.111   .     S
C589   C1596   1.527   .     S
C589   H1618   1.110   .     S
C590   H613    1.119   .     S
C590   H612    1.112   .     S
C590   O654    1.420   .     S
C590   C591    1.524   .     S
C591   H614    1.108   .     S
C591   C368    1.528   1_655 S
C592   H619    1.111   .     S
C592   H1289   1.110   1_554 S
C593   O655    1.423   .     S
C593   H620    1.107   .     S
C593   C595    1.526   .     S
C593   H621    1.114   .     S
C594   O656    1.388   .     S
C594   C601    1.419   .     A
C595   C596    1.528   .     S
C595   H622    1.108   .     S
C595   H623    1.109   .     S
C596   H626    1.111   .     S
C596   H624    1.111   .     S
C597   H629    1.116   .     S
C597   H628    1.111   .     S
C597   O656    1.419   .     S
C597   C598    1.533   .     S
C598   H630    1.112   .     S
C598   H631    1.111   .     S
C599   H632    1.111   .     S
C599   H633    1.111   .     S
C599   H634    1.111   .     S
C599   C934    1.527   .     S
C600   O670    1.380   .     S
C600   C1590   1.414   1_554 S
C601   O650    1.384   .     S
C601   C1592   1.412   .     S
C602   O657    1.383   .     S
C602   C940    1.382   .     S
C603   O658    1.382   .     S
C604   H627    1.085   .     S
H610   C1597   1.110   1_554 S
H615   C927    1.109   .     S
H617   C1936   1.110   .     S
H618   C928    1.110   .     S
H625   C932    1.110   .     S
H635   O657    0.992   .     S
H636   O658    0.990   .     S
H637   O659    0.983   .     S
H639   O661    0.990   .     S
H640   O662    0.990   .     S
H641   O663    0.990   .     S
H642   O670    0.990   .     S
H643   O650    0.989   .     S
H644   O651    0.991   .     S
H645   O652    0.992   .     S
N647   Zn671   2.025   .     S
N648   Zn672   2.025   .     S
O649   Zn671   1.986   .     S
O660   Zn672   1.986   .     S
O664   Zn672   1.982   .     S
O665   Zn671   1.982   .     S
O666   Zn671   1.961   .     S
O667   Zn672   1.961   .     S
O668   Zn672   1.933   .     S
O669   Zn671   1.933   .     S
C673   O776    1.285   .     A
C673   O761    1.286   .     A
C673   C676    1.408   .     S
C674   C676    1.393   .     A
C674   H750    1.085   .     S
C674   C43     1.373   1_565 S
C675   C715    1.409   .     A
C675   C684    1.408   .     S
C675   C716    1.395   .     A
C676   C714    1.399   .     A
C677   N760    1.377   .     A
C677   O771    1.373   .     S
C677   C791    1.429   .     S
C678   O773    1.378   .     S
C678   N759    1.369   .     A
C678   C904    1.445   1_455 S
C679   N759    1.363   .     A
C679   O774    1.376   .     S
C679   C901    1.429   1_455 S
C680   N760    1.371   .     A
C680   O775    1.377   .     S
C680   C790    1.445   .     S
C681   O780    1.297   .     A
C681   O778    1.302   .     A
C681   C683    1.462   .     S
C682   O781    1.298   .     A
C682   O779    1.299   .     A
C682   C685    1.461   .     S
C683   C690    1.401   .     A
C683   C688    1.396   .     A
C684   O777    1.286   .     A
C684   O772    1.285   .     A
C685   C691    1.403   .     A
C685   C689    1.400   .     A
C686   O765    1.392   .     S
C686   C688    1.408   .     A
C686   C694    1.422   .     A
C687   O766    1.382   .     S
C687   C696    1.414   .     A
C687   C689    1.400   .     A
C688   H728    1.083   .     S
C689   H717    1.083   .     S
C690   O764    1.382   .     S
C690   C692    1.392   .     A
C691   C693    1.401   .     A
C691   O763    1.385   .     S
C692   C697    1.410   .     A
C692   C694    1.424   .     A
C693   C698    1.398   .     A
C693   C696    1.410   .     A
C694   C1720   1.414   .     S
C695   C698    1.415   .     A
C695   C712    1.410   .     A
C695   O767    1.389   .     S
C696   C1721   1.412   1_554 S
C697   C706    1.428   .     A
C697   C1706   1.389   .     S
C698   C1705   1.389   1_554 S
C699   H758    1.112   .     S
C699   C1708   1.524   .     S
C699   H830    1.117   .     S
C699   O877    1.419   .     S
C700   H719    1.103   .     S
C700   H720    1.109   .     S
C700   C1707   1.524   1_554 S
C700   C1709   1.527   1_554 S
C701   H721    1.110   .     S
C701   H723    1.111   .     S
C701   C1708   1.527   .     S
C701   H1730   1.110   .     S
C702   H725    1.119   .     S
C702   H724    1.112   .     S
C702   O766    1.420   .     S
C702   C703    1.524   .     S
C703   H726    1.108   .     S
C703   C816    1.528   .     S
C704   H731    1.111   .     S
C704   C927    1.528   1_455 S
C704   H1401   1.110   1_554 S
C705   O767    1.423   .     S
C705   H732    1.107   .     S
C705   C707    1.526   .     S
C705   H733    1.114   .     S
C706   O768    1.388   .     S
C706   C713    1.419   .     A
C707   C708    1.528   .     S
C707   H734    1.108   .     S
C707   H735    1.109   .     S
C708   H738    1.111   .     S
C708   H736    1.111   .     S
C709   H741    1.116   .     S
C709   H740    1.111   .     S
C709   O768    1.419   .     S
C709   C710    1.533   .     S
C710   H742    1.112   .     S
C710   H743    1.111   .     S
C711   H744    1.111   .     S
C711   H745    1.111   .     S
C711   H746    1.111   .     S
C711   C38     1.527   1_565 S
C712   O782    1.380   .     S
C712   C1702   1.414   1_554 S
C713   O762    1.384   .     S
C713   C1704   1.412   .     S
C714   O769    1.383   .     S
C714   C44     1.382   1_565 S
C715   O770    1.382   .     S
C716   H739    1.085   .     S
H718   C923    1.117   1_455 S
H722   C1709   1.110   1_554 S
H727   C31     1.109   1_565 S
H729   C1040   1.110   1_565 S
H730   C32     1.110   1_565 S
H737   C36     1.110   1_565 S
H747   O769    0.992   .     S
H748   O770    0.990   .     S
H749   O771    0.983   .     S
H751   O773    0.990   .     S
H752   O774    0.990   .     S
H753   O775    0.990   .     S
H754   O782    0.990   .     S
H755   O762    0.989   .     S
H756   O763    0.991   .     S
H757   O764    0.992   .     S
N759   Zn783   2.025   .     S
N760   Zn784   2.025   .     S
O761   Zn783   1.986   .     S
O765   C923    1.419   1_455 S
O772   Zn784   1.986   .     S
O776   Zn784   1.982   .     S
O777   Zn783   1.982   .     S
O778   Zn783   1.961   .     S
O779   Zn784   1.961   .     S
O780   Zn784   1.933   .     S
O781   Zn783   1.933   .     S
C785   O888    1.285   .     A
C785   O873    1.286   .     A
C785   C788    1.408   .     S
C786   C788    1.393   .     A
C786   H862    1.085   .     S
C786   C155    1.373   1_565 S
C787   C827    1.409   .     A
C787   C796    1.408   .     S
C787   C828    1.395   .     A
C788   C826    1.399   .     A
C789   N872    1.377   .     A
C789   O883    1.373   .     S
C789   C903    1.429   .     S
C790   O885    1.378   .     S
C790   N871    1.369   .     A
C791   N871    1.363   .     A
C791   O886    1.376   .     S
C792   N872    1.371   .     A
C792   O887    1.377   .     S
C792   C902    1.445   .     S
C793   O892    1.297   .     A
C793   O890    1.302   .     A
C793   C795    1.462   .     S
C794   O893    1.298   .     A
C794   O891    1.299   .     A
C794   C797    1.461   .     S
C795   C802    1.401   .     A
C795   C800    1.396   .     A
C796   O889    1.286   .     A
C796   O884    1.285   .     A
C797   C803    1.403   .     A
C797   C801    1.400   .     A
C798   O877    1.392   .     S
C798   C800    1.408   .     A
C798   C806    1.422   .     A
C799   O878    1.382   .     S
C799   C808    1.414   .     A
C799   C801    1.400   .     A
C800   H840    1.083   .     S
C801   H829    1.083   .     S
C802   O876    1.382   .     S
C802   C804    1.392   .     A
C803   C805    1.401   .     A
C803   O875    1.385   .     S
C804   C809    1.410   .     A
C804   C806    1.424   .     A
C805   C810    1.398   .     A
C805   C808    1.410   .     A
C806   C1832   1.414   .     S
C807   C810    1.415   .     A
C807   C824    1.410   .     A
C807   O879    1.389   .     S
C808   C1833   1.412   1_554 S
C809   C818    1.428   .     A
C809   C1818   1.389   .     S
C810   C1817   1.389   1_554 S
C811   H870    1.112   .     S
C811   C1820   1.524   .     S
C811   H942    1.117   .     S
C811   O989    1.419   .     S
C812   H831    1.103   .     S
C812   H832    1.109   .     S
C812   C1819   1.524   1_554 S
C812   C1821   1.527   1_554 S
C813   H833    1.110   .     S
C813   H835    1.111   .     S
C813   C1820   1.527   .     S
C813   H1842   1.110   .     S
C814   H837    1.119   .     S
C814   H836    1.112   .     S
C814   O878    1.420   .     S
C814   C815    1.524   .     S
C815   H838    1.108   .     S
C815   C928    1.528   .     S
C816   H843    1.111   .     S
C816   H1513   1.110   1_554 S
C817   O879    1.423   .     S
C817   H844    1.107   .     S
C817   C819    1.526   .     S
C817   H845    1.114   .     S
C818   O880    1.388   .     S
C818   C825    1.419   .     A
C819   C820    1.528   .     S
C819   H846    1.108   .     S
C819   H847    1.109   .     S
C820   H850    1.111   .     S
C820   H848    1.111   .     S
C821   H853    1.116   .     S
C821   H852    1.111   .     S
C821   O880    1.419   .     S
C821   C822    1.533   .     S
C822   H854    1.112   .     S
C822   H855    1.111   .     S
C823   H856    1.111   .     S
C823   H857    1.111   .     S
C823   H858    1.111   .     S
C823   C150    1.527   1_565 S
C824   O894    1.380   .     S
C824   C1814   1.414   1_554 S
C825   O874    1.384   .     S
C825   C1816   1.412   .     S
C826   O881    1.383   .     S
C826   C156    1.382   1_565 S
C827   O882    1.382   .     S
C828   H851    1.085   .     S
H834   C1821   1.110   1_554 S
H839   C143    1.109   1_565 S
H841   C1152   1.110   1_565 S
H842   C144    1.110   1_565 S
H849   C148    1.110   1_565 S
H859   O881    0.992   .     S
H860   O882    0.990   .     S
H861   O883    0.983   .     S
H863   O885    0.990   .     S
H864   O886    0.990   .     S
H865   O887    0.990   .     S
H866   O894    0.990   .     S
H867   O874    0.989   .     S
H868   O875    0.991   .     S
H869   O876    0.992   .     S
N871   Zn895   2.025   .     S
N872   Zn896   2.025   .     S
O873   Zn895   1.986   .     S
O884   Zn896   1.986   .     S
O888   Zn896   1.982   .     S
O889   Zn895   1.982   .     S
O890   Zn895   1.961   .     S
O891   Zn896   1.961   .     S
O892   Zn896   1.933   .     S
O893   Zn895   1.933   .     S
C897   O1000   1.285   .     A
C897   O985    1.286   .     A
C897   C900    1.408   .     S
C898   C900    1.393   .     A
C898   H974    1.085   .     S
C898   C267    1.373   1_565 S
C899   C939    1.409   .     A
C899   C908    1.408   .     S
C899   C940    1.395   .     A
C900   C938    1.399   .     A
C901   N984    1.377   .     A
C901   O995    1.373   .     S
C901   C679    1.429   1_655 S
C902   O997    1.378   .     S
C902   N983    1.369   .     A
C903   N983    1.363   .     A
C903   O998    1.376   .     S
C904   N984    1.371   .     A
C904   O999    1.377   .     S
C904   C678    1.445   1_655 S
C905   O1004   1.297   .     A
C905   O1002   1.302   .     A
C905   C907    1.462   .     S
C906   O1005   1.298   .     A
C906   O1003   1.299   .     A
C906   C909    1.461   .     S
C907   C914    1.401   .     A
C907   C912    1.396   .     A
C908   O1001   1.286   .     A
C908   O996    1.285   .     A
C909   C915    1.403   .     A
C909   C913    1.400   .     A
C910   O989    1.392   .     S
C910   C912    1.408   .     A
C910   C918    1.422   .     A
C911   O990    1.382   .     S
C911   C920    1.414   .     A
C911   C913    1.400   .     A
C912   H952    1.083   .     S
C913   H941    1.083   .     S
C914   O988    1.382   .     S
C914   C916    1.392   .     A
C915   C917    1.401   .     A
C915   O987    1.385   .     S
C916   C921    1.410   .     A
C916   C918    1.424   .     A
C917   C922    1.398   .     A
C917   C920    1.410   .     A
C918   C1944   1.414   .     S
C919   C922    1.415   .     A
C919   C936    1.410   .     A
C919   O991    1.389   .     S
C920   C1945   1.412   1_554 S
C921   C930    1.428   .     A
C921   C1930   1.389   .     S
C922   C1929   1.389   1_554 S
C923   H982    1.112   .     S
C923   C1932   1.524   .     S
C923   H718    1.117   1_655 S
C923   O765    1.419   1_655 S
C924   H943    1.103   .     S
C924   H944    1.109   .     S
C924   C1931   1.524   1_554 S
C924   C1933   1.527   1_554 S
C925   H945    1.110   .     S
C925   H947    1.111   .     S
C925   C1932   1.527   .     S
C925   H1954   1.110   .     S
C926   H949    1.119   .     S
C926   H948    1.112   .     S
C926   O990    1.420   .     S
C926   C927    1.524   .     S
C927   H950    1.108   .     S
C927   C704    1.528   1_655 S
C928   H955    1.111   .     S
C928   H1625   1.110   1_554 S
C929   O991    1.423   .     S
C929   H956    1.107   .     S
C929   C931    1.526   .     S
C929   H957    1.114   .     S
C930   O992    1.388   .     S
C930   C937    1.419   .     A
C931   C932    1.528   .     S
C931   H958    1.108   .     S
C931   H959    1.109   .     S
C932   H962    1.111   .     S
C932   H960    1.111   .     S
C933   H965    1.116   .     S
C933   H964    1.111   .     S
C933   O992    1.419   .     S
C933   C934    1.533   .     S
C934   H966    1.112   .     S
C934   H967    1.111   .     S
C935   H968    1.111   .     S
C935   H969    1.111   .     S
C935   H970    1.111   .     S
C935   C262    1.527   1_565 S
C936   O1006   1.380   .     S
C936   C1926   1.414   1_554 S
C937   O986    1.384   .     S
C937   C1928   1.412   .     S
C938   O993    1.383   .     S
C938   C268    1.382   1_565 S
C939   O994    1.382   .     S
C940   H963    1.085   .     S
H946   C1933   1.110   1_554 S
H951   C255    1.109   1_565 S
H953   C1264   1.110   1_565 S
H954   C256    1.110   1_565 S
H961   C260    1.110   1_565 S
H971   O993    0.992   .     S
H972   O994    0.990   .     S
H973   O995    0.983   .     S
H975   O997    0.990   .     S
H976   O998    0.990   .     S
H977   O999    0.990   .     S
H978   O1006   0.990   .     S
H979   O986    0.989   .     S
H980   O987    0.991   .     S
H981   O988    0.992   .     S
N983   Zn1007  2.025   .     S
N984   Zn1008  2.025   .     S
O985   Zn1007  1.986   .     S
O996   Zn1008  1.986   .     S
O1000  Zn1008  1.982   .     S
O1001  Zn1007  1.982   .     S
O1002  Zn1007  1.961   .     S
O1003  Zn1008  1.961   .     S
O1004  Zn1008  1.933   .     S
O1005  Zn1007  1.933   .     S
C1009  O1112   1.285   .     A
C1009  O1097   1.286   .     A
C1009  C1012   1.408   .     S
C1010  C1012   1.393   .     A
C1010  H1086   1.085   .     S
C1010  C1387   1.373   .     S
C1011  C1051   1.409   .     A
C1011  C1020   1.408   .     S
C1011  C1052   1.395   .     A
C1012  C1050   1.399   .     A
C1013  N1096   1.377   .     A
C1013  O1107   1.373   .     S
C1013  C1127   1.429   .     S
C1014  O1109   1.378   .     S
C1014  N1095   1.369   .     A
C1014  C1240   1.445   1_455 S
C1015  N1095   1.363   .     A
C1015  O1110   1.376   .     S
C1015  C1237   1.429   1_455 S
C1016  N1096   1.371   .     A
C1016  O1111   1.377   .     S
C1016  C1126   1.445   .     S
C1017  O1116   1.297   .     A
C1017  O1114   1.302   .     A
C1017  C1019   1.462   .     S
C1018  O1117   1.298   .     A
C1018  O1115   1.299   .     A
C1018  C1021   1.461   .     S
C1019  C1026   1.401   .     A
C1019  C1024   1.396   .     A
C1020  O1113   1.286   .     A
C1020  O1108   1.285   .     A
C1021  C1027   1.403   .     A
C1021  C1025   1.400   .     A
C1022  O1101   1.392   .     S
C1022  C1024   1.408   .     A
C1022  C1030   1.422   .     A
C1023  O1102   1.382   .     S
C1023  C1032   1.414   .     A
C1023  C1025   1.400   .     A
C1024  H1064   1.083   .     S
C1025  H1053   1.083   .     S
C1026  O1100   1.382   .     S
C1026  C1028   1.392   .     A
C1027  C1029   1.401   .     A
C1027  O1099   1.385   .     S
C1028  C1033   1.410   .     A
C1028  C1030   1.424   .     A
C1029  C1034   1.398   .     A
C1029  C1032   1.410   .     A
C1030  C40     1.414   1_556 S
C1031  C1034   1.415   .     A
C1031  C1048   1.410   .     A
C1031  O1103   1.389   .     S
C1033  C1042   1.428   .     A
C1033  C26     1.389   1_556 S
C1035  H1094   1.112   .     S
C1035  C28     1.524   1_556 S
C1035  H1166   1.117   .     S
C1035  O1213   1.419   .     S
C1036  H1055   1.103   .     S
C1036  H1056   1.109   .     S
C1037  H1057   1.110   .     S
C1037  H1059   1.111   .     S
C1037  C28     1.527   1_556 S
C1037  H50     1.110   1_556 S
C1038  H1061   1.119   .     S
C1038  H1060   1.112   .     S
C1038  O1102   1.420   .     S
C1038  C1039   1.524   .     S
C1039  H1062   1.108   .     S
C1039  C1152   1.528   .     S
C1039  H1735   1.109   1_545 S
C1040  H1067   1.111   .     S
C1040  C1263   1.528   1_455 S
C1040  H729    1.110   1_545 S
C1040  H1738   1.110   1_545 S
C1041  O1103   1.423   .     S
C1041  H1068   1.107   .     S
C1041  C1043   1.526   .     S
C1041  H1069   1.114   .     S
C1042  O1104   1.388   .     S
C1042  C1049   1.419   .     A
C1043  C1044   1.528   .     S
C1043  H1070   1.108   .     S
C1043  H1071   1.109   .     S
C1044  H1074   1.111   .     S
C1044  H1072   1.111   .     S
C1044  H1745   1.110   1_545 S
C1045  H1077   1.116   .     S
C1045  H1076   1.111   .     S
C1045  O1104   1.419   .     S
C1045  C1046   1.533   .     S
C1046  H1078   1.112   .     S
C1046  H1079   1.111   .     S
C1046  C1719   1.527   1_545 S
C1047  H1080   1.111   .     S
C1047  H1081   1.111   .     S
C1047  H1082   1.111   .     S
C1047  C1382   1.527   .     S
C1048  O1118   1.380   .     S
C1049  O1098   1.384   .     S
C1049  C24     1.412   1_556 S
C1050  O1105   1.383   .     S
C1050  C1388   1.382   .     S
C1051  O1106   1.382   .     S
C1051  C1682   1.373   1_545 S
C1052  H1075   1.085   .     S
C1052  C1722   1.382   1_545 S
H1054  C1259   1.117   1_455 S
H1063  C1375   1.109   .     S
H1065  C368    1.110   1_556 S
H1066  C1376   1.110   .     S
H1073  C1380   1.110   .     S
H1083  O1105   0.992   .     S
H1084  O1106   0.990   .     S
H1085  O1107   0.983   .     S
H1087  O1109   0.990   .     S
H1088  O1110   0.990   .     S
H1089  O1111   0.990   .     S
H1090  O1118   0.990   .     S
H1091  O1098   0.989   .     S
H1092  O1099   0.991   .     S
H1093  O1100   0.992   .     S
N1095  Zn1119  2.025   .     S
N1096  Zn1120  2.025   .     S
O1097  Zn1119  1.986   .     S
O1101  C1259   1.419   1_455 S
O1108  Zn1120  1.986   .     S
O1112  Zn1120  1.982   .     S
O1113  Zn1119  1.982   .     S
O1114  Zn1119  1.961   .     S
O1115  Zn1120  1.961   .     S
O1116  Zn1120  1.933   .     S
O1117  Zn1119  1.933   .     S
C1121  O1224   1.285   .     A
C1121  O1209   1.286   .     A
C1121  C1124   1.408   .     S
C1122  C1124   1.393   .     A
C1122  H1198   1.085   .     S
C1122  C1499   1.373   .     S
C1123  C1163   1.409   .     A
C1123  C1132   1.408   .     S
C1123  C1164   1.395   .     A
C1124  C1162   1.399   .     A
C1125  N1208   1.377   .     A
C1125  O1219   1.373   .     S
C1125  C1239   1.429   .     S
C1126  O1221   1.378   .     S
C1126  N1207   1.369   .     A
C1127  N1207   1.363   .     A
C1127  O1222   1.376   .     S
C1128  N1208   1.371   .     A
C1128  O1223   1.377   .     S
C1128  C1238   1.445   .     S
C1129  O1228   1.297   .     A
C1129  O1226   1.302   .     A
C1129  C1131   1.462   .     S
C1130  O1229   1.298   .     A
C1130  O1227   1.299   .     A
C1130  C1133   1.461   .     S
C1131  C1138   1.401   .     A
C1131  C1136   1.396   .     A
C1132  O1225   1.286   .     A
C1132  O1220   1.285   .     A
C1133  C1139   1.403   .     A
C1133  C1137   1.400   .     A
C1134  O1213   1.392   .     S
C1134  C1136   1.408   .     A
C1134  C1142   1.422   .     A
C1135  O1214   1.382   .     S
C1135  C1144   1.414   .     A
C1135  C1137   1.400   .     A
C1136  H1176   1.083   .     S
C1137  H1165   1.083   .     S
C1138  O1212   1.382   .     S
C1138  C1140   1.392   .     A
C1139  C1141   1.401   .     A
C1139  O1211   1.385   .     S
C1140  C1145   1.410   .     A
C1140  C1142   1.424   .     A
C1141  C1146   1.398   .     A
C1141  C1144   1.410   .     A
C1142  C152    1.414   1_556 S
C1143  C1146   1.415   .     A
C1143  C1160   1.410   .     A
C1143  O1215   1.389   .     S
C1145  C1154   1.428   .     A
C1145  C138    1.389   1_556 S
C1147  H1206   1.112   .     S
C1147  C140    1.524   1_556 S
C1147  H1278   1.117   .     S
C1147  O1325   1.419   .     S
C1148  H1167   1.103   .     S
C1148  H1168   1.109   .     S
C1149  H1169   1.110   .     S
C1149  H1171   1.111   .     S
C1149  C140    1.527   1_556 S
C1149  H162    1.110   1_556 S
C1150  H1173   1.119   .     S
C1150  H1172   1.112   .     S
C1150  O1214   1.420   .     S
C1150  C1151   1.524   .     S
C1151  H1174   1.108   .     S
C1151  C1264   1.528   .     S
C1151  H1847   1.109   1_545 S
C1152  H1179   1.111   .     S
C1152  H841    1.110   1_545 S
C1152  H1850   1.110   1_545 S
C1153  O1215   1.423   .     S
C1153  H1180   1.107   .     S
C1153  C1155   1.526   .     S
C1153  H1181   1.114   .     S
C1154  O1216   1.388   .     S
C1154  C1161   1.419   .     A
C1155  C1156   1.528   .     S
C1155  H1182   1.108   .     S
C1155  H1183   1.109   .     S
C1156  H1186   1.111   .     S
C1156  H1184   1.111   .     S
C1156  H1857   1.110   1_545 S
C1157  H1189   1.116   .     S
C1157  H1188   1.111   .     S
C1157  O1216   1.419   .     S
C1157  C1158   1.533   .     S
C1158  H1190   1.112   .     S
C1158  H1191   1.111   .     S
C1158  C1831   1.527   1_545 S
C1159  H1192   1.111   .     S
C1159  H1193   1.111   .     S
C1159  H1194   1.111   .     S
C1159  C1494   1.527   .     S
C1160  O1230   1.380   .     S
C1161  O1210   1.384   .     S
C1161  C136    1.412   1_556 S
C1162  O1217   1.383   .     S
C1162  C1500   1.382   .     S
C1163  O1218   1.382   .     S
C1163  C1794   1.373   1_545 S
C1164  H1187   1.085   .     S
C1164  C1834   1.382   1_545 S
H1175  C1487   1.109   .     S
H1177  C480    1.110   1_556 S
H1178  C1488   1.110   .     S
H1185  C1492   1.110   .     S
H1195  O1217   0.992   .     S
H1196  O1218   0.990   .     S
H1197  O1219   0.983   .     S
H1199  O1221   0.990   .     S
H1200  O1222   0.990   .     S
H1201  O1223   0.990   .     S
H1202  O1230   0.990   .     S
H1203  O1210   0.989   .     S
H1204  O1211   0.991   .     S
H1205  O1212   0.992   .     S
N1207  Zn1231  2.025   .     S
N1208  Zn1232  2.025   .     S
O1209  Zn1231  1.986   .     S
O1220  Zn1232  1.986   .     S
O1224  Zn1232  1.982   .     S
O1225  Zn1231  1.982   .     S
O1226  Zn1231  1.961   .     S
O1227  Zn1232  1.961   .     S
O1228  Zn1232  1.933   .     S
O1229  Zn1231  1.933   .     S
C1233  O1336   1.285   .     A
C1233  O1321   1.286   .     A
C1233  C1236   1.408   .     S
C1234  C1236   1.393   .     A
C1234  H1310   1.085   .     S
C1234  C1611   1.373   .     S
C1235  C1275   1.409   .     A
C1235  C1244   1.408   .     S
C1235  C1276   1.395   .     A
C1236  C1274   1.399   .     A
C1237  N1320   1.377   .     A
C1237  O1331   1.373   .     S
C1237  C1015   1.429   1_655 S
C1238  O1333   1.378   .     S
C1238  N1319   1.369   .     A
C1239  N1319   1.363   .     A
C1239  O1334   1.376   .     S
C1240  N1320   1.371   .     A
C1240  O1335   1.377   .     S
C1240  C1014   1.445   1_655 S
C1241  O1340   1.297   .     A
C1241  O1338   1.302   .     A
C1241  C1243   1.462   .     S
C1242  O1341   1.298   .     A
C1242  O1339   1.299   .     A
C1242  C1245   1.461   .     S
C1243  C1250   1.401   .     A
C1243  C1248   1.396   .     A
C1244  O1337   1.286   .     A
C1244  O1332   1.285   .     A
C1245  C1251   1.403   .     A
C1245  C1249   1.400   .     A
C1246  O1325   1.392   .     S
C1246  C1248   1.408   .     A
C1246  C1254   1.422   .     A
C1247  O1326   1.382   .     S
C1247  C1256   1.414   .     A
C1247  C1249   1.400   .     A
C1248  H1288   1.083   .     S
C1249  H1277   1.083   .     S
C1250  O1324   1.382   .     S
C1250  C1252   1.392   .     A
C1251  C1253   1.401   .     A
C1251  O1323   1.385   .     S
C1252  C1257   1.410   .     A
C1252  C1254   1.424   .     A
C1253  C1258   1.398   .     A
C1253  C1256   1.410   .     A
C1254  C264    1.414   1_556 S
C1255  C1258   1.415   .     A
C1255  C1272   1.410   .     A
C1255  O1327   1.389   .     S
C1257  C1266   1.428   .     A
C1257  C250    1.389   1_556 S
C1259  H1318   1.112   .     S
C1259  C252    1.524   1_556 S
C1259  H1054   1.117   1_655 S
C1259  O1101   1.419   1_655 S
C1260  H1279   1.103   .     S
C1260  H1280   1.109   .     S
C1261  H1281   1.110   .     S
C1261  H1283   1.111   .     S
C1261  C252    1.527   1_556 S
C1261  H274    1.110   1_556 S
C1262  H1285   1.119   .     S
C1262  H1284   1.112   .     S
C1262  O1326   1.420   .     S
C1262  C1263   1.524   .     S
C1263  H1286   1.108   .     S
C1263  C1040   1.528   1_655 S
C1263  H1959   1.109   1_545 S
C1264  H1291   1.111   .     S
C1264  H953    1.110   1_545 S
C1264  H1962   1.110   1_545 S
C1265  O1327   1.423   .     S
C1265  H1292   1.107   .     S
C1265  C1267   1.526   .     S
C1265  H1293   1.114   .     S
C1266  O1328   1.388   .     S
C1266  C1273   1.419   .     A
C1267  C1268   1.528   .     S
C1267  H1294   1.108   .     S
C1267  H1295   1.109   .     S
C1268  H1298   1.111   .     S
C1268  H1296   1.111   .     S
C1268  H1969   1.110   1_545 S
C1269  H1301   1.116   .     S
C1269  H1300   1.111   .     S
C1269  O1328   1.419   .     S
C1269  C1270   1.533   .     S
C1270  H1302   1.112   .     S
C1270  H1303   1.111   .     S
C1270  C1943   1.527   1_545 S
C1271  H1304   1.111   .     S
C1271  H1305   1.111   .     S
C1271  H1306   1.111   .     S
C1271  C1606   1.527   .     S
C1272  O1342   1.380   .     S
C1273  O1322   1.384   .     S
C1273  C248    1.412   1_556 S
C1274  O1329   1.383   .     S
C1274  C1612   1.382   .     S
C1275  O1330   1.382   .     S
C1275  C1906   1.373   1_545 S
C1276  H1299   1.085   .     S
C1276  C1946   1.382   1_545 S
H1287  C1599   1.109   .     S
H1289  C592    1.110   1_556 S
H1290  C1600   1.110   .     S
H1297  C1604   1.110   .     S
H1307  O1329   0.992   .     S
H1308  O1330   0.990   .     S
H1309  O1331   0.983   .     S
H1311  O1333   0.990   .     S
H1312  O1334   0.990   .     S
H1313  O1335   0.990   .     S
H1314  O1342   0.990   .     S
H1315  O1322   0.989   .     S
H1316  O1323   0.991   .     S
H1317  O1324   0.992   .     S
N1319  Zn1343  2.025   .     S
N1320  Zn1344  2.025   .     S
O1321  Zn1343  1.986   .     S
O1332  Zn1344  1.986   .     S
O1336  Zn1344  1.982   .     S
O1337  Zn1343  1.982   .     S
O1338  Zn1343  1.961   .     S
O1339  Zn1344  1.961   .     S
O1340  Zn1344  1.933   .     S
O1341  Zn1343  1.933   .     S
C1345  O1448   1.285   .     A
C1345  O1433   1.286   .     A
C1345  C1348   1.408   .     S
C1346  C1348   1.393   .     A
C1346  H1422   1.085   .     S
C1346  C1723   1.373   .     S
C1347  C1387   1.409   .     A
C1347  C1356   1.408   .     S
C1347  C1388   1.395   .     A
C1348  C1386   1.399   .     A
C1349  N1432   1.377   .     A
C1349  O1443   1.373   .     S
C1349  C1463   1.429   .     S
C1350  O1445   1.378   .     S
C1350  N1431   1.369   .     A
C1350  C1576   1.445   1_455 S
C1351  N1431   1.363   .     A
C1351  O1446   1.376   .     S
C1351  C1573   1.429   1_455 S
C1352  N1432   1.371   .     A
C1352  O1447   1.377   .     S
C1352  C1462   1.445   .     S
C1353  O1452   1.297   .     A
C1353  O1450   1.302   .     A
C1353  C1355   1.462   .     S
C1354  O1453   1.298   .     A
C1354  O1451   1.299   .     A
C1354  C1357   1.461   .     S
C1355  C1362   1.401   .     A
C1355  C1360   1.396   .     A
C1356  O1449   1.286   .     A
C1356  O1444   1.285   .     A
C1357  C1363   1.403   .     A
C1357  C1361   1.400   .     A
C1358  O1437   1.392   .     S
C1358  C1360   1.408   .     A
C1358  C1366   1.422   .     A
C1359  O1438   1.382   .     S
C1359  C1368   1.414   .     A
C1359  C1361   1.400   .     A
C1360  H1400   1.083   .     S
C1361  H1389   1.083   .     S
C1362  O1436   1.382   .     S
C1362  C1364   1.392   .     A
C1363  C1365   1.401   .     A
C1363  O1435   1.385   .     S
C1364  C1369   1.410   .     A
C1364  C1366   1.424   .     A
C1365  C1370   1.398   .     A
C1365  C1368   1.410   .     A
C1366  C376    1.414   1_556 S
C1367  C1370   1.415   .     A
C1367  C1384   1.410   .     A
C1367  O1439   1.389   .     S
C1369  C1378   1.428   .     A
C1369  C362    1.389   1_556 S
C1371  H1430   1.112   .     S
C1371  C364    1.524   1_556 S
C1371  H1502   1.117   .     S
C1371  O1549   1.419   .     S
C1372  H1391   1.103   .     S
C1372  H1392   1.109   .     S
C1373  H1393   1.110   .     S
C1373  H1395   1.111   .     S
C1373  C364    1.527   1_556 S
C1373  H386    1.110   1_556 S
C1374  H1397   1.119   .     S
C1374  H1396   1.112   .     S
C1374  O1438   1.420   .     S
C1374  C1375   1.524   .     S
C1375  H1398   1.108   .     S
C1375  C1488   1.528   .     S
C1376  H1403   1.111   .     S
C1376  C1599   1.528   1_455 S
C1377  O1439   1.423   .     S
C1377  H1404   1.107   .     S
C1377  C1379   1.526   .     S
C1377  H1405   1.114   .     S
C1378  O1440   1.388   .     S
C1378  C1385   1.419   .     A
C1379  C1380   1.528   .     S
C1379  H1406   1.108   .     S
C1379  H1407   1.109   .     S
C1380  H1410   1.111   .     S
C1380  H1408   1.111   .     S
C1381  H1413   1.116   .     S
C1381  H1412   1.111   .     S
C1381  O1440   1.419   .     S
C1381  C1382   1.533   .     S
C1382  H1414   1.112   .     S
C1382  H1415   1.111   .     S
C1383  H1416   1.111   .     S
C1383  H1417   1.111   .     S
C1383  H1418   1.111   .     S
C1383  C1718   1.527   .     S
C1384  O1454   1.380   .     S
C1385  O1434   1.384   .     S
C1385  C360    1.412   1_556 S
C1386  O1441   1.383   .     S
C1386  C1724   1.382   .     S
C1387  O1442   1.382   .     S
C1388  H1411   1.085   .     S
H1390  C1595   1.117   1_455 S
H1399  C1711   1.109   .     S
H1401  C704    1.110   1_556 S
H1402  C1712   1.110   .     S
H1409  C1716   1.110   .     S
H1419  O1441   0.992   .     S
H1420  O1442   0.990   .     S
H1421  O1443   0.983   .     S
H1423  O1445   0.990   .     S
H1424  O1446   0.990   .     S
H1425  O1447   0.990   .     S
H1426  O1454   0.990   .     S
H1427  O1434   0.989   .     S
H1428  O1435   0.991   .     S
H1429  O1436   0.992   .     S
N1431  Zn1455  2.025   .     S
N1432  Zn1456  2.025   .     S
O1433  Zn1455  1.986   .     S
O1437  C1595   1.419   1_455 S
O1444  Zn1456  1.986   .     S
O1448  Zn1456  1.982   .     S
O1449  Zn1455  1.982   .     S
O1450  Zn1455  1.961   .     S
O1451  Zn1456  1.961   .     S
O1452  Zn1456  1.933   .     S
O1453  Zn1455  1.933   .     S
C1457  O1560   1.285   .     A
C1457  O1545   1.286   .     A
C1457  C1460   1.408   .     S
C1458  C1460   1.393   .     A
C1458  H1534   1.085   .     S
C1458  C1835   1.373   .     S
C1459  C1499   1.409   .     A
C1459  C1468   1.408   .     S
C1459  C1500   1.395   .     A
C1460  C1498   1.399   .     A
C1461  N1544   1.377   .     A
C1461  O1555   1.373   .     S
C1461  C1575   1.429   .     S
C1462  O1557   1.378   .     S
C1462  N1543   1.369   .     A
C1463  N1543   1.363   .     A
C1463  O1558   1.376   .     S
C1464  N1544   1.371   .     A
C1464  O1559   1.377   .     S
C1464  C1574   1.445   .     S
C1465  O1564   1.297   .     A
C1465  O1562   1.302   .     A
C1465  C1467   1.462   .     S
C1466  O1565   1.298   .     A
C1466  O1563   1.299   .     A
C1466  C1469   1.461   .     S
C1467  C1474   1.401   .     A
C1467  C1472   1.396   .     A
C1468  O1561   1.286   .     A
C1468  O1556   1.285   .     A
C1469  C1475   1.403   .     A
C1469  C1473   1.400   .     A
C1470  O1549   1.392   .     S
C1470  C1472   1.408   .     A
C1470  C1478   1.422   .     A
C1471  O1550   1.382   .     S
C1471  C1480   1.414   .     A
C1471  C1473   1.400   .     A
C1472  H1512   1.083   .     S
C1473  H1501   1.083   .     S
C1474  O1548   1.382   .     S
C1474  C1476   1.392   .     A
C1475  C1477   1.401   .     A
C1475  O1547   1.385   .     S
C1476  C1481   1.410   .     A
C1476  C1478   1.424   .     A
C1477  C1482   1.398   .     A
C1477  C1480   1.410   .     A
C1478  C488    1.414   1_556 S
C1479  C1482   1.415   .     A
C1479  C1496   1.410   .     A
C1479  O1551   1.389   .     S
C1481  C1490   1.428   .     A
C1481  C474    1.389   1_556 S
C1483  H1542   1.112   .     S
C1483  C476    1.524   1_556 S
C1483  H1614   1.117   .     S
C1483  O1661   1.419   .     S
C1484  H1503   1.103   .     S
C1484  H1504   1.109   .     S
C1485  H1505   1.110   .     S
C1485  H1507   1.111   .     S
C1485  C476    1.527   1_556 S
C1485  H498    1.110   1_556 S
C1486  H1509   1.119   .     S
C1486  H1508   1.112   .     S
C1486  O1550   1.420   .     S
C1486  C1487   1.524   .     S
C1487  H1510   1.108   .     S
C1487  C1600   1.528   .     S
C1488  H1515   1.111   .     S
C1489  O1551   1.423   .     S
C1489  H1516   1.107   .     S
C1489  C1491   1.526   .     S
C1489  H1517   1.114   .     S
C1490  O1552   1.388   .     S
C1490  C1497   1.419   .     A
C1491  C1492   1.528   .     S
C1491  H1518   1.108   .     S
C1491  H1519   1.109   .     S
C1492  H1522   1.111   .     S
C1492  H1520   1.111   .     S
C1493  H1525   1.116   .     S
C1493  H1524   1.111   .     S
C1493  O1552   1.419   .     S
C1493  C1494   1.533   .     S
C1494  H1526   1.112   .     S
C1494  H1527   1.111   .     S
C1495  H1528   1.111   .     S
C1495  H1529   1.111   .     S
C1495  H1530   1.111   .     S
C1495  C1830   1.527   .     S
C1496  O1566   1.380   .     S
C1497  O1546   1.384   .     S
C1497  C472    1.412   1_556 S
C1498  O1553   1.383   .     S
C1498  C1836   1.382   .     S
C1499  O1554   1.382   .     S
C1500  H1523   1.085   .     S
H1511  C1823   1.109   .     S
H1513  C816    1.110   1_556 S
H1514  C1824   1.110   .     S
H1521  C1828   1.110   .     S
H1531  O1553   0.992   .     S
H1532  O1554   0.990   .     S
H1533  O1555   0.983   .     S
H1535  O1557   0.990   .     S
H1536  O1558   0.990   .     S
H1537  O1559   0.990   .     S
H1538  O1566   0.990   .     S
H1539  O1546   0.989   .     S
H1540  O1547   0.991   .     S
H1541  O1548   0.992   .     S
N1543  Zn1567  2.025   .     S
N1544  Zn1568  2.025   .     S
O1545  Zn1567  1.986   .     S
O1556  Zn1568  1.986   .     S
O1560  Zn1568  1.982   .     S
O1561  Zn1567  1.982   .     S
O1562  Zn1567  1.961   .     S
O1563  Zn1568  1.961   .     S
O1564  Zn1568  1.933   .     S
O1565  Zn1567  1.933   .     S
C1569  O1672   1.285   .     A
C1569  O1657   1.286   .     A
C1569  C1572   1.408   .     S
C1570  C1572   1.393   .     A
C1570  H1646   1.085   .     S
C1570  C1947   1.373   .     S
C1571  C1611   1.409   .     A
C1571  C1580   1.408   .     S
C1571  C1612   1.395   .     A
C1572  C1610   1.399   .     A
C1573  N1656   1.377   .     A
C1573  O1667   1.373   .     S
C1573  C1351   1.429   1_655 S
C1574  O1669   1.378   .     S
C1574  N1655   1.369   .     A
C1575  N1655   1.363   .     A
C1575  O1670   1.376   .     S
C1576  N1656   1.371   .     A
C1576  O1671   1.377   .     S
C1576  C1350   1.445   1_655 S
C1577  O1676   1.297   .     A
C1577  O1674   1.302   .     A
C1577  C1579   1.462   .     S
C1578  O1677   1.298   .     A
C1578  O1675   1.299   .     A
C1578  C1581   1.461   .     S
C1579  C1586   1.401   .     A
C1579  C1584   1.396   .     A
C1580  O1673   1.286   .     A
C1580  O1668   1.285   .     A
C1581  C1587   1.403   .     A
C1581  C1585   1.400   .     A
C1582  O1661   1.392   .     S
C1582  C1584   1.408   .     A
C1582  C1590   1.422   .     A
C1583  O1662   1.382   .     S
C1583  C1592   1.414   .     A
C1583  C1585   1.400   .     A
C1584  H1624   1.083   .     S
C1585  H1613   1.083   .     S
C1586  O1660   1.382   .     S
C1586  C1588   1.392   .     A
C1587  C1589   1.401   .     A
C1587  O1659   1.385   .     S
C1588  C1593   1.410   .     A
C1588  C1590   1.424   .     A
C1589  C1594   1.398   .     A
C1589  C1592   1.410   .     A
C1590  C600    1.414   1_556 S
C1591  C1594   1.415   .     A
C1591  C1608   1.410   .     A
C1591  O1663   1.389   .     S
C1593  C1602   1.428   .     A
C1593  C586    1.389   1_556 S
C1595  H1654   1.112   .     S
C1595  C588    1.524   1_556 S
C1595  H1390   1.117   1_655 S
C1595  O1437   1.419   1_655 S
C1596  H1615   1.103   .     S
C1596  H1616   1.109   .     S
C1597  H1617   1.110   .     S
C1597  H1619   1.111   .     S
C1597  C588    1.527   1_556 S
C1597  H610    1.110   1_556 S
C1598  H1621   1.119   .     S
C1598  H1620   1.112   .     S
C1598  O1662   1.420   .     S
C1598  C1599   1.524   .     S
C1599  H1622   1.108   .     S
C1599  C1376   1.528   1_655 S
C1600  H1627   1.111   .     S
C1601  O1663   1.423   .     S
C1601  H1628   1.107   .     S
C1601  C1603   1.526   .     S
C1601  H1629   1.114   .     S
C1602  O1664   1.388   .     S
C1602  C1609   1.419   .     A
C1603  C1604   1.528   .     S
C1603  H1630   1.108   .     S
C1603  H1631   1.109   .     S
C1604  H1634   1.111   .     S
C1604  H1632   1.111   .     S
C1605  H1637   1.116   .     S
C1605  H1636   1.111   .     S
C1605  O1664   1.419   .     S
C1605  C1606   1.533   .     S
C1606  H1638   1.112   .     S
C1606  H1639   1.111   .     S
C1607  H1640   1.111   .     S
C1607  H1641   1.111   .     S
C1607  H1642   1.111   .     S
C1607  C1942   1.527   .     S
C1608  O1678   1.380   .     S
C1609  O1658   1.384   .     S
C1609  C584    1.412   1_556 S
C1610  O1665   1.383   .     S
C1610  C1948   1.382   .     S
C1611  O1666   1.382   .     S
C1612  H1635   1.085   .     S
H1623  C1935   1.109   .     S
H1625  C928    1.110   1_556 S
H1626  C1936   1.110   .     S
H1633  C1940   1.110   .     S
H1643  O1665   0.992   .     S
H1644  O1666   0.990   .     S
H1645  O1667   0.983   .     S
H1647  O1669   0.990   .     S
H1648  O1670   0.990   .     S
H1649  O1671   0.990   .     S
H1650  O1678   0.990   .     S
H1651  O1658   0.989   .     S
H1652  O1659   0.991   .     S
H1653  O1660   0.992   .     S
N1655  Zn1679  2.025   .     S
N1656  Zn1680  2.025   .     S
O1657  Zn1679  1.986   .     S
O1668  Zn1680  1.986   .     S
O1672  Zn1680  1.982   .     S
O1673  Zn1679  1.982   .     S
O1674  Zn1679  1.961   .     S
O1675  Zn1680  1.961   .     S
O1676  Zn1680  1.933   .     S
O1677  Zn1679  1.933   .     S
C1681  O1784   1.285   .     A
C1681  O1769   1.286   .     A
C1681  C1684   1.408   .     S
C1682  C1684   1.393   .     A
C1682  H1758   1.085   .     S
C1682  C1051   1.373   1_565 S
C1683  C1723   1.409   .     A
C1683  C1692   1.408   .     S
C1683  C1724   1.395   .     A
C1684  C1722   1.399   .     A
C1685  N1768   1.377   .     A
C1685  O1779   1.373   .     S
C1685  C1799   1.429   .     S
C1686  O1781   1.378   .     S
C1686  N1767   1.369   .     A
C1686  C1912   1.445   1_455 S
C1687  N1767   1.363   .     A
C1687  O1782   1.376   .     S
C1687  C1909   1.429   1_455 S
C1688  N1768   1.371   .     A
C1688  O1783   1.377   .     S
C1688  C1798   1.445   .     S
C1689  O1788   1.297   .     A
C1689  O1786   1.302   .     A
C1689  C1691   1.462   .     S
C1690  O1789   1.298   .     A
C1690  O1787   1.299   .     A
C1690  C1693   1.461   .     S
C1691  C1698   1.401   .     A
C1691  C1696   1.396   .     A
C1692  O1785   1.286   .     A
C1692  O1780   1.285   .     A
C1693  C1699   1.403   .     A
C1693  C1697   1.400   .     A
C1694  O1773   1.392   .     S
C1694  C1696   1.408   .     A
C1694  C1702   1.422   .     A
C1695  O1774   1.382   .     S
C1695  C1704   1.414   .     A
C1695  C1697   1.400   .     A
C1696  H1736   1.083   .     S
C1697  H1725   1.083   .     S
C1698  O1772   1.382   .     S
C1698  C1700   1.392   .     A
C1699  C1701   1.401   .     A
C1699  O1771   1.385   .     S
C1700  C1705   1.410   .     A
C1700  C1702   1.424   .     A
C1701  C1706   1.398   .     A
C1701  C1704   1.410   .     A
C1702  C712    1.414   1_556 S
C1703  C1706   1.415   .     A
C1703  C1720   1.410   .     A
C1703  O1775   1.389   .     S
C1705  C1714   1.428   .     A
C1705  C698    1.389   1_556 S
C1707  H1766   1.112   .     S
C1707  C700    1.524   1_556 S
C1707  H1838   1.117   .     S
C1707  O1885   1.419   .     S
C1708  H1727   1.103   .     S
C1708  H1728   1.109   .     S
C1709  H1729   1.110   .     S
C1709  H1731   1.111   .     S
C1709  C700    1.527   1_556 S
C1709  H722    1.110   1_556 S
C1710  H1733   1.119   .     S
C1710  H1732   1.112   .     S
C1710  O1774   1.420   .     S
C1710  C1711   1.524   .     S
C1711  H1734   1.108   .     S
C1711  C1824   1.528   .     S
C1712  H1739   1.111   .     S
C1712  C1935   1.528   1_455 S
C1713  O1775   1.423   .     S
C1713  H1740   1.107   .     S
C1713  C1715   1.526   .     S
C1713  H1741   1.114   .     S
C1714  O1776   1.388   .     S
C1714  C1721   1.419   .     A
C1715  C1716   1.528   .     S
C1715  H1742   1.108   .     S
C1715  H1743   1.109   .     S
C1716  H1746   1.111   .     S
C1716  H1744   1.111   .     S
C1717  H1749   1.116   .     S
C1717  H1748   1.111   .     S
C1717  O1776   1.419   .     S
C1717  C1718   1.533   .     S
C1718  H1750   1.112   .     S
C1718  H1751   1.111   .     S
C1719  H1752   1.111   .     S
C1719  H1753   1.111   .     S
C1719  H1754   1.111   .     S
C1719  C1046   1.527   1_565 S
C1720  O1790   1.380   .     S
C1721  O1770   1.384   .     S
C1721  C696    1.412   1_556 S
C1722  O1777   1.383   .     S
C1722  C1052   1.382   1_565 S
C1723  O1778   1.382   .     S
C1724  H1747   1.085   .     S
H1726  C1931   1.117   1_455 S
H1735  C1039   1.109   1_565 S
H1737  C32     1.110   1_566 S
H1738  C1040   1.110   1_565 S
H1745  C1044   1.110   1_565 S
H1755  O1777   0.992   .     S
H1756  O1778   0.990   .     S
H1757  O1779   0.983   .     S
H1759  O1781   0.990   .     S
H1760  O1782   0.990   .     S
H1761  O1783   0.990   .     S
H1762  O1790   0.990   .     S
H1763  O1770   0.989   .     S
H1764  O1771   0.991   .     S
H1765  O1772   0.992   .     S
N1767  Zn1791  2.025   .     S
N1768  Zn1792  2.025   .     S
O1769  Zn1791  1.986   .     S
O1773  C1931   1.419   1_455 S
O1780  Zn1792  1.986   .     S
O1784  Zn1792  1.982   .     S
O1785  Zn1791  1.982   .     S
O1786  Zn1791  1.961   .     S
O1787  Zn1792  1.961   .     S
O1788  Zn1792  1.933   .     S
O1789  Zn1791  1.933   .     S
C1793  O1896   1.285   .     A
C1793  O1881   1.286   .     A
C1793  C1796   1.408   .     S
C1794  C1796   1.393   .     A
C1794  H1870   1.085   .     S
C1794  C1163   1.373   1_565 S
C1795  C1835   1.409   .     A
C1795  C1804   1.408   .     S
C1795  C1836   1.395   .     A
C1796  C1834   1.399   .     A
C1797  N1880   1.377   .     A
C1797  O1891   1.373   .     S
C1797  C1911   1.429   .     S
C1798  O1893   1.378   .     S
C1798  N1879   1.369   .     A
C1799  N1879   1.363   .     A
C1799  O1894   1.376   .     S
C1800  N1880   1.371   .     A
C1800  O1895   1.377   .     S
C1800  C1910   1.445   .     S
C1801  O1900   1.297   .     A
C1801  O1898   1.302   .     A
C1801  C1803   1.462   .     S
C1802  O1901   1.298   .     A
C1802  O1899   1.299   .     A
C1802  C1805   1.461   .     S
C1803  C1810   1.401   .     A
C1803  C1808   1.396   .     A
C1804  O1897   1.286   .     A
C1804  O1892   1.285   .     A
C1805  C1811   1.403   .     A
C1805  C1809   1.400   .     A
C1806  O1885   1.392   .     S
C1806  C1808   1.408   .     A
C1806  C1814   1.422   .     A
C1807  O1886   1.382   .     S
C1807  C1816   1.414   .     A
C1807  C1809   1.400   .     A
C1808  H1848   1.083   .     S
C1809  H1837   1.083   .     S
C1810  O1884   1.382   .     S
C1810  C1812   1.392   .     A
C1811  C1813   1.401   .     A
C1811  O1883   1.385   .     S
C1812  C1817   1.410   .     A
C1812  C1814   1.424   .     A
C1813  C1818   1.398   .     A
C1813  C1816   1.410   .     A
C1814  C824    1.414   1_556 S
C1815  C1818   1.415   .     A
C1815  C1832   1.410   .     A
C1815  O1887   1.389   .     S
C1817  C1826   1.428   .     A
C1817  C810    1.389   1_556 S
C1819  H1878   1.112   .     S
C1819  C812    1.524   1_556 S
C1819  H1950   1.117   .     S
C1819  O1997   1.419   .     S
C1820  H1839   1.103   .     S
C1820  H1840   1.109   .     S
C1821  H1841   1.110   .     S
C1821  H1843   1.111   .     S
C1821  C812    1.527   1_556 S
C1821  H834    1.110   1_556 S
C1822  H1845   1.119   .     S
C1822  H1844   1.112   .     S
C1822  O1886   1.420   .     S
C1822  C1823   1.524   .     S
C1823  H1846   1.108   .     S
C1823  C1936   1.528   .     S
C1824  H1851   1.111   .     S
C1825  O1887   1.423   .     S
C1825  H1852   1.107   .     S
C1825  C1827   1.526   .     S
C1825  H1853   1.114   .     S
C1826  O1888   1.388   .     S
C1826  C1833   1.419   .     A
C1827  C1828   1.528   .     S
C1827  H1854   1.108   .     S
C1827  H1855   1.109   .     S
C1828  H1858   1.111   .     S
C1828  H1856   1.111   .     S
C1829  H1861   1.116   .     S
C1829  H1860   1.111   .     S
C1829  O1888   1.419   .     S
C1829  C1830   1.533   .     S
C1830  H1862   1.112   .     S
C1830  H1863   1.111   .     S
C1831  H1864   1.111   .     S
C1831  H1865   1.111   .     S
C1831  H1866   1.111   .     S
C1831  C1158   1.527   1_565 S
C1832  O1902   1.380   .     S
C1833  O1882   1.384   .     S
C1833  C808    1.412   1_556 S
C1834  O1889   1.383   .     S
C1834  C1164   1.382   1_565 S
C1835  O1890   1.382   .     S
C1836  H1859   1.085   .     S
H1847  C1151   1.109   1_565 S
H1849  C144    1.110   1_566 S
H1850  C1152   1.110   1_565 S
H1857  C1156   1.110   1_565 S
H1867  O1889   0.992   .     S
H1868  O1890   0.990   .     S
H1869  O1891   0.983   .     S
H1871  O1893   0.990   .     S
H1872  O1894   0.990   .     S
H1873  O1895   0.990   .     S
H1874  O1902   0.990   .     S
H1875  O1882   0.989   .     S
H1876  O1883   0.991   .     S
H1877  O1884   0.992   .     S
N1879  Zn1903  2.025   .     S
N1880  Zn1904  2.025   .     S
O1881  Zn1903  1.986   .     S
O1892  Zn1904  1.986   .     S
O1896  Zn1904  1.982   .     S
O1897  Zn1903  1.982   .     S
O1898  Zn1903  1.961   .     S
O1899  Zn1904  1.961   .     S
O1900  Zn1904  1.933   .     S
O1901  Zn1903  1.933   .     S
C1905  O2008   1.285   .     A
C1905  O1993   1.286   .     A
C1905  C1908   1.408   .     S
C1906  C1908   1.393   .     A
C1906  H1982   1.085   .     S
C1906  C1275   1.373   1_565 S
C1907  C1947   1.409   .     A
C1907  C1916   1.408   .     S
C1907  C1948   1.395   .     A
C1908  C1946   1.399   .     A
C1909  N1992   1.377   .     A
C1909  O2003   1.373   .     S
C1909  C1687   1.429   1_655 S
C1910  O2005   1.378   .     S
C1910  N1991   1.369   .     A
C1911  N1991   1.363   .     A
C1911  O2006   1.376   .     S
C1912  N1992   1.371   .     A
C1912  O2007   1.377   .     S
C1912  C1686   1.445   1_655 S
C1913  O2012   1.297   .     A
C1913  O2010   1.302   .     A
C1913  C1915   1.462   .     S
C1914  O2013   1.298   .     A
C1914  O2011   1.299   .     A
C1914  C1917   1.461   .     S
C1915  C1922   1.401   .     A
C1915  C1920   1.396   .     A
C1916  O2009   1.286   .     A
C1916  O2004   1.285   .     A
C1917  C1923   1.403   .     A
C1917  C1921   1.400   .     A
C1918  O1997   1.392   .     S
C1918  C1920   1.408   .     A
C1918  C1926   1.422   .     A
C1919  O1998   1.382   .     S
C1919  C1928   1.414   .     A
C1919  C1921   1.400   .     A
C1920  H1960   1.083   .     S
C1921  H1949   1.083   .     S
C1922  O1996   1.382   .     S
C1922  C1924   1.392   .     A
C1923  C1925   1.401   .     A
C1923  O1995   1.385   .     S
C1924  C1929   1.410   .     A
C1924  C1926   1.424   .     A
C1925  C1930   1.398   .     A
C1925  C1928   1.410   .     A
C1926  C936    1.414   1_556 S
C1927  C1930   1.415   .     A
C1927  C1944   1.410   .     A
C1927  O1999   1.389   .     S
C1929  C1938   1.428   .     A
C1929  C922    1.389   1_556 S
C1931  H1990   1.112   .     S
C1931  C924    1.524   1_556 S
C1931  H1726   1.117   1_655 S
C1931  O1773   1.419   1_655 S
C1932  H1951   1.103   .     S
C1932  H1952   1.109   .     S
C1933  H1953   1.110   .     S
C1933  H1955   1.111   .     S
C1933  C924    1.527   1_556 S
C1933  H946    1.110   1_556 S
C1934  H1957   1.119   .     S
C1934  H1956   1.112   .     S
C1934  O1998   1.420   .     S
C1934  C1935   1.524   .     S
C1935  H1958   1.108   .     S
C1935  C1712   1.528   1_655 S
C1936  H1963   1.111   .     S
C1937  O1999   1.423   .     S
C1937  H1964   1.107   .     S
C1937  C1939   1.526   .     S
C1937  H1965   1.114   .     S
C1938  O2000   1.388   .     S
C1938  C1945   1.419   .     A
C1939  C1940   1.528   .     S
C1939  H1966   1.108   .     S
C1939  H1967   1.109   .     S
C1940  H1970   1.111   .     S
C1940  H1968   1.111   .     S
C1941  H1973   1.116   .     S
C1941  H1972   1.111   .     S
C1941  O2000   1.419   .     S
C1941  C1942   1.533   .     S
C1942  H1974   1.112   .     S
C1942  H1975   1.111   .     S
C1943  H1976   1.111   .     S
C1943  H1977   1.111   .     S
C1943  H1978   1.111   .     S
C1943  C1270   1.527   1_565 S
C1944  O2014   1.380   .     S
C1945  O1994   1.384   .     S
C1945  C920    1.412   1_556 S
C1946  O2001   1.383   .     S
C1946  C1276   1.382   1_565 S
C1947  O2002   1.382   .     S
C1948  H1971   1.085   .     S
H1959  C1263   1.109   1_565 S
H1961  C256    1.110   1_566 S
H1962  C1264   1.110   1_565 S
H1969  C1268   1.110   1_565 S
H1979  O2001   0.992   .     S
H1980  O2002   0.990   .     S
H1981  O2003   0.983   .     S
H1983  O2005   0.990   .     S
H1984  O2006   0.990   .     S
H1985  O2007   0.990   .     S
H1986  O2014   0.990   .     S
H1987  O1994   0.989   .     S
H1988  O1995   0.991   .     S
H1989  O1996   0.992   .     S
N1991  Zn2015  2.025   .     S
N1992  Zn2016  2.025   .     S
O1993  Zn2015  1.986   .     S
O2004  Zn2016  1.986   .     S
O2008  Zn2016  1.982   .     S
O2009  Zn2015  1.982   .     S
O2010  Zn2015  1.961   .     S
O2011  Zn2016  1.961   .     S
O2012  Zn2016  1.933   .     S
O2013  Zn2015  1.933   .     S
