data_str_m3_o1_o18_pcu_sym.143
_audit_creation_date              2020-01-03
_audit_creation_method            'Materials Studio'
_symmetry_space_group_name_H-M    'P1'
_symmetry_Int_Tables_number       1
_symmetry_cell_setting            triclinic
loop_
_symmetry_equiv_pos_as_xyz
  x,y,z
_cell_length_a                    29.5374
_cell_length_b                    32.1673
_cell_length_c                    30.7861
_cell_angle_alpha                 90.3505
_cell_angle_beta                  68.7822
_cell_angle_gamma                 90.2070
loop_
_atom_site_label
_atom_site_type_symbol
_atom_site_fract_x
_atom_site_fract_y
_atom_site_fract_z
_atom_site_U_iso_or_equiv
_atom_site_adp_type
_atom_site_occupancy
C1     C     0.16670   0.24671   0.25007   0.00000  Uiso   1.00
C2     C     0.16664   0.08662   0.24990   0.00000  Uiso   1.00
C3     C     0.09985   0.14169   0.05655   0.00000  Uiso   1.00
C4     C     0.20862   0.10751   0.45845   0.00000  Uiso   1.00
C5     C     0.06691   0.14712   0.03407   0.00000  Uiso   1.00
C6     C     0.24184   0.10278   0.48075   0.00000  Uiso   1.00
C7     C     0.20991   0.31216   0.24376   0.00000  Uiso   1.00
C8     C     0.12347   0.02118   0.25613   0.00000  Uiso   1.00
C9     C     0.20989   0.02141   0.24360   0.00000  Uiso   1.00
C10    C     0.12348   0.31193   0.25629   0.00000  Uiso   1.00
C11    C     0.16666   0.04248   0.24982   0.00000  Uiso   1.00
C12    C     0.16671   0.29087   0.25009   0.00000  Uiso   1.00
C13    C     0.31817   0.13700   0.22601   0.00000  Uiso   1.00
C14    C     0.01507   0.19619   0.27422   0.00000  Uiso   1.00
C15    C     0.03299   0.13661   0.22623   0.00000  Uiso   1.00
C16    C     0.30001   0.19622   0.27460   0.00000  Uiso   1.00
C17    C     0.13661   0.16649   0.33822   0.00000  Uiso   1.00
C18    C     0.19674   0.16606   0.16192   0.00000  Uiso   1.00
C19    C     0.11821   0.16214   0.38912   0.00000  Uiso   1.00
C20    C     0.21402   0.15683   0.11207   0.00000  Uiso   1.00
C21    C     0.05096   0.15872   0.46312   0.00000  Uiso   1.00
C22    C     0.26663   0.11682   0.04649   0.00000  Uiso   1.00
C23    C     0.06812   0.16314   0.41488   0.00000  Uiso   1.00
C24    C     0.25648   0.13362   0.09086   0.00000  Uiso   1.00
C25    C     0.15102   0.15570   0.41213   0.00000  Uiso   1.00
C26    C     0.18258   0.16419   0.08820   0.00000  Uiso   1.00
C27    C     0.13312   0.14350   0.45918   0.00000  Uiso   1.00
C28    C     0.18764   0.14038   0.04812   0.00000  Uiso   1.00
C29    C     0.08331   0.14961   0.48560   0.00000  Uiso   1.00
C30    C     0.23241   0.12008   0.02485   0.00000  Uiso   1.00
C31    C     0.16424   0.12924   0.48162   0.00000  Uiso   1.00
C32    C     0.15037   0.13746   0.02955   0.00000  Uiso   1.00
N33    N     0.04759   0.16668   0.25001   0.00000  Uiso   1.00
N34    N     0.28574   0.16666   0.24999   0.00000  Uiso   1.00
O35    O     0.12846   0.22775   0.25001   0.00000  Uiso   1.00
O36    O     0.20488   0.10558   0.25000   0.00000  Uiso   1.00
O37    O     0.20490   0.22774   0.25000   0.00000  Uiso   1.00
O38    O     0.12843   0.10559   0.25000   0.00000  Uiso   1.00
O39    O     0.10661   0.16667   0.31613   0.00000  Uiso   1.00
O40    O     0.22672   0.16666   0.18388   0.00000  Uiso   1.00
O41    O     0.18305   0.16666   0.31612   0.00000  Uiso   1.00
O42    O     0.15028   0.16667   0.18388   0.00000  Uiso   1.00
Zn43   Zn    0.11562   0.16667   0.25000   0.00000  Uiso   1.00
Zn44   Zn    0.21771   0.16666   0.25000   0.00000  Uiso   1.00
H45    H     0.02870   0.15068   0.05470   0.00000  Uiso   1.00
H46    H     0.27542   0.08612   0.46316   0.00000  Uiso   1.00
O47    O     0.14821   0.19526   0.10446   0.00000  Uiso   1.00
H48    H     0.14087   0.20640   0.07781   0.00000  Uiso   1.00
O49    O     0.19978   0.16430   0.38908   0.00000  Uiso   1.00
H50    H     0.21334   0.17559   0.41184   0.00000  Uiso   1.00
H51    H     0.28099   0.12752   0.10907   0.00000  Uiso   1.00
H52    H     0.04234   0.16881   0.39797   0.00000  Uiso   1.00
H53    H     0.01251   0.16242   0.48274   0.00000  Uiso   1.00
H54    H     0.30013   0.09978   0.03001   0.00000  Uiso   1.00
O55    O     0.08089   0.13758   0.10432   0.00000  Uiso   1.00
H56    H     0.10372   0.12064   0.11368   0.00000  Uiso   1.00
O57    O     0.21934   0.08808   0.41581   0.00000  Uiso   1.00
H58    H     0.18858   0.08248   0.41083   0.00000  Uiso   1.00
H59    H     0.24362   0.29607   0.23873   0.00000  Uiso   1.00
H60    H     0.08975   0.03726   0.26118   0.00000  Uiso   1.00
H61    H     0.24362   0.03768   0.23844   0.00000  Uiso   1.00
H62    H     0.08976   0.29567   0.26144   0.00000  Uiso   1.00
H63    H     0.30665   0.11351   0.20689   0.00000  Uiso   1.00
H64    H     0.02654   0.21958   0.29349   0.00000  Uiso   1.00
O65    O     0.06554   0.10610   0.20310   0.00000  Uiso   1.00
H66    H     0.04908   0.08606   0.18911   0.00000  Uiso   1.00
O67    O     0.26669   0.22548   0.29967   0.00000  Uiso   1.00
H68    H     0.28246   0.24445   0.31546   0.00000  Uiso   1.00
C69    C     0.50004   0.24671   0.25007   0.00000  Uiso   1.00
C70    C     0.49998   0.08662   0.24990   0.00000  Uiso   1.00
C71    C     0.43318   0.14169   0.05655   0.00000  Uiso   1.00
C72    C     0.54195   0.10751   0.45845   0.00000  Uiso   1.00
C73    C     0.40025   0.14712   0.03407   0.00000  Uiso   1.00
C74    C     0.57517   0.10278   0.48075   0.00000  Uiso   1.00
C75    C     0.54324   0.31216   0.24376   0.00000  Uiso   1.00
C76    C     0.45680   0.02118   0.25613   0.00000  Uiso   1.00
C77    C     0.54322   0.02141   0.24360   0.00000  Uiso   1.00
C78    C     0.45682   0.31193   0.25629   0.00000  Uiso   1.00
C79    C     0.49999   0.04248   0.24982   0.00000  Uiso   1.00
C80    C     0.50004   0.29087   0.25009   0.00000  Uiso   1.00
C81    C     0.65150   0.13700   0.22601   0.00000  Uiso   1.00
C82    C     0.34840   0.19619   0.27422   0.00000  Uiso   1.00
C83    C     0.36633   0.13661   0.22623   0.00000  Uiso   1.00
C84    C     0.63334   0.19622   0.27460   0.00000  Uiso   1.00
C85    C     0.46994   0.16649   0.33822   0.00000  Uiso   1.00
C86    C     0.53007   0.16606   0.16192   0.00000  Uiso   1.00
C87    C     0.45155   0.16214   0.38912   0.00000  Uiso   1.00
C88    C     0.54736   0.15683   0.11207   0.00000  Uiso   1.00
C89    C     0.38429   0.15872   0.46312   0.00000  Uiso   1.00
C90    C     0.59997   0.11682   0.04649   0.00000  Uiso   1.00
C91    C     0.40145   0.16314   0.41488   0.00000  Uiso   1.00
C92    C     0.58981   0.13362   0.09086   0.00000  Uiso   1.00
C93    C     0.48435   0.15570   0.41213   0.00000  Uiso   1.00
C94    C     0.51591   0.16419   0.08820   0.00000  Uiso   1.00
C95    C     0.46645   0.14350   0.45918   0.00000  Uiso   1.00
C96    C     0.52097   0.14038   0.04812   0.00000  Uiso   1.00
C97    C     0.41664   0.14961   0.48560   0.00000  Uiso   1.00
C98    C     0.56575   0.12008   0.02485   0.00000  Uiso   1.00
C99    C     0.49757   0.12924   0.48162   0.00000  Uiso   1.00
C100   C     0.48371   0.13746   0.02955   0.00000  Uiso   1.00
N101   N     0.38093   0.16668   0.25001   0.00000  Uiso   1.00
N102   N     0.61907   0.16666   0.24999   0.00000  Uiso   1.00
O103   O     0.46179   0.22775   0.25001   0.00000  Uiso   1.00
O104   O     0.53821   0.10558   0.25000   0.00000  Uiso   1.00
O105   O     0.53823   0.22774   0.25000   0.00000  Uiso   1.00
O106   O     0.46177   0.10559   0.25000   0.00000  Uiso   1.00
O107   O     0.43994   0.16667   0.31613   0.00000  Uiso   1.00
O108   O     0.56006   0.16666   0.18388   0.00000  Uiso   1.00
O109   O     0.51639   0.16666   0.31612   0.00000  Uiso   1.00
O110   O     0.48361   0.16667   0.18388   0.00000  Uiso   1.00
Zn111  Zn    0.44896   0.16667   0.25000   0.00000  Uiso   1.00
Zn112  Zn    0.55104   0.16666   0.25000   0.00000  Uiso   1.00
H113   H     0.36203   0.15068   0.05470   0.00000  Uiso   1.00
H114   H     0.60875   0.08612   0.46316   0.00000  Uiso   1.00
O115   O     0.48155   0.19526   0.10446   0.00000  Uiso   1.00
H116   H     0.47420   0.20640   0.07781   0.00000  Uiso   1.00
O117   O     0.53311   0.16430   0.38908   0.00000  Uiso   1.00
H118   H     0.54667   0.17559   0.41184   0.00000  Uiso   1.00
H119   H     0.61433   0.12752   0.10907   0.00000  Uiso   1.00
H120   H     0.37567   0.16881   0.39797   0.00000  Uiso   1.00
H121   H     0.34585   0.16242   0.48274   0.00000  Uiso   1.00
H122   H     0.63347   0.09978   0.03001   0.00000  Uiso   1.00
O123   O     0.41423   0.13758   0.10432   0.00000  Uiso   1.00
H124   H     0.43705   0.12064   0.11368   0.00000  Uiso   1.00
O125   O     0.55267   0.08808   0.41581   0.00000  Uiso   1.00
H126   H     0.52191   0.08248   0.41083   0.00000  Uiso   1.00
H127   H     0.57695   0.29607   0.23873   0.00000  Uiso   1.00
H128   H     0.42308   0.03726   0.26118   0.00000  Uiso   1.00
H129   H     0.57695   0.03768   0.23844   0.00000  Uiso   1.00
H130   H     0.42309   0.29567   0.26144   0.00000  Uiso   1.00
H131   H     0.63998   0.11351   0.20689   0.00000  Uiso   1.00
H132   H     0.35987   0.21958   0.29349   0.00000  Uiso   1.00
O133   O     0.39887   0.10610   0.20310   0.00000  Uiso   1.00
H134   H     0.38241   0.08606   0.18911   0.00000  Uiso   1.00
O135   O     0.60002   0.22548   0.29967   0.00000  Uiso   1.00
H136   H     0.61579   0.24445   0.31546   0.00000  Uiso   1.00
C137   C     0.83337   0.24671   0.25007   0.00000  Uiso   1.00
C138   C     0.83331   0.08662   0.24990   0.00000  Uiso   1.00
C139   C     0.76651   0.14169   0.05655   0.00000  Uiso   1.00
C140   C     0.87528   0.10751   0.45845   0.00000  Uiso   1.00
C141   C     0.73358   0.14712   0.03407   0.00000  Uiso   1.00
C142   C     0.90851   0.10278   0.48075   0.00000  Uiso   1.00
C143   C     0.87657   0.31216   0.24376   0.00000  Uiso   1.00
C144   C     0.79013   0.02118   0.25613   0.00000  Uiso   1.00
C145   C     0.87656   0.02141   0.24360   0.00000  Uiso   1.00
C146   C     0.79015   0.31193   0.25629   0.00000  Uiso   1.00
C147   C     0.83332   0.04248   0.24982   0.00000  Uiso   1.00
C148   C     0.83338   0.29087   0.25009   0.00000  Uiso   1.00
C149   C     0.98484   0.13700   0.22601   0.00000  Uiso   1.00
C150   C     0.68174   0.19619   0.27422   0.00000  Uiso   1.00
C151   C     0.69966   0.13661   0.22623   0.00000  Uiso   1.00
C152   C     0.96667   0.19622   0.27460   0.00000  Uiso   1.00
C153   C     0.80327   0.16649   0.33822   0.00000  Uiso   1.00
C154   C     0.86340   0.16606   0.16192   0.00000  Uiso   1.00
C155   C     0.78488   0.16214   0.38912   0.00000  Uiso   1.00
C156   C     0.88069   0.15683   0.11207   0.00000  Uiso   1.00
C157   C     0.71762   0.15872   0.46312   0.00000  Uiso   1.00
C158   C     0.93330   0.11682   0.04649   0.00000  Uiso   1.00
C159   C     0.73478   0.16314   0.41488   0.00000  Uiso   1.00
C160   C     0.92315   0.13362   0.09086   0.00000  Uiso   1.00
C161   C     0.81768   0.15570   0.41213   0.00000  Uiso   1.00
C162   C     0.84925   0.16419   0.08820   0.00000  Uiso   1.00
C163   C     0.79978   0.14350   0.45918   0.00000  Uiso   1.00
C164   C     0.85430   0.14038   0.04812   0.00000  Uiso   1.00
C165   C     0.74998   0.14961   0.48560   0.00000  Uiso   1.00
C166   C     0.89908   0.12008   0.02485   0.00000  Uiso   1.00
C167   C     0.83090   0.12924   0.48162   0.00000  Uiso   1.00
C168   C     0.81704   0.13746   0.02955   0.00000  Uiso   1.00
N169   N     0.71426   0.16668   0.25001   0.00000  Uiso   1.00
N170   N     0.95241   0.16666   0.24999   0.00000  Uiso   1.00
O171   O     0.79512   0.22775   0.25001   0.00000  Uiso   1.00
O172   O     0.87154   0.10558   0.25000   0.00000  Uiso   1.00
O173   O     0.87157   0.22774   0.25000   0.00000  Uiso   1.00
O174   O     0.79510   0.10559   0.25000   0.00000  Uiso   1.00
O175   O     0.77328   0.16667   0.31613   0.00000  Uiso   1.00
O176   O     0.89339   0.16666   0.18388   0.00000  Uiso   1.00
O177   O     0.84972   0.16666   0.31612   0.00000  Uiso   1.00
O178   O     0.81695   0.16667   0.18388   0.00000  Uiso   1.00
Zn179  Zn    0.78229   0.16667   0.25000   0.00000  Uiso   1.00
Zn180  Zn    0.88438   0.16666   0.25000   0.00000  Uiso   1.00
H181   H     0.69537   0.15068   0.05470   0.00000  Uiso   1.00
H182   H     0.94208   0.08612   0.46316   0.00000  Uiso   1.00
O183   O     0.81488   0.19526   0.10446   0.00000  Uiso   1.00
H184   H     0.80753   0.20640   0.07781   0.00000  Uiso   1.00
O185   O     0.86644   0.16430   0.38908   0.00000  Uiso   1.00
H186   H     0.88000   0.17559   0.41184   0.00000  Uiso   1.00
H187   H     0.94766   0.12752   0.10907   0.00000  Uiso   1.00
H188   H     0.70900   0.16881   0.39797   0.00000  Uiso   1.00
H189   H     0.67918   0.16242   0.48274   0.00000  Uiso   1.00
H190   H     0.96680   0.09978   0.03001   0.00000  Uiso   1.00
O191   O     0.74756   0.13758   0.10432   0.00000  Uiso   1.00
H192   H     0.77038   0.12064   0.11368   0.00000  Uiso   1.00
O193   O     0.88601   0.08808   0.41581   0.00000  Uiso   1.00
H194   H     0.85524   0.08248   0.41083   0.00000  Uiso   1.00
H195   H     0.91028   0.29607   0.23873   0.00000  Uiso   1.00
H196   H     0.75642   0.03726   0.26118   0.00000  Uiso   1.00
H197   H     0.91028   0.03768   0.23844   0.00000  Uiso   1.00
H198   H     0.75642   0.29567   0.26144   0.00000  Uiso   1.00
H199   H     0.97332   0.11351   0.20689   0.00000  Uiso   1.00
H200   H     0.69320   0.21958   0.29349   0.00000  Uiso   1.00
O201   O     0.73220   0.10610   0.20310   0.00000  Uiso   1.00
H202   H     0.71574   0.08606   0.18911   0.00000  Uiso   1.00
O203   O     0.93335   0.22548   0.29967   0.00000  Uiso   1.00
H204   H     0.94912   0.24445   0.31546   0.00000  Uiso   1.00
C205   C     0.16670   0.58004   0.25007   0.00000  Uiso   1.00
C206   C     0.16664   0.41996   0.24990   0.00000  Uiso   1.00
C207   C     0.09985   0.47502   0.05655   0.00000  Uiso   1.00
C208   C     0.20862   0.44084   0.45845   0.00000  Uiso   1.00
C209   C     0.06691   0.48045   0.03407   0.00000  Uiso   1.00
C210   C     0.24184   0.43612   0.48075   0.00000  Uiso   1.00
C211   C     0.20991   0.64550   0.24376   0.00000  Uiso   1.00
C212   C     0.12347   0.35451   0.25613   0.00000  Uiso   1.00
C213   C     0.20989   0.35474   0.24360   0.00000  Uiso   1.00
C214   C     0.12348   0.64527   0.25629   0.00000  Uiso   1.00
C215   C     0.16666   0.37581   0.24982   0.00000  Uiso   1.00
C216   C     0.16671   0.62420   0.25009   0.00000  Uiso   1.00
C217   C     0.31817   0.47034   0.22601   0.00000  Uiso   1.00
C218   C     0.01507   0.52952   0.27422   0.00000  Uiso   1.00
C219   C     0.03299   0.46994   0.22623   0.00000  Uiso   1.00
C220   C     0.30001   0.52955   0.27460   0.00000  Uiso   1.00
C221   C     0.13661   0.49983   0.33822   0.00000  Uiso   1.00
C222   C     0.19674   0.49940   0.16192   0.00000  Uiso   1.00
C223   C     0.11821   0.49548   0.38912   0.00000  Uiso   1.00
C224   C     0.21402   0.49017   0.11207   0.00000  Uiso   1.00
C225   C     0.05096   0.49206   0.46312   0.00000  Uiso   1.00
C226   C     0.26663   0.45015   0.04649   0.00000  Uiso   1.00
C227   C     0.06812   0.49648   0.41488   0.00000  Uiso   1.00
C228   C     0.25648   0.46695   0.09086   0.00000  Uiso   1.00
C229   C     0.15102   0.48904   0.41213   0.00000  Uiso   1.00
C230   C     0.18258   0.49752   0.08820   0.00000  Uiso   1.00
C231   C     0.13312   0.47683   0.45918   0.00000  Uiso   1.00
C232   C     0.18764   0.47371   0.04812   0.00000  Uiso   1.00
C233   C     0.08331   0.48294   0.48560   0.00000  Uiso   1.00
C234   C     0.23241   0.45341   0.02485   0.00000  Uiso   1.00
C235   C     0.16424   0.46258   0.48162   0.00000  Uiso   1.00
C236   C     0.15037   0.47079   0.02955   0.00000  Uiso   1.00
N237   N     0.04759   0.50001   0.25001   0.00000  Uiso   1.00
N238   N     0.28574   0.49999   0.24999   0.00000  Uiso   1.00
O239   O     0.12846   0.56108   0.25001   0.00000  Uiso   1.00
O240   O     0.20488   0.43892   0.25000   0.00000  Uiso   1.00
O241   O     0.20490   0.56107   0.25000   0.00000  Uiso   1.00
O242   O     0.12843   0.43893   0.25000   0.00000  Uiso   1.00
O243   O     0.10661   0.50001   0.31613   0.00000  Uiso   1.00
O244   O     0.22672   0.49999   0.18388   0.00000  Uiso   1.00
O245   O     0.18305   0.50000   0.31612   0.00000  Uiso   1.00
O246   O     0.15028   0.50000   0.18388   0.00000  Uiso   1.00
Zn247  Zn    0.11562   0.50001   0.25000   0.00000  Uiso   1.00
Zn248  Zn    0.21771   0.49999   0.25000   0.00000  Uiso   1.00
H249   H     0.02870   0.48401   0.05470   0.00000  Uiso   1.00
H250   H     0.27542   0.41946   0.46316   0.00000  Uiso   1.00
O251   O     0.14821   0.52860   0.10446   0.00000  Uiso   1.00
H252   H     0.14087   0.53974   0.07781   0.00000  Uiso   1.00
O253   O     0.19978   0.49763   0.38908   0.00000  Uiso   1.00
H254   H     0.21334   0.50892   0.41184   0.00000  Uiso   1.00
H255   H     0.28099   0.46086   0.10907   0.00000  Uiso   1.00
H256   H     0.04234   0.50214   0.39797   0.00000  Uiso   1.00
H257   H     0.01251   0.49575   0.48274   0.00000  Uiso   1.00
H258   H     0.30013   0.43311   0.03001   0.00000  Uiso   1.00
O259   O     0.08089   0.47091   0.10432   0.00000  Uiso   1.00
H260   H     0.10372   0.45397   0.11368   0.00000  Uiso   1.00
O261   O     0.21934   0.42141   0.41581   0.00000  Uiso   1.00
H262   H     0.18858   0.41581   0.41083   0.00000  Uiso   1.00
H263   H     0.24362   0.62941   0.23873   0.00000  Uiso   1.00
H264   H     0.08975   0.37060   0.26118   0.00000  Uiso   1.00
H265   H     0.24362   0.37101   0.23844   0.00000  Uiso   1.00
H266   H     0.08976   0.62900   0.26144   0.00000  Uiso   1.00
H267   H     0.30665   0.44684   0.20689   0.00000  Uiso   1.00
H268   H     0.02654   0.55291   0.29349   0.00000  Uiso   1.00
O269   O     0.06554   0.43943   0.20310   0.00000  Uiso   1.00
H270   H     0.04908   0.41939   0.18911   0.00000  Uiso   1.00
O271   O     0.26669   0.55882   0.29967   0.00000  Uiso   1.00
H272   H     0.28246   0.57778   0.31546   0.00000  Uiso   1.00
C273   C     0.50004   0.58004   0.25007   0.00000  Uiso   1.00
C274   C     0.49998   0.41996   0.24990   0.00000  Uiso   1.00
C275   C     0.43318   0.47502   0.05655   0.00000  Uiso   1.00
C276   C     0.54195   0.44084   0.45845   0.00000  Uiso   1.00
C277   C     0.40025   0.48045   0.03407   0.00000  Uiso   1.00
C278   C     0.57517   0.43612   0.48075   0.00000  Uiso   1.00
C279   C     0.54324   0.64550   0.24376   0.00000  Uiso   1.00
C280   C     0.45680   0.35451   0.25613   0.00000  Uiso   1.00
C281   C     0.54322   0.35474   0.24360   0.00000  Uiso   1.00
C282   C     0.45682   0.64527   0.25629   0.00000  Uiso   1.00
C283   C     0.49999   0.37581   0.24982   0.00000  Uiso   1.00
C284   C     0.50004   0.62420   0.25009   0.00000  Uiso   1.00
C285   C     0.65150   0.47034   0.22601   0.00000  Uiso   1.00
C286   C     0.34840   0.52952   0.27422   0.00000  Uiso   1.00
C287   C     0.36633   0.46994   0.22623   0.00000  Uiso   1.00
C288   C     0.63334   0.52955   0.27460   0.00000  Uiso   1.00
C289   C     0.46994   0.49983   0.33822   0.00000  Uiso   1.00
C290   C     0.53007   0.49940   0.16192   0.00000  Uiso   1.00
C291   C     0.45155   0.49548   0.38912   0.00000  Uiso   1.00
C292   C     0.54736   0.49017   0.11207   0.00000  Uiso   1.00
C293   C     0.38429   0.49206   0.46312   0.00000  Uiso   1.00
C294   C     0.59997   0.45015   0.04649   0.00000  Uiso   1.00
C295   C     0.40145   0.49648   0.41488   0.00000  Uiso   1.00
C296   C     0.58981   0.46695   0.09086   0.00000  Uiso   1.00
C297   C     0.48435   0.48904   0.41213   0.00000  Uiso   1.00
C298   C     0.51591   0.49752   0.08820   0.00000  Uiso   1.00
C299   C     0.46645   0.47683   0.45918   0.00000  Uiso   1.00
C300   C     0.52097   0.47371   0.04812   0.00000  Uiso   1.00
C301   C     0.41664   0.48294   0.48560   0.00000  Uiso   1.00
C302   C     0.56575   0.45341   0.02485   0.00000  Uiso   1.00
C303   C     0.49757   0.46258   0.48162   0.00000  Uiso   1.00
C304   C     0.48371   0.47079   0.02955   0.00000  Uiso   1.00
N305   N     0.38093   0.50001   0.25001   0.00000  Uiso   1.00
N306   N     0.61907   0.49999   0.24999   0.00000  Uiso   1.00
O307   O     0.46179   0.56108   0.25001   0.00000  Uiso   1.00
O308   O     0.53821   0.43892   0.25000   0.00000  Uiso   1.00
O309   O     0.53823   0.56107   0.25000   0.00000  Uiso   1.00
O310   O     0.46177   0.43893   0.25000   0.00000  Uiso   1.00
O311   O     0.43994   0.50001   0.31613   0.00000  Uiso   1.00
O312   O     0.56006   0.49999   0.18388   0.00000  Uiso   1.00
O313   O     0.51639   0.50000   0.31612   0.00000  Uiso   1.00
O314   O     0.48361   0.50000   0.18388   0.00000  Uiso   1.00
Zn315  Zn    0.44896   0.50001   0.25000   0.00000  Uiso   1.00
Zn316  Zn    0.55104   0.49999   0.25000   0.00000  Uiso   1.00
H317   H     0.36203   0.48401   0.05470   0.00000  Uiso   1.00
H318   H     0.60875   0.41946   0.46316   0.00000  Uiso   1.00
O319   O     0.48155   0.52860   0.10446   0.00000  Uiso   1.00
H320   H     0.47420   0.53974   0.07781   0.00000  Uiso   1.00
O321   O     0.53311   0.49763   0.38908   0.00000  Uiso   1.00
H322   H     0.54667   0.50892   0.41184   0.00000  Uiso   1.00
H323   H     0.61433   0.46086   0.10907   0.00000  Uiso   1.00
H324   H     0.37567   0.50214   0.39797   0.00000  Uiso   1.00
H325   H     0.34585   0.49575   0.48274   0.00000  Uiso   1.00
H326   H     0.63347   0.43311   0.03001   0.00000  Uiso   1.00
O327   O     0.41423   0.47091   0.10432   0.00000  Uiso   1.00
H328   H     0.43705   0.45397   0.11368   0.00000  Uiso   1.00
O329   O     0.55267   0.42141   0.41581   0.00000  Uiso   1.00
H330   H     0.52191   0.41581   0.41083   0.00000  Uiso   1.00
H331   H     0.57695   0.62941   0.23873   0.00000  Uiso   1.00
H332   H     0.42308   0.37060   0.26118   0.00000  Uiso   1.00
H333   H     0.57695   0.37101   0.23844   0.00000  Uiso   1.00
H334   H     0.42309   0.62900   0.26144   0.00000  Uiso   1.00
H335   H     0.63998   0.44684   0.20689   0.00000  Uiso   1.00
H336   H     0.35987   0.55291   0.29349   0.00000  Uiso   1.00
O337   O     0.39887   0.43943   0.20310   0.00000  Uiso   1.00
H338   H     0.38241   0.41939   0.18911   0.00000  Uiso   1.00
O339   O     0.60002   0.55882   0.29967   0.00000  Uiso   1.00
H340   H     0.61579   0.57778   0.31546   0.00000  Uiso   1.00
C341   C     0.83337   0.58004   0.25007   0.00000  Uiso   1.00
C342   C     0.83331   0.41996   0.24990   0.00000  Uiso   1.00
C343   C     0.76651   0.47502   0.05655   0.00000  Uiso   1.00
C344   C     0.87528   0.44084   0.45845   0.00000  Uiso   1.00
C345   C     0.73358   0.48045   0.03407   0.00000  Uiso   1.00
C346   C     0.90851   0.43612   0.48075   0.00000  Uiso   1.00
C347   C     0.87657   0.64550   0.24376   0.00000  Uiso   1.00
C348   C     0.79013   0.35451   0.25613   0.00000  Uiso   1.00
C349   C     0.87656   0.35474   0.24360   0.00000  Uiso   1.00
C350   C     0.79015   0.64527   0.25629   0.00000  Uiso   1.00
C351   C     0.83332   0.37581   0.24982   0.00000  Uiso   1.00
C352   C     0.83338   0.62420   0.25009   0.00000  Uiso   1.00
C353   C     0.98484   0.47034   0.22601   0.00000  Uiso   1.00
C354   C     0.68174   0.52952   0.27422   0.00000  Uiso   1.00
C355   C     0.69966   0.46994   0.22623   0.00000  Uiso   1.00
C356   C     0.96667   0.52955   0.27460   0.00000  Uiso   1.00
C357   C     0.80327   0.49983   0.33822   0.00000  Uiso   1.00
C358   C     0.86340   0.49940   0.16192   0.00000  Uiso   1.00
C359   C     0.78488   0.49548   0.38912   0.00000  Uiso   1.00
C360   C     0.88069   0.49017   0.11207   0.00000  Uiso   1.00
C361   C     0.71762   0.49206   0.46312   0.00000  Uiso   1.00
C362   C     0.93330   0.45015   0.04649   0.00000  Uiso   1.00
C363   C     0.73478   0.49648   0.41488   0.00000  Uiso   1.00
C364   C     0.92315   0.46695   0.09086   0.00000  Uiso   1.00
C365   C     0.81768   0.48904   0.41213   0.00000  Uiso   1.00
C366   C     0.84925   0.49752   0.08820   0.00000  Uiso   1.00
C367   C     0.79978   0.47683   0.45918   0.00000  Uiso   1.00
C368   C     0.85430   0.47371   0.04812   0.00000  Uiso   1.00
C369   C     0.74998   0.48294   0.48560   0.00000  Uiso   1.00
C370   C     0.89908   0.45341   0.02485   0.00000  Uiso   1.00
C371   C     0.83090   0.46258   0.48162   0.00000  Uiso   1.00
C372   C     0.81704   0.47079   0.02955   0.00000  Uiso   1.00
N373   N     0.71426   0.50001   0.25001   0.00000  Uiso   1.00
N374   N     0.95241   0.49999   0.24999   0.00000  Uiso   1.00
O375   O     0.79512   0.56108   0.25001   0.00000  Uiso   1.00
O376   O     0.87154   0.43892   0.25000   0.00000  Uiso   1.00
O377   O     0.87157   0.56107   0.25000   0.00000  Uiso   1.00
O378   O     0.79510   0.43893   0.25000   0.00000  Uiso   1.00
O379   O     0.77328   0.50001   0.31613   0.00000  Uiso   1.00
O380   O     0.89339   0.49999   0.18388   0.00000  Uiso   1.00
O381   O     0.84972   0.50000   0.31612   0.00000  Uiso   1.00
O382   O     0.81695   0.50000   0.18388   0.00000  Uiso   1.00
Zn383  Zn    0.78229   0.50001   0.25000   0.00000  Uiso   1.00
Zn384  Zn    0.88438   0.49999   0.25000   0.00000  Uiso   1.00
H385   H     0.69537   0.48401   0.05470   0.00000  Uiso   1.00
H386   H     0.94208   0.41946   0.46316   0.00000  Uiso   1.00
O387   O     0.81488   0.52860   0.10446   0.00000  Uiso   1.00
H388   H     0.80753   0.53974   0.07781   0.00000  Uiso   1.00
O389   O     0.86644   0.49763   0.38908   0.00000  Uiso   1.00
H390   H     0.88000   0.50892   0.41184   0.00000  Uiso   1.00
H391   H     0.94766   0.46086   0.10907   0.00000  Uiso   1.00
H392   H     0.70900   0.50214   0.39797   0.00000  Uiso   1.00
H393   H     0.67918   0.49575   0.48274   0.00000  Uiso   1.00
H394   H     0.96680   0.43311   0.03001   0.00000  Uiso   1.00
O395   O     0.74756   0.47091   0.10432   0.00000  Uiso   1.00
H396   H     0.77038   0.45397   0.11368   0.00000  Uiso   1.00
O397   O     0.88601   0.42141   0.41581   0.00000  Uiso   1.00
H398   H     0.85524   0.41581   0.41083   0.00000  Uiso   1.00
H399   H     0.91028   0.62941   0.23873   0.00000  Uiso   1.00
H400   H     0.75642   0.37060   0.26118   0.00000  Uiso   1.00
H401   H     0.91028   0.37101   0.23844   0.00000  Uiso   1.00
H402   H     0.75642   0.62900   0.26144   0.00000  Uiso   1.00
H403   H     0.97332   0.44684   0.20689   0.00000  Uiso   1.00
H404   H     0.69320   0.55291   0.29349   0.00000  Uiso   1.00
O405   O     0.73220   0.43943   0.20310   0.00000  Uiso   1.00
H406   H     0.71574   0.41939   0.18911   0.00000  Uiso   1.00
O407   O     0.93335   0.55882   0.29967   0.00000  Uiso   1.00
H408   H     0.94912   0.57778   0.31546   0.00000  Uiso   1.00
C409   C     0.16670   0.91338   0.25007   0.00000  Uiso   1.00
C410   C     0.16664   0.75329   0.24990   0.00000  Uiso   1.00
C411   C     0.09985   0.80836   0.05655   0.00000  Uiso   1.00
C412   C     0.20862   0.77417   0.45845   0.00000  Uiso   1.00
C413   C     0.06691   0.81378   0.03407   0.00000  Uiso   1.00
C414   C     0.24184   0.76945   0.48075   0.00000  Uiso   1.00
C415   C     0.20991   0.97883   0.24376   0.00000  Uiso   1.00
C416   C     0.12347   0.68785   0.25613   0.00000  Uiso   1.00
C417   C     0.20989   0.68808   0.24360   0.00000  Uiso   1.00
C418   C     0.12348   0.97860   0.25629   0.00000  Uiso   1.00
C419   C     0.16666   0.70914   0.24982   0.00000  Uiso   1.00
C420   C     0.16671   0.95753   0.25009   0.00000  Uiso   1.00
C421   C     0.31817   0.80367   0.22601   0.00000  Uiso   1.00
C422   C     0.01507   0.86286   0.27422   0.00000  Uiso   1.00
C423   C     0.03299   0.80327   0.22623   0.00000  Uiso   1.00
C424   C     0.30001   0.86288   0.27460   0.00000  Uiso   1.00
C425   C     0.13661   0.83316   0.33822   0.00000  Uiso   1.00
C426   C     0.19674   0.83273   0.16192   0.00000  Uiso   1.00
C427   C     0.11821   0.82881   0.38912   0.00000  Uiso   1.00
C428   C     0.21402   0.82350   0.11207   0.00000  Uiso   1.00
C429   C     0.05096   0.82539   0.46312   0.00000  Uiso   1.00
C430   C     0.26663   0.78349   0.04649   0.00000  Uiso   1.00
C431   C     0.06812   0.82981   0.41488   0.00000  Uiso   1.00
C432   C     0.25648   0.80028   0.09086   0.00000  Uiso   1.00
C433   C     0.15102   0.82237   0.41213   0.00000  Uiso   1.00
C434   C     0.18258   0.83086   0.08820   0.00000  Uiso   1.00
C435   C     0.13312   0.81017   0.45918   0.00000  Uiso   1.00
C436   C     0.18764   0.80705   0.04812   0.00000  Uiso   1.00
C437   C     0.08331   0.81628   0.48560   0.00000  Uiso   1.00
C438   C     0.23241   0.78675   0.02485   0.00000  Uiso   1.00
C439   C     0.16424   0.79591   0.48162   0.00000  Uiso   1.00
C440   C     0.15037   0.80412   0.02955   0.00000  Uiso   1.00
N441   N     0.04759   0.83334   0.25001   0.00000  Uiso   1.00
N442   N     0.28574   0.83332   0.24999   0.00000  Uiso   1.00
O443   O     0.12846   0.89442   0.25001   0.00000  Uiso   1.00
O444   O     0.20488   0.77225   0.25000   0.00000  Uiso   1.00
O445   O     0.20490   0.89441   0.25000   0.00000  Uiso   1.00
O446   O     0.12843   0.77226   0.25000   0.00000  Uiso   1.00
O447   O     0.10661   0.83334   0.31613   0.00000  Uiso   1.00
O448   O     0.22672   0.83333   0.18388   0.00000  Uiso   1.00
O449   O     0.18305   0.83333   0.31612   0.00000  Uiso   1.00
O450   O     0.15028   0.83334   0.18388   0.00000  Uiso   1.00
Zn451  Zn    0.11562   0.83334   0.25000   0.00000  Uiso   1.00
Zn452  Zn    0.21771   0.83333   0.25000   0.00000  Uiso   1.00
H453   H     0.02870   0.81735   0.05470   0.00000  Uiso   1.00
H454   H     0.27542   0.75279   0.46316   0.00000  Uiso   1.00
O455   O     0.14821   0.86193   0.10446   0.00000  Uiso   1.00
H456   H     0.14087   0.87307   0.07781   0.00000  Uiso   1.00
O457   O     0.19978   0.83097   0.38908   0.00000  Uiso   1.00
H458   H     0.21334   0.84225   0.41184   0.00000  Uiso   1.00
H459   H     0.28099   0.79419   0.10907   0.00000  Uiso   1.00
H460   H     0.04234   0.83547   0.39797   0.00000  Uiso   1.00
H461   H     0.01251   0.82908   0.48274   0.00000  Uiso   1.00
H462   H     0.30013   0.76644   0.03001   0.00000  Uiso   1.00
O463   O     0.08089   0.80425   0.10432   0.00000  Uiso   1.00
H464   H     0.10372   0.78731   0.11368   0.00000  Uiso   1.00
O465   O     0.21934   0.75474   0.41581   0.00000  Uiso   1.00
H466   H     0.18858   0.74915   0.41083   0.00000  Uiso   1.00
H467   H     0.24362   0.96274   0.23873   0.00000  Uiso   1.00
H468   H     0.08975   0.70393   0.26118   0.00000  Uiso   1.00
H469   H     0.24362   0.70435   0.23844   0.00000  Uiso   1.00
H470   H     0.08976   0.96233   0.26144   0.00000  Uiso   1.00
H471   H     0.30665   0.78018   0.20689   0.00000  Uiso   1.00
H472   H     0.02654   0.88625   0.29349   0.00000  Uiso   1.00
O473   O     0.06554   0.77276   0.20310   0.00000  Uiso   1.00
H474   H     0.04908   0.75272   0.18911   0.00000  Uiso   1.00
O475   O     0.26669   0.89215   0.29967   0.00000  Uiso   1.00
H476   H     0.28246   0.91111   0.31546   0.00000  Uiso   1.00
C477   C     0.50004   0.91338   0.25007   0.00000  Uiso   1.00
C478   C     0.49998   0.75329   0.24990   0.00000  Uiso   1.00
C479   C     0.43318   0.80836   0.05655   0.00000  Uiso   1.00
C480   C     0.54195   0.77417   0.45845   0.00000  Uiso   1.00
C481   C     0.40025   0.81378   0.03407   0.00000  Uiso   1.00
C482   C     0.57517   0.76945   0.48075   0.00000  Uiso   1.00
C483   C     0.54324   0.97883   0.24376   0.00000  Uiso   1.00
C484   C     0.45680   0.68785   0.25613   0.00000  Uiso   1.00
C485   C     0.54322   0.68808   0.24360   0.00000  Uiso   1.00
C486   C     0.45682   0.97860   0.25629   0.00000  Uiso   1.00
C487   C     0.49999   0.70914   0.24982   0.00000  Uiso   1.00
C488   C     0.50004   0.95753   0.25009   0.00000  Uiso   1.00
C489   C     0.65150   0.80367   0.22601   0.00000  Uiso   1.00
C490   C     0.34840   0.86286   0.27422   0.00000  Uiso   1.00
C491   C     0.36633   0.80327   0.22623   0.00000  Uiso   1.00
C492   C     0.63334   0.86288   0.27460   0.00000  Uiso   1.00
C493   C     0.46994   0.83316   0.33822   0.00000  Uiso   1.00
C494   C     0.53007   0.83273   0.16192   0.00000  Uiso   1.00
C495   C     0.45155   0.82881   0.38912   0.00000  Uiso   1.00
C496   C     0.54736   0.82350   0.11207   0.00000  Uiso   1.00
C497   C     0.38429   0.82539   0.46312   0.00000  Uiso   1.00
C498   C     0.59997   0.78349   0.04649   0.00000  Uiso   1.00
C499   C     0.40145   0.82981   0.41488   0.00000  Uiso   1.00
C500   C     0.58981   0.80028   0.09086   0.00000  Uiso   1.00
C501   C     0.48435   0.82237   0.41213   0.00000  Uiso   1.00
C502   C     0.51591   0.83086   0.08820   0.00000  Uiso   1.00
C503   C     0.46645   0.81017   0.45918   0.00000  Uiso   1.00
C504   C     0.52097   0.80705   0.04812   0.00000  Uiso   1.00
C505   C     0.41664   0.81628   0.48560   0.00000  Uiso   1.00
C506   C     0.56575   0.78675   0.02485   0.00000  Uiso   1.00
C507   C     0.49757   0.79591   0.48162   0.00000  Uiso   1.00
C508   C     0.48371   0.80412   0.02955   0.00000  Uiso   1.00
N509   N     0.38093   0.83334   0.25001   0.00000  Uiso   1.00
N510   N     0.61907   0.83332   0.24999   0.00000  Uiso   1.00
O511   O     0.46179   0.89442   0.25001   0.00000  Uiso   1.00
O512   O     0.53821   0.77225   0.25000   0.00000  Uiso   1.00
O513   O     0.53823   0.89441   0.25000   0.00000  Uiso   1.00
O514   O     0.46177   0.77226   0.25000   0.00000  Uiso   1.00
O515   O     0.43994   0.83334   0.31613   0.00000  Uiso   1.00
O516   O     0.56006   0.83333   0.18388   0.00000  Uiso   1.00
O517   O     0.51639   0.83333   0.31612   0.00000  Uiso   1.00
O518   O     0.48361   0.83334   0.18388   0.00000  Uiso   1.00
Zn519  Zn    0.44896   0.83334   0.25000   0.00000  Uiso   1.00
Zn520  Zn    0.55104   0.83333   0.25000   0.00000  Uiso   1.00
H521   H     0.36203   0.81735   0.05470   0.00000  Uiso   1.00
H522   H     0.60875   0.75279   0.46316   0.00000  Uiso   1.00
O523   O     0.48155   0.86193   0.10446   0.00000  Uiso   1.00
H524   H     0.47420   0.87307   0.07781   0.00000  Uiso   1.00
O525   O     0.53311   0.83097   0.38908   0.00000  Uiso   1.00
H526   H     0.54667   0.84225   0.41184   0.00000  Uiso   1.00
H527   H     0.61433   0.79419   0.10907   0.00000  Uiso   1.00
H528   H     0.37567   0.83547   0.39797   0.00000  Uiso   1.00
H529   H     0.34585   0.82908   0.48274   0.00000  Uiso   1.00
H530   H     0.63347   0.76644   0.03001   0.00000  Uiso   1.00
O531   O     0.41423   0.80425   0.10432   0.00000  Uiso   1.00
H532   H     0.43705   0.78731   0.11368   0.00000  Uiso   1.00
O533   O     0.55267   0.75474   0.41581   0.00000  Uiso   1.00
H534   H     0.52191   0.74915   0.41083   0.00000  Uiso   1.00
H535   H     0.57695   0.96274   0.23873   0.00000  Uiso   1.00
H536   H     0.42308   0.70393   0.26118   0.00000  Uiso   1.00
H537   H     0.57695   0.70435   0.23844   0.00000  Uiso   1.00
H538   H     0.42309   0.96233   0.26144   0.00000  Uiso   1.00
H539   H     0.63998   0.78018   0.20689   0.00000  Uiso   1.00
H540   H     0.35987   0.88625   0.29349   0.00000  Uiso   1.00
O541   O     0.39887   0.77276   0.20310   0.00000  Uiso   1.00
H542   H     0.38241   0.75272   0.18911   0.00000  Uiso   1.00
O543   O     0.60002   0.89215   0.29967   0.00000  Uiso   1.00
H544   H     0.61579   0.91111   0.31546   0.00000  Uiso   1.00
C545   C     0.83337   0.91338   0.25007   0.00000  Uiso   1.00
C546   C     0.83331   0.75329   0.24990   0.00000  Uiso   1.00
C547   C     0.76651   0.80836   0.05655   0.00000  Uiso   1.00
C548   C     0.87528   0.77417   0.45845   0.00000  Uiso   1.00
C549   C     0.73358   0.81378   0.03407   0.00000  Uiso   1.00
C550   C     0.90851   0.76945   0.48075   0.00000  Uiso   1.00
C551   C     0.87657   0.97883   0.24376   0.00000  Uiso   1.00
C552   C     0.79013   0.68785   0.25613   0.00000  Uiso   1.00
C553   C     0.87656   0.68808   0.24360   0.00000  Uiso   1.00
C554   C     0.79015   0.97860   0.25629   0.00000  Uiso   1.00
C555   C     0.83332   0.70914   0.24982   0.00000  Uiso   1.00
C556   C     0.83338   0.95753   0.25009   0.00000  Uiso   1.00
C557   C     0.98484   0.80367   0.22601   0.00000  Uiso   1.00
C558   C     0.68174   0.86286   0.27422   0.00000  Uiso   1.00
C559   C     0.69966   0.80327   0.22623   0.00000  Uiso   1.00
C560   C     0.96667   0.86288   0.27460   0.00000  Uiso   1.00
C561   C     0.80327   0.83316   0.33822   0.00000  Uiso   1.00
C562   C     0.86340   0.83273   0.16192   0.00000  Uiso   1.00
C563   C     0.78488   0.82881   0.38912   0.00000  Uiso   1.00
C564   C     0.88069   0.82350   0.11207   0.00000  Uiso   1.00
C565   C     0.71762   0.82539   0.46312   0.00000  Uiso   1.00
C566   C     0.93330   0.78349   0.04649   0.00000  Uiso   1.00
C567   C     0.73478   0.82981   0.41488   0.00000  Uiso   1.00
C568   C     0.92315   0.80028   0.09086   0.00000  Uiso   1.00
C569   C     0.81768   0.82237   0.41213   0.00000  Uiso   1.00
C570   C     0.84925   0.83086   0.08820   0.00000  Uiso   1.00
C571   C     0.79978   0.81017   0.45918   0.00000  Uiso   1.00
C572   C     0.85430   0.80705   0.04812   0.00000  Uiso   1.00
C573   C     0.74998   0.81628   0.48560   0.00000  Uiso   1.00
C574   C     0.89908   0.78675   0.02485   0.00000  Uiso   1.00
C575   C     0.83090   0.79591   0.48162   0.00000  Uiso   1.00
C576   C     0.81704   0.80412   0.02955   0.00000  Uiso   1.00
N577   N     0.71426   0.83334   0.25001   0.00000  Uiso   1.00
N578   N     0.95241   0.83332   0.24999   0.00000  Uiso   1.00
O579   O     0.79512   0.89442   0.25001   0.00000  Uiso   1.00
O580   O     0.87154   0.77225   0.25000   0.00000  Uiso   1.00
O581   O     0.87157   0.89441   0.25000   0.00000  Uiso   1.00
O582   O     0.79510   0.77226   0.25000   0.00000  Uiso   1.00
O583   O     0.77328   0.83334   0.31613   0.00000  Uiso   1.00
O584   O     0.89339   0.83333   0.18388   0.00000  Uiso   1.00
O585   O     0.84972   0.83333   0.31612   0.00000  Uiso   1.00
O586   O     0.81695   0.83334   0.18388   0.00000  Uiso   1.00
Zn587  Zn    0.78229   0.83334   0.25000   0.00000  Uiso   1.00
Zn588  Zn    0.88438   0.83333   0.25000   0.00000  Uiso   1.00
H589   H     0.69537   0.81735   0.05470   0.00000  Uiso   1.00
H590   H     0.94208   0.75279   0.46316   0.00000  Uiso   1.00
O591   O     0.81488   0.86193   0.10446   0.00000  Uiso   1.00
H592   H     0.80753   0.87307   0.07781   0.00000  Uiso   1.00
O593   O     0.86644   0.83097   0.38908   0.00000  Uiso   1.00
H594   H     0.88000   0.84225   0.41184   0.00000  Uiso   1.00
H595   H     0.94766   0.79419   0.10907   0.00000  Uiso   1.00
H596   H     0.70900   0.83547   0.39797   0.00000  Uiso   1.00
H597   H     0.67918   0.82908   0.48274   0.00000  Uiso   1.00
H598   H     0.96680   0.76644   0.03001   0.00000  Uiso   1.00
O599   O     0.74756   0.80425   0.10432   0.00000  Uiso   1.00
H600   H     0.77038   0.78731   0.11368   0.00000  Uiso   1.00
O601   O     0.88601   0.75474   0.41581   0.00000  Uiso   1.00
H602   H     0.85524   0.74915   0.41083   0.00000  Uiso   1.00
H603   H     0.91028   0.96274   0.23873   0.00000  Uiso   1.00
H604   H     0.75642   0.70393   0.26118   0.00000  Uiso   1.00
H605   H     0.91028   0.70435   0.23844   0.00000  Uiso   1.00
H606   H     0.75642   0.96233   0.26144   0.00000  Uiso   1.00
H607   H     0.97332   0.78018   0.20689   0.00000  Uiso   1.00
H608   H     0.69320   0.88625   0.29349   0.00000  Uiso   1.00
O609   O     0.73220   0.77276   0.20310   0.00000  Uiso   1.00
H610   H     0.71574   0.75272   0.18911   0.00000  Uiso   1.00
O611   O     0.93335   0.89215   0.29967   0.00000  Uiso   1.00
H612   H     0.94912   0.91111   0.31546   0.00000  Uiso   1.00
C613   C     0.16670   0.24671   0.75007   0.00000  Uiso   1.00
C614   C     0.16664   0.08662   0.74990   0.00000  Uiso   1.00
C615   C     0.09985   0.14169   0.55655   0.00000  Uiso   1.00
C616   C     0.20862   0.10751   0.95845   0.00000  Uiso   1.00
C617   C     0.06691   0.14712   0.53407   0.00000  Uiso   1.00
C618   C     0.24184   0.10278   0.98075   0.00000  Uiso   1.00
C619   C     0.20991   0.31216   0.74376   0.00000  Uiso   1.00
C620   C     0.12347   0.02118   0.75613   0.00000  Uiso   1.00
C621   C     0.20989   0.02141   0.74360   0.00000  Uiso   1.00
C622   C     0.12348   0.31193   0.75629   0.00000  Uiso   1.00
C623   C     0.16666   0.04248   0.74982   0.00000  Uiso   1.00
C624   C     0.16671   0.29087   0.75009   0.00000  Uiso   1.00
C625   C     0.31817   0.13700   0.72601   0.00000  Uiso   1.00
C626   C     0.01507   0.19619   0.77422   0.00000  Uiso   1.00
C627   C     0.03299   0.13661   0.72623   0.00000  Uiso   1.00
C628   C     0.30001   0.19622   0.77460   0.00000  Uiso   1.00
C629   C     0.13661   0.16649   0.83822   0.00000  Uiso   1.00
C630   C     0.19674   0.16606   0.66192   0.00000  Uiso   1.00
C631   C     0.11821   0.16214   0.88912   0.00000  Uiso   1.00
C632   C     0.21402   0.15683   0.61207   0.00000  Uiso   1.00
C633   C     0.05096   0.15872   0.96312   0.00000  Uiso   1.00
C634   C     0.26663   0.11682   0.54649   0.00000  Uiso   1.00
C635   C     0.06812   0.16314   0.91488   0.00000  Uiso   1.00
C636   C     0.25648   0.13362   0.59086   0.00000  Uiso   1.00
C637   C     0.15102   0.15570   0.91213   0.00000  Uiso   1.00
C638   C     0.18258   0.16419   0.58820   0.00000  Uiso   1.00
C639   C     0.13312   0.14350   0.95918   0.00000  Uiso   1.00
C640   C     0.18764   0.14038   0.54812   0.00000  Uiso   1.00
C641   C     0.08331   0.14961   0.98560   0.00000  Uiso   1.00
C642   C     0.23241   0.12008   0.52485   0.00000  Uiso   1.00
C643   C     0.16424   0.12924   0.98162   0.00000  Uiso   1.00
C644   C     0.15037   0.13746   0.52955   0.00000  Uiso   1.00
N645   N     0.04759   0.16668   0.75001   0.00000  Uiso   1.00
N646   N     0.28574   0.16666   0.74999   0.00000  Uiso   1.00
O647   O     0.12846   0.22775   0.75001   0.00000  Uiso   1.00
O648   O     0.20488   0.10558   0.75000   0.00000  Uiso   1.00
O649   O     0.20490   0.22774   0.75000   0.00000  Uiso   1.00
O650   O     0.12843   0.10559   0.75000   0.00000  Uiso   1.00
O651   O     0.10661   0.16667   0.81613   0.00000  Uiso   1.00
O652   O     0.22672   0.16666   0.68388   0.00000  Uiso   1.00
O653   O     0.18305   0.16666   0.81612   0.00000  Uiso   1.00
O654   O     0.15028   0.16667   0.68388   0.00000  Uiso   1.00
Zn655  Zn    0.11562   0.16667   0.75000   0.00000  Uiso   1.00
Zn656  Zn    0.21771   0.16666   0.75000   0.00000  Uiso   1.00
H657   H     0.02870   0.15068   0.55470   0.00000  Uiso   1.00
H658   H     0.27542   0.08612   0.96316   0.00000  Uiso   1.00
O659   O     0.14821   0.19526   0.60446   0.00000  Uiso   1.00
H660   H     0.14087   0.20640   0.57781   0.00000  Uiso   1.00
O661   O     0.19978   0.16430   0.88908   0.00000  Uiso   1.00
H662   H     0.21334   0.17559   0.91184   0.00000  Uiso   1.00
H663   H     0.28099   0.12752   0.60907   0.00000  Uiso   1.00
H664   H     0.04234   0.16881   0.89797   0.00000  Uiso   1.00
H665   H     0.01251   0.16242   0.98274   0.00000  Uiso   1.00
H666   H     0.30013   0.09978   0.53001   0.00000  Uiso   1.00
O667   O     0.08089   0.13758   0.60432   0.00000  Uiso   1.00
H668   H     0.10372   0.12064   0.61368   0.00000  Uiso   1.00
O669   O     0.21934   0.08808   0.91581   0.00000  Uiso   1.00
H670   H     0.18858   0.08248   0.91083   0.00000  Uiso   1.00
H671   H     0.24362   0.29607   0.73873   0.00000  Uiso   1.00
H672   H     0.08975   0.03726   0.76118   0.00000  Uiso   1.00
H673   H     0.24362   0.03768   0.73844   0.00000  Uiso   1.00
H674   H     0.08976   0.29567   0.76144   0.00000  Uiso   1.00
H675   H     0.30665   0.11351   0.70689   0.00000  Uiso   1.00
H676   H     0.02654   0.21958   0.79349   0.00000  Uiso   1.00
O677   O     0.06554   0.10610   0.70310   0.00000  Uiso   1.00
H678   H     0.04908   0.08606   0.68911   0.00000  Uiso   1.00
O679   O     0.26669   0.22548   0.79967   0.00000  Uiso   1.00
H680   H     0.28246   0.24445   0.81546   0.00000  Uiso   1.00
C681   C     0.50004   0.24671   0.75007   0.00000  Uiso   1.00
C682   C     0.49998   0.08662   0.74990   0.00000  Uiso   1.00
C683   C     0.43318   0.14169   0.55655   0.00000  Uiso   1.00
C684   C     0.54195   0.10751   0.95845   0.00000  Uiso   1.00
C685   C     0.40025   0.14712   0.53407   0.00000  Uiso   1.00
C686   C     0.57517   0.10278   0.98075   0.00000  Uiso   1.00
C687   C     0.54324   0.31216   0.74376   0.00000  Uiso   1.00
C688   C     0.45680   0.02118   0.75613   0.00000  Uiso   1.00
C689   C     0.54322   0.02141   0.74360   0.00000  Uiso   1.00
C690   C     0.45682   0.31193   0.75629   0.00000  Uiso   1.00
C691   C     0.49999   0.04248   0.74982   0.00000  Uiso   1.00
C692   C     0.50004   0.29087   0.75009   0.00000  Uiso   1.00
C693   C     0.65150   0.13700   0.72601   0.00000  Uiso   1.00
C694   C     0.34840   0.19619   0.77422   0.00000  Uiso   1.00
C695   C     0.36633   0.13661   0.72623   0.00000  Uiso   1.00
C696   C     0.63334   0.19622   0.77460   0.00000  Uiso   1.00
C697   C     0.46994   0.16649   0.83822   0.00000  Uiso   1.00
C698   C     0.53007   0.16606   0.66192   0.00000  Uiso   1.00
C699   C     0.45155   0.16214   0.88912   0.00000  Uiso   1.00
C700   C     0.54736   0.15683   0.61207   0.00000  Uiso   1.00
C701   C     0.38429   0.15872   0.96312   0.00000  Uiso   1.00
C702   C     0.59997   0.11682   0.54649   0.00000  Uiso   1.00
C703   C     0.40145   0.16314   0.91488   0.00000  Uiso   1.00
C704   C     0.58981   0.13362   0.59086   0.00000  Uiso   1.00
C705   C     0.48435   0.15570   0.91213   0.00000  Uiso   1.00
C706   C     0.51591   0.16419   0.58820   0.00000  Uiso   1.00
C707   C     0.46645   0.14350   0.95918   0.00000  Uiso   1.00
C708   C     0.52097   0.14038   0.54812   0.00000  Uiso   1.00
C709   C     0.41664   0.14961   0.98560   0.00000  Uiso   1.00
C710   C     0.56575   0.12008   0.52485   0.00000  Uiso   1.00
C711   C     0.49757   0.12924   0.98162   0.00000  Uiso   1.00
C712   C     0.48371   0.13746   0.52955   0.00000  Uiso   1.00
N713   N     0.38093   0.16668   0.75001   0.00000  Uiso   1.00
N714   N     0.61907   0.16666   0.74999   0.00000  Uiso   1.00
O715   O     0.46179   0.22775   0.75001   0.00000  Uiso   1.00
O716   O     0.53821   0.10558   0.75000   0.00000  Uiso   1.00
O717   O     0.53823   0.22774   0.75000   0.00000  Uiso   1.00
O718   O     0.46177   0.10559   0.75000   0.00000  Uiso   1.00
O719   O     0.43994   0.16667   0.81613   0.00000  Uiso   1.00
O720   O     0.56006   0.16666   0.68388   0.00000  Uiso   1.00
O721   O     0.51639   0.16666   0.81612   0.00000  Uiso   1.00
O722   O     0.48361   0.16667   0.68388   0.00000  Uiso   1.00
Zn723  Zn    0.44896   0.16667   0.75000   0.00000  Uiso   1.00
Zn724  Zn    0.55104   0.16666   0.75000   0.00000  Uiso   1.00
H725   H     0.36203   0.15068   0.55470   0.00000  Uiso   1.00
H726   H     0.60875   0.08612   0.96316   0.00000  Uiso   1.00
O727   O     0.48155   0.19526   0.60446   0.00000  Uiso   1.00
H728   H     0.47420   0.20640   0.57781   0.00000  Uiso   1.00
O729   O     0.53311   0.16430   0.88908   0.00000  Uiso   1.00
H730   H     0.54667   0.17559   0.91184   0.00000  Uiso   1.00
H731   H     0.61433   0.12752   0.60907   0.00000  Uiso   1.00
H732   H     0.37567   0.16881   0.89797   0.00000  Uiso   1.00
H733   H     0.34585   0.16242   0.98274   0.00000  Uiso   1.00
H734   H     0.63347   0.09978   0.53001   0.00000  Uiso   1.00
O735   O     0.41423   0.13758   0.60432   0.00000  Uiso   1.00
H736   H     0.43705   0.12064   0.61368   0.00000  Uiso   1.00
O737   O     0.55267   0.08808   0.91581   0.00000  Uiso   1.00
H738   H     0.52191   0.08248   0.91083   0.00000  Uiso   1.00
H739   H     0.57695   0.29607   0.73873   0.00000  Uiso   1.00
H740   H     0.42308   0.03726   0.76118   0.00000  Uiso   1.00
H741   H     0.57695   0.03768   0.73844   0.00000  Uiso   1.00
H742   H     0.42309   0.29567   0.76144   0.00000  Uiso   1.00
H743   H     0.63998   0.11351   0.70689   0.00000  Uiso   1.00
H744   H     0.35987   0.21958   0.79349   0.00000  Uiso   1.00
O745   O     0.39887   0.10610   0.70310   0.00000  Uiso   1.00
H746   H     0.38241   0.08606   0.68911   0.00000  Uiso   1.00
O747   O     0.60002   0.22548   0.79967   0.00000  Uiso   1.00
H748   H     0.61579   0.24445   0.81546   0.00000  Uiso   1.00
C749   C     0.83337   0.24671   0.75007   0.00000  Uiso   1.00
C750   C     0.83331   0.08662   0.74990   0.00000  Uiso   1.00
C751   C     0.76651   0.14169   0.55655   0.00000  Uiso   1.00
C752   C     0.87528   0.10751   0.95845   0.00000  Uiso   1.00
C753   C     0.73358   0.14712   0.53407   0.00000  Uiso   1.00
C754   C     0.90851   0.10278   0.98075   0.00000  Uiso   1.00
C755   C     0.87657   0.31216   0.74376   0.00000  Uiso   1.00
C756   C     0.79013   0.02118   0.75613   0.00000  Uiso   1.00
C757   C     0.87656   0.02141   0.74360   0.00000  Uiso   1.00
C758   C     0.79015   0.31193   0.75629   0.00000  Uiso   1.00
C759   C     0.83332   0.04248   0.74982   0.00000  Uiso   1.00
C760   C     0.83338   0.29087   0.75009   0.00000  Uiso   1.00
C761   C     0.98484   0.13700   0.72601   0.00000  Uiso   1.00
C762   C     0.68174   0.19619   0.77422   0.00000  Uiso   1.00
C763   C     0.69966   0.13661   0.72623   0.00000  Uiso   1.00
C764   C     0.96667   0.19622   0.77460   0.00000  Uiso   1.00
C765   C     0.80327   0.16649   0.83822   0.00000  Uiso   1.00
C766   C     0.86340   0.16606   0.66192   0.00000  Uiso   1.00
C767   C     0.78488   0.16214   0.88912   0.00000  Uiso   1.00
C768   C     0.88069   0.15683   0.61207   0.00000  Uiso   1.00
C769   C     0.71762   0.15872   0.96312   0.00000  Uiso   1.00
C770   C     0.93330   0.11682   0.54649   0.00000  Uiso   1.00
C771   C     0.73478   0.16314   0.91488   0.00000  Uiso   1.00
C772   C     0.92315   0.13362   0.59086   0.00000  Uiso   1.00
C773   C     0.81768   0.15570   0.91213   0.00000  Uiso   1.00
C774   C     0.84925   0.16419   0.58820   0.00000  Uiso   1.00
C775   C     0.79978   0.14350   0.95918   0.00000  Uiso   1.00
C776   C     0.85430   0.14038   0.54812   0.00000  Uiso   1.00
C777   C     0.74998   0.14961   0.98560   0.00000  Uiso   1.00
C778   C     0.89908   0.12008   0.52485   0.00000  Uiso   1.00
C779   C     0.83090   0.12924   0.98162   0.00000  Uiso   1.00
C780   C     0.81704   0.13746   0.52955   0.00000  Uiso   1.00
N781   N     0.71426   0.16668   0.75001   0.00000  Uiso   1.00
N782   N     0.95241   0.16666   0.74999   0.00000  Uiso   1.00
O783   O     0.79512   0.22775   0.75001   0.00000  Uiso   1.00
O784   O     0.87154   0.10558   0.75000   0.00000  Uiso   1.00
O785   O     0.87157   0.22774   0.75000   0.00000  Uiso   1.00
O786   O     0.79510   0.10559   0.75000   0.00000  Uiso   1.00
O787   O     0.77328   0.16667   0.81613   0.00000  Uiso   1.00
O788   O     0.89339   0.16666   0.68388   0.00000  Uiso   1.00
O789   O     0.84972   0.16666   0.81612   0.00000  Uiso   1.00
O790   O     0.81695   0.16667   0.68388   0.00000  Uiso   1.00
Zn791  Zn    0.78229   0.16667   0.75000   0.00000  Uiso   1.00
Zn792  Zn    0.88438   0.16666   0.75000   0.00000  Uiso   1.00
H793   H     0.69537   0.15068   0.55470   0.00000  Uiso   1.00
H794   H     0.94208   0.08612   0.96316   0.00000  Uiso   1.00
O795   O     0.81488   0.19526   0.60446   0.00000  Uiso   1.00
H796   H     0.80753   0.20640   0.57781   0.00000  Uiso   1.00
O797   O     0.86644   0.16430   0.88908   0.00000  Uiso   1.00
H798   H     0.88000   0.17559   0.91184   0.00000  Uiso   1.00
H799   H     0.94766   0.12752   0.60907   0.00000  Uiso   1.00
H800   H     0.70900   0.16881   0.89797   0.00000  Uiso   1.00
H801   H     0.67918   0.16242   0.98274   0.00000  Uiso   1.00
H802   H     0.96680   0.09978   0.53001   0.00000  Uiso   1.00
O803   O     0.74756   0.13758   0.60432   0.00000  Uiso   1.00
H804   H     0.77038   0.12064   0.61368   0.00000  Uiso   1.00
O805   O     0.88601   0.08808   0.91581   0.00000  Uiso   1.00
H806   H     0.85524   0.08248   0.91083   0.00000  Uiso   1.00
H807   H     0.91028   0.29607   0.73873   0.00000  Uiso   1.00
H808   H     0.75642   0.03726   0.76118   0.00000  Uiso   1.00
H809   H     0.91028   0.03768   0.73844   0.00000  Uiso   1.00
H810   H     0.75642   0.29567   0.76144   0.00000  Uiso   1.00
H811   H     0.97332   0.11351   0.70689   0.00000  Uiso   1.00
H812   H     0.69320   0.21958   0.79349   0.00000  Uiso   1.00
O813   O     0.73220   0.10610   0.70310   0.00000  Uiso   1.00
H814   H     0.71574   0.08606   0.68911   0.00000  Uiso   1.00
O815   O     0.93335   0.22548   0.79967   0.00000  Uiso   1.00
H816   H     0.94912   0.24445   0.81546   0.00000  Uiso   1.00
C817   C     0.16670   0.58004   0.75007   0.00000  Uiso   1.00
C818   C     0.16664   0.41996   0.74990   0.00000  Uiso   1.00
C819   C     0.09985   0.47502   0.55655   0.00000  Uiso   1.00
C820   C     0.20862   0.44084   0.95845   0.00000  Uiso   1.00
C821   C     0.06691   0.48045   0.53407   0.00000  Uiso   1.00
C822   C     0.24184   0.43612   0.98075   0.00000  Uiso   1.00
C823   C     0.20991   0.64550   0.74376   0.00000  Uiso   1.00
C824   C     0.12347   0.35451   0.75613   0.00000  Uiso   1.00
C825   C     0.20989   0.35474   0.74360   0.00000  Uiso   1.00
C826   C     0.12348   0.64527   0.75629   0.00000  Uiso   1.00
C827   C     0.16666   0.37581   0.74982   0.00000  Uiso   1.00
C828   C     0.16671   0.62420   0.75009   0.00000  Uiso   1.00
C829   C     0.31817   0.47034   0.72601   0.00000  Uiso   1.00
C830   C     0.01507   0.52952   0.77422   0.00000  Uiso   1.00
C831   C     0.03299   0.46994   0.72623   0.00000  Uiso   1.00
C832   C     0.30001   0.52955   0.77460   0.00000  Uiso   1.00
C833   C     0.13661   0.49983   0.83822   0.00000  Uiso   1.00
C834   C     0.19674   0.49940   0.66192   0.00000  Uiso   1.00
C835   C     0.11821   0.49548   0.88912   0.00000  Uiso   1.00
C836   C     0.21402   0.49017   0.61207   0.00000  Uiso   1.00
C837   C     0.05096   0.49206   0.96312   0.00000  Uiso   1.00
C838   C     0.26663   0.45015   0.54649   0.00000  Uiso   1.00
C839   C     0.06812   0.49648   0.91488   0.00000  Uiso   1.00
C840   C     0.25648   0.46695   0.59086   0.00000  Uiso   1.00
C841   C     0.15102   0.48904   0.91213   0.00000  Uiso   1.00
C842   C     0.18258   0.49752   0.58820   0.00000  Uiso   1.00
C843   C     0.13312   0.47683   0.95918   0.00000  Uiso   1.00
C844   C     0.18764   0.47371   0.54812   0.00000  Uiso   1.00
C845   C     0.08331   0.48294   0.98560   0.00000  Uiso   1.00
C846   C     0.23241   0.45341   0.52485   0.00000  Uiso   1.00
C847   C     0.16424   0.46258   0.98162   0.00000  Uiso   1.00
C848   C     0.15037   0.47079   0.52955   0.00000  Uiso   1.00
N849   N     0.04759   0.50001   0.75001   0.00000  Uiso   1.00
N850   N     0.28574   0.49999   0.74999   0.00000  Uiso   1.00
O851   O     0.12846   0.56108   0.75001   0.00000  Uiso   1.00
O852   O     0.20488   0.43892   0.75000   0.00000  Uiso   1.00
O853   O     0.20490   0.56107   0.75000   0.00000  Uiso   1.00
O854   O     0.12843   0.43893   0.75000   0.00000  Uiso   1.00
O855   O     0.10661   0.50001   0.81613   0.00000  Uiso   1.00
O856   O     0.22672   0.49999   0.68388   0.00000  Uiso   1.00
O857   O     0.18305   0.50000   0.81612   0.00000  Uiso   1.00
O858   O     0.15028   0.50000   0.68388   0.00000  Uiso   1.00
Zn859  Zn    0.11562   0.50001   0.75000   0.00000  Uiso   1.00
Zn860  Zn    0.21771   0.49999   0.75000   0.00000  Uiso   1.00
H861   H     0.02870   0.48401   0.55470   0.00000  Uiso   1.00
H862   H     0.27542   0.41946   0.96316   0.00000  Uiso   1.00
O863   O     0.14821   0.52860   0.60446   0.00000  Uiso   1.00
H864   H     0.14087   0.53974   0.57781   0.00000  Uiso   1.00
O865   O     0.19978   0.49763   0.88908   0.00000  Uiso   1.00
H866   H     0.21334   0.50892   0.91184   0.00000  Uiso   1.00
H867   H     0.28099   0.46086   0.60907   0.00000  Uiso   1.00
H868   H     0.04234   0.50214   0.89797   0.00000  Uiso   1.00
H869   H     0.01251   0.49575   0.98274   0.00000  Uiso   1.00
H870   H     0.30013   0.43311   0.53001   0.00000  Uiso   1.00
O871   O     0.08089   0.47091   0.60432   0.00000  Uiso   1.00
H872   H     0.10372   0.45397   0.61368   0.00000  Uiso   1.00
O873   O     0.21934   0.42141   0.91581   0.00000  Uiso   1.00
H874   H     0.18858   0.41581   0.91083   0.00000  Uiso   1.00
H875   H     0.24362   0.62941   0.73873   0.00000  Uiso   1.00
H876   H     0.08975   0.37060   0.76118   0.00000  Uiso   1.00
H877   H     0.24362   0.37101   0.73844   0.00000  Uiso   1.00
H878   H     0.08976   0.62900   0.76144   0.00000  Uiso   1.00
H879   H     0.30665   0.44684   0.70689   0.00000  Uiso   1.00
H880   H     0.02654   0.55291   0.79349   0.00000  Uiso   1.00
O881   O     0.06554   0.43943   0.70310   0.00000  Uiso   1.00
H882   H     0.04908   0.41939   0.68911   0.00000  Uiso   1.00
O883   O     0.26669   0.55882   0.79967   0.00000  Uiso   1.00
H884   H     0.28246   0.57778   0.81546   0.00000  Uiso   1.00
C885   C     0.50004   0.58004   0.75007   0.00000  Uiso   1.00
C886   C     0.49998   0.41996   0.74990   0.00000  Uiso   1.00
C887   C     0.43318   0.47502   0.55655   0.00000  Uiso   1.00
C888   C     0.54195   0.44084   0.95845   0.00000  Uiso   1.00
C889   C     0.40025   0.48045   0.53407   0.00000  Uiso   1.00
C890   C     0.57517   0.43612   0.98075   0.00000  Uiso   1.00
C891   C     0.54324   0.64550   0.74376   0.00000  Uiso   1.00
C892   C     0.45680   0.35451   0.75613   0.00000  Uiso   1.00
C893   C     0.54322   0.35474   0.74360   0.00000  Uiso   1.00
C894   C     0.45682   0.64527   0.75629   0.00000  Uiso   1.00
C895   C     0.49999   0.37581   0.74982   0.00000  Uiso   1.00
C896   C     0.50004   0.62420   0.75009   0.00000  Uiso   1.00
C897   C     0.65150   0.47034   0.72601   0.00000  Uiso   1.00
C898   C     0.34840   0.52952   0.77422   0.00000  Uiso   1.00
C899   C     0.36633   0.46994   0.72623   0.00000  Uiso   1.00
C900   C     0.63334   0.52955   0.77460   0.00000  Uiso   1.00
C901   C     0.46994   0.49983   0.83822   0.00000  Uiso   1.00
C902   C     0.53007   0.49940   0.66192   0.00000  Uiso   1.00
C903   C     0.45155   0.49548   0.88912   0.00000  Uiso   1.00
C904   C     0.54736   0.49017   0.61207   0.00000  Uiso   1.00
C905   C     0.38429   0.49206   0.96312   0.00000  Uiso   1.00
C906   C     0.59997   0.45015   0.54649   0.00000  Uiso   1.00
C907   C     0.40145   0.49648   0.91488   0.00000  Uiso   1.00
C908   C     0.58981   0.46695   0.59086   0.00000  Uiso   1.00
C909   C     0.48435   0.48904   0.91213   0.00000  Uiso   1.00
C910   C     0.51591   0.49752   0.58820   0.00000  Uiso   1.00
C911   C     0.46645   0.47683   0.95918   0.00000  Uiso   1.00
C912   C     0.52097   0.47371   0.54812   0.00000  Uiso   1.00
C913   C     0.41664   0.48294   0.98560   0.00000  Uiso   1.00
C914   C     0.56575   0.45341   0.52485   0.00000  Uiso   1.00
C915   C     0.49757   0.46258   0.98162   0.00000  Uiso   1.00
C916   C     0.48371   0.47079   0.52955   0.00000  Uiso   1.00
N917   N     0.38093   0.50001   0.75001   0.00000  Uiso   1.00
N918   N     0.61907   0.49999   0.74999   0.00000  Uiso   1.00
O919   O     0.46179   0.56108   0.75001   0.00000  Uiso   1.00
O920   O     0.53821   0.43892   0.75000   0.00000  Uiso   1.00
O921   O     0.53823   0.56107   0.75000   0.00000  Uiso   1.00
O922   O     0.46177   0.43893   0.75000   0.00000  Uiso   1.00
O923   O     0.43994   0.50001   0.81613   0.00000  Uiso   1.00
O924   O     0.56006   0.49999   0.68388   0.00000  Uiso   1.00
O925   O     0.51639   0.50000   0.81612   0.00000  Uiso   1.00
O926   O     0.48361   0.50000   0.68388   0.00000  Uiso   1.00
Zn927  Zn    0.44896   0.50001   0.75000   0.00000  Uiso   1.00
Zn928  Zn    0.55104   0.49999   0.75000   0.00000  Uiso   1.00
H929   H     0.36203   0.48401   0.55470   0.00000  Uiso   1.00
H930   H     0.60875   0.41946   0.96316   0.00000  Uiso   1.00
O931   O     0.48155   0.52860   0.60446   0.00000  Uiso   1.00
H932   H     0.47420   0.53974   0.57781   0.00000  Uiso   1.00
O933   O     0.53311   0.49763   0.88908   0.00000  Uiso   1.00
H934   H     0.54667   0.50892   0.91184   0.00000  Uiso   1.00
H935   H     0.61433   0.46086   0.60907   0.00000  Uiso   1.00
H936   H     0.37567   0.50214   0.89797   0.00000  Uiso   1.00
H937   H     0.34585   0.49575   0.98274   0.00000  Uiso   1.00
H938   H     0.63347   0.43311   0.53001   0.00000  Uiso   1.00
O939   O     0.41423   0.47091   0.60432   0.00000  Uiso   1.00
H940   H     0.43705   0.45397   0.61368   0.00000  Uiso   1.00
O941   O     0.55267   0.42141   0.91581   0.00000  Uiso   1.00
H942   H     0.52191   0.41581   0.91083   0.00000  Uiso   1.00
H943   H     0.57695   0.62941   0.73873   0.00000  Uiso   1.00
H944   H     0.42308   0.37060   0.76118   0.00000  Uiso   1.00
H945   H     0.57695   0.37101   0.73844   0.00000  Uiso   1.00
H946   H     0.42309   0.62900   0.76144   0.00000  Uiso   1.00
H947   H     0.63998   0.44684   0.70689   0.00000  Uiso   1.00
H948   H     0.35987   0.55291   0.79349   0.00000  Uiso   1.00
O949   O     0.39887   0.43943   0.70310   0.00000  Uiso   1.00
H950   H     0.38241   0.41939   0.68911   0.00000  Uiso   1.00
O951   O     0.60002   0.55882   0.79967   0.00000  Uiso   1.00
H952   H     0.61579   0.57778   0.81546   0.00000  Uiso   1.00
C953   C     0.83337   0.58004   0.75007   0.00000  Uiso   1.00
C954   C     0.83331   0.41996   0.74990   0.00000  Uiso   1.00
C955   C     0.76651   0.47502   0.55655   0.00000  Uiso   1.00
C956   C     0.87528   0.44084   0.95845   0.00000  Uiso   1.00
C957   C     0.73358   0.48045   0.53407   0.00000  Uiso   1.00
C958   C     0.90851   0.43612   0.98075   0.00000  Uiso   1.00
C959   C     0.87657   0.64550   0.74376   0.00000  Uiso   1.00
C960   C     0.79013   0.35451   0.75613   0.00000  Uiso   1.00
C961   C     0.87656   0.35474   0.74360   0.00000  Uiso   1.00
C962   C     0.79015   0.64527   0.75629   0.00000  Uiso   1.00
C963   C     0.83332   0.37581   0.74982   0.00000  Uiso   1.00
C964   C     0.83338   0.62420   0.75009   0.00000  Uiso   1.00
C965   C     0.98484   0.47034   0.72601   0.00000  Uiso   1.00
C966   C     0.68174   0.52952   0.77422   0.00000  Uiso   1.00
C967   C     0.69966   0.46994   0.72623   0.00000  Uiso   1.00
C968   C     0.96667   0.52955   0.77460   0.00000  Uiso   1.00
C969   C     0.80327   0.49983   0.83822   0.00000  Uiso   1.00
C970   C     0.86340   0.49940   0.66192   0.00000  Uiso   1.00
C971   C     0.78488   0.49548   0.88912   0.00000  Uiso   1.00
C972   C     0.88069   0.49017   0.61207   0.00000  Uiso   1.00
C973   C     0.71762   0.49206   0.96312   0.00000  Uiso   1.00
C974   C     0.93330   0.45015   0.54649   0.00000  Uiso   1.00
C975   C     0.73478   0.49648   0.91488   0.00000  Uiso   1.00
C976   C     0.92315   0.46695   0.59086   0.00000  Uiso   1.00
C977   C     0.81768   0.48904   0.91213   0.00000  Uiso   1.00
C978   C     0.84925   0.49752   0.58820   0.00000  Uiso   1.00
C979   C     0.79978   0.47683   0.95918   0.00000  Uiso   1.00
C980   C     0.85430   0.47371   0.54812   0.00000  Uiso   1.00
C981   C     0.74998   0.48294   0.98560   0.00000  Uiso   1.00
C982   C     0.89908   0.45341   0.52485   0.00000  Uiso   1.00
C983   C     0.83090   0.46258   0.98162   0.00000  Uiso   1.00
C984   C     0.81704   0.47079   0.52955   0.00000  Uiso   1.00
N985   N     0.71426   0.50001   0.75001   0.00000  Uiso   1.00
N986   N     0.95241   0.49999   0.74999   0.00000  Uiso   1.00
O987   O     0.79512   0.56108   0.75001   0.00000  Uiso   1.00
O988   O     0.87154   0.43892   0.75000   0.00000  Uiso   1.00
O989   O     0.87157   0.56107   0.75000   0.00000  Uiso   1.00
O990   O     0.79510   0.43893   0.75000   0.00000  Uiso   1.00
O991   O     0.77328   0.50001   0.81613   0.00000  Uiso   1.00
O992   O     0.89339   0.49999   0.68388   0.00000  Uiso   1.00
O993   O     0.84972   0.50000   0.81612   0.00000  Uiso   1.00
O994   O     0.81695   0.50000   0.68388   0.00000  Uiso   1.00
Zn995  Zn    0.78229   0.50001   0.75000   0.00000  Uiso   1.00
Zn996  Zn    0.88438   0.49999   0.75000   0.00000  Uiso   1.00
H997   H     0.69537   0.48401   0.55470   0.00000  Uiso   1.00
H998   H     0.94208   0.41946   0.96316   0.00000  Uiso   1.00
O999   O     0.81488   0.52860   0.60446   0.00000  Uiso   1.00
H1000  H     0.80753   0.53974   0.57781   0.00000  Uiso   1.00
O1001  O     0.86644   0.49763   0.88908   0.00000  Uiso   1.00
H1002  H     0.88000   0.50892   0.91184   0.00000  Uiso   1.00
H1003  H     0.94766   0.46086   0.60907   0.00000  Uiso   1.00
H1004  H     0.70900   0.50214   0.89797   0.00000  Uiso   1.00
H1005  H     0.67918   0.49575   0.98274   0.00000  Uiso   1.00
H1006  H     0.96680   0.43311   0.53001   0.00000  Uiso   1.00
O1007  O     0.74756   0.47091   0.60432   0.00000  Uiso   1.00
H1008  H     0.77038   0.45397   0.61368   0.00000  Uiso   1.00
O1009  O     0.88601   0.42141   0.91581   0.00000  Uiso   1.00
H1010  H     0.85524   0.41581   0.91083   0.00000  Uiso   1.00
H1011  H     0.91028   0.62941   0.73873   0.00000  Uiso   1.00
H1012  H     0.75642   0.37060   0.76118   0.00000  Uiso   1.00
H1013  H     0.91028   0.37101   0.73844   0.00000  Uiso   1.00
H1014  H     0.75642   0.62900   0.76144   0.00000  Uiso   1.00
H1015  H     0.97332   0.44684   0.70689   0.00000  Uiso   1.00
H1016  H     0.69320   0.55291   0.79349   0.00000  Uiso   1.00
O1017  O     0.73220   0.43943   0.70310   0.00000  Uiso   1.00
H1018  H     0.71574   0.41939   0.68911   0.00000  Uiso   1.00
O1019  O     0.93335   0.55882   0.79967   0.00000  Uiso   1.00
H1020  H     0.94912   0.57778   0.81546   0.00000  Uiso   1.00
C1021  C     0.16670   0.91338   0.75007   0.00000  Uiso   1.00
C1022  C     0.16664   0.75329   0.74990   0.00000  Uiso   1.00
C1023  C     0.09985   0.80836   0.55655   0.00000  Uiso   1.00
C1024  C     0.20862   0.77417   0.95845   0.00000  Uiso   1.00
C1025  C     0.06691   0.81378   0.53407   0.00000  Uiso   1.00
C1026  C     0.24184   0.76945   0.98075   0.00000  Uiso   1.00
C1027  C     0.20991   0.97883   0.74376   0.00000  Uiso   1.00
C1028  C     0.12347   0.68785   0.75613   0.00000  Uiso   1.00
C1029  C     0.20989   0.68808   0.74360   0.00000  Uiso   1.00
C1030  C     0.12348   0.97860   0.75629   0.00000  Uiso   1.00
C1031  C     0.16666   0.70914   0.74982   0.00000  Uiso   1.00
C1032  C     0.16671   0.95753   0.75009   0.00000  Uiso   1.00
C1033  C     0.31817   0.80367   0.72601   0.00000  Uiso   1.00
C1034  C     0.01507   0.86286   0.77422   0.00000  Uiso   1.00
C1035  C     0.03299   0.80327   0.72623   0.00000  Uiso   1.00
C1036  C     0.30001   0.86288   0.77460   0.00000  Uiso   1.00
C1037  C     0.13661   0.83316   0.83822   0.00000  Uiso   1.00
C1038  C     0.19674   0.83273   0.66192   0.00000  Uiso   1.00
C1039  C     0.11821   0.82881   0.88912   0.00000  Uiso   1.00
C1040  C     0.21402   0.82350   0.61207   0.00000  Uiso   1.00
C1041  C     0.05096   0.82539   0.96312   0.00000  Uiso   1.00
C1042  C     0.26663   0.78349   0.54649   0.00000  Uiso   1.00
C1043  C     0.06812   0.82981   0.91488   0.00000  Uiso   1.00
C1044  C     0.25648   0.80028   0.59086   0.00000  Uiso   1.00
C1045  C     0.15102   0.82237   0.91213   0.00000  Uiso   1.00
C1046  C     0.18258   0.83086   0.58820   0.00000  Uiso   1.00
C1047  C     0.13312   0.81017   0.95918   0.00000  Uiso   1.00
C1048  C     0.18764   0.80705   0.54812   0.00000  Uiso   1.00
C1049  C     0.08331   0.81628   0.98560   0.00000  Uiso   1.00
C1050  C     0.23241   0.78675   0.52485   0.00000  Uiso   1.00
C1051  C     0.16424   0.79591   0.98162   0.00000  Uiso   1.00
C1052  C     0.15037   0.80412   0.52955   0.00000  Uiso   1.00
N1053  N     0.04759   0.83334   0.75001   0.00000  Uiso   1.00
N1054  N     0.28574   0.83332   0.74999   0.00000  Uiso   1.00
O1055  O     0.12846   0.89442   0.75001   0.00000  Uiso   1.00
O1056  O     0.20488   0.77225   0.75000   0.00000  Uiso   1.00
O1057  O     0.20490   0.89441   0.75000   0.00000  Uiso   1.00
O1058  O     0.12843   0.77226   0.75000   0.00000  Uiso   1.00
O1059  O     0.10661   0.83334   0.81613   0.00000  Uiso   1.00
O1060  O     0.22672   0.83333   0.68388   0.00000  Uiso   1.00
O1061  O     0.18305   0.83333   0.81612   0.00000  Uiso   1.00
O1062  O     0.15028   0.83334   0.68388   0.00000  Uiso   1.00
Zn1063 Zn    0.11562   0.83334   0.75000   0.00000  Uiso   1.00
Zn1064 Zn    0.21771   0.83333   0.75000   0.00000  Uiso   1.00
H1065  H     0.02870   0.81735   0.55470   0.00000  Uiso   1.00
H1066  H     0.27542   0.75279   0.96316   0.00000  Uiso   1.00
O1067  O     0.14821   0.86193   0.60446   0.00000  Uiso   1.00
H1068  H     0.14087   0.87307   0.57781   0.00000  Uiso   1.00
O1069  O     0.19978   0.83097   0.88908   0.00000  Uiso   1.00
H1070  H     0.21334   0.84225   0.91184   0.00000  Uiso   1.00
H1071  H     0.28099   0.79419   0.60907   0.00000  Uiso   1.00
H1072  H     0.04234   0.83547   0.89797   0.00000  Uiso   1.00
H1073  H     0.01251   0.82908   0.98274   0.00000  Uiso   1.00
H1074  H     0.30013   0.76644   0.53001   0.00000  Uiso   1.00
O1075  O     0.08089   0.80425   0.60432   0.00000  Uiso   1.00
H1076  H     0.10372   0.78731   0.61368   0.00000  Uiso   1.00
O1077  O     0.21934   0.75474   0.91581   0.00000  Uiso   1.00
H1078  H     0.18858   0.74915   0.91083   0.00000  Uiso   1.00
H1079  H     0.24362   0.96274   0.73873   0.00000  Uiso   1.00
H1080  H     0.08975   0.70393   0.76118   0.00000  Uiso   1.00
H1081  H     0.24362   0.70435   0.73844   0.00000  Uiso   1.00
H1082  H     0.08976   0.96233   0.76144   0.00000  Uiso   1.00
H1083  H     0.30665   0.78018   0.70689   0.00000  Uiso   1.00
H1084  H     0.02654   0.88625   0.79349   0.00000  Uiso   1.00
O1085  O     0.06554   0.77276   0.70310   0.00000  Uiso   1.00
H1086  H     0.04908   0.75272   0.68911   0.00000  Uiso   1.00
O1087  O     0.26669   0.89215   0.79967   0.00000  Uiso   1.00
H1088  H     0.28246   0.91111   0.81546   0.00000  Uiso   1.00
C1089  C     0.50004   0.91338   0.75007   0.00000  Uiso   1.00
C1090  C     0.49998   0.75329   0.74990   0.00000  Uiso   1.00
C1091  C     0.43318   0.80836   0.55655   0.00000  Uiso   1.00
C1092  C     0.54195   0.77417   0.95845   0.00000  Uiso   1.00
C1093  C     0.40025   0.81378   0.53407   0.00000  Uiso   1.00
C1094  C     0.57517   0.76945   0.98075   0.00000  Uiso   1.00
C1095  C     0.54324   0.97883   0.74376   0.00000  Uiso   1.00
C1096  C     0.45680   0.68785   0.75613   0.00000  Uiso   1.00
C1097  C     0.54322   0.68808   0.74360   0.00000  Uiso   1.00
C1098  C     0.45682   0.97860   0.75629   0.00000  Uiso   1.00
C1099  C     0.49999   0.70914   0.74982   0.00000  Uiso   1.00
C1100  C     0.50004   0.95753   0.75009   0.00000  Uiso   1.00
C1101  C     0.65150   0.80367   0.72601   0.00000  Uiso   1.00
C1102  C     0.34840   0.86286   0.77422   0.00000  Uiso   1.00
C1103  C     0.36633   0.80327   0.72623   0.00000  Uiso   1.00
C1104  C     0.63334   0.86288   0.77460   0.00000  Uiso   1.00
C1105  C     0.46994   0.83316   0.83822   0.00000  Uiso   1.00
C1106  C     0.53007   0.83273   0.66192   0.00000  Uiso   1.00
C1107  C     0.45155   0.82881   0.88912   0.00000  Uiso   1.00
C1108  C     0.54736   0.82350   0.61207   0.00000  Uiso   1.00
C1109  C     0.38429   0.82539   0.96312   0.00000  Uiso   1.00
C1110  C     0.59997   0.78349   0.54649   0.00000  Uiso   1.00
C1111  C     0.40145   0.82981   0.91488   0.00000  Uiso   1.00
C1112  C     0.58981   0.80028   0.59086   0.00000  Uiso   1.00
C1113  C     0.48435   0.82237   0.91213   0.00000  Uiso   1.00
C1114  C     0.51591   0.83086   0.58820   0.00000  Uiso   1.00
C1115  C     0.46645   0.81017   0.95918   0.00000  Uiso   1.00
C1116  C     0.52097   0.80705   0.54812   0.00000  Uiso   1.00
C1117  C     0.41664   0.81628   0.98560   0.00000  Uiso   1.00
C1118  C     0.56575   0.78675   0.52485   0.00000  Uiso   1.00
C1119  C     0.49757   0.79591   0.98162   0.00000  Uiso   1.00
C1120  C     0.48371   0.80412   0.52955   0.00000  Uiso   1.00
N1121  N     0.38093   0.83334   0.75001   0.00000  Uiso   1.00
N1122  N     0.61907   0.83332   0.74999   0.00000  Uiso   1.00
O1123  O     0.46179   0.89442   0.75001   0.00000  Uiso   1.00
O1124  O     0.53821   0.77225   0.75000   0.00000  Uiso   1.00
O1125  O     0.53823   0.89441   0.75000   0.00000  Uiso   1.00
O1126  O     0.46177   0.77226   0.75000   0.00000  Uiso   1.00
O1127  O     0.43994   0.83334   0.81613   0.00000  Uiso   1.00
O1128  O     0.56006   0.83333   0.68388   0.00000  Uiso   1.00
O1129  O     0.51639   0.83333   0.81612   0.00000  Uiso   1.00
O1130  O     0.48361   0.83334   0.68388   0.00000  Uiso   1.00
Zn1131 Zn    0.44896   0.83334   0.75000   0.00000  Uiso   1.00
Zn1132 Zn    0.55104   0.83333   0.75000   0.00000  Uiso   1.00
H1133  H     0.36203   0.81735   0.55470   0.00000  Uiso   1.00
H1134  H     0.60875   0.75279   0.96316   0.00000  Uiso   1.00
O1135  O     0.48155   0.86193   0.60446   0.00000  Uiso   1.00
H1136  H     0.47420   0.87307   0.57781   0.00000  Uiso   1.00
O1137  O     0.53311   0.83097   0.88908   0.00000  Uiso   1.00
H1138  H     0.54667   0.84225   0.91184   0.00000  Uiso   1.00
H1139  H     0.61433   0.79419   0.60907   0.00000  Uiso   1.00
H1140  H     0.37567   0.83547   0.89797   0.00000  Uiso   1.00
H1141  H     0.34585   0.82908   0.98274   0.00000  Uiso   1.00
H1142  H     0.63347   0.76644   0.53001   0.00000  Uiso   1.00
O1143  O     0.41423   0.80425   0.60432   0.00000  Uiso   1.00
H1144  H     0.43705   0.78731   0.61368   0.00000  Uiso   1.00
O1145  O     0.55267   0.75474   0.91581   0.00000  Uiso   1.00
H1146  H     0.52191   0.74915   0.91083   0.00000  Uiso   1.00
H1147  H     0.57695   0.96274   0.73873   0.00000  Uiso   1.00
H1148  H     0.42308   0.70393   0.76118   0.00000  Uiso   1.00
H1149  H     0.57695   0.70435   0.73844   0.00000  Uiso   1.00
H1150  H     0.42309   0.96233   0.76144   0.00000  Uiso   1.00
H1151  H     0.63998   0.78018   0.70689   0.00000  Uiso   1.00
H1152  H     0.35987   0.88625   0.79349   0.00000  Uiso   1.00
O1153  O     0.39887   0.77276   0.70310   0.00000  Uiso   1.00
H1154  H     0.38241   0.75272   0.68911   0.00000  Uiso   1.00
O1155  O     0.60002   0.89215   0.79967   0.00000  Uiso   1.00
H1156  H     0.61579   0.91111   0.81546   0.00000  Uiso   1.00
C1157  C     0.83337   0.91338   0.75007   0.00000  Uiso   1.00
C1158  C     0.83331   0.75329   0.74990   0.00000  Uiso   1.00
C1159  C     0.76651   0.80836   0.55655   0.00000  Uiso   1.00
C1160  C     0.87528   0.77417   0.95845   0.00000  Uiso   1.00
C1161  C     0.73358   0.81378   0.53407   0.00000  Uiso   1.00
C1162  C     0.90851   0.76945   0.98075   0.00000  Uiso   1.00
C1163  C     0.87657   0.97883   0.74376   0.00000  Uiso   1.00
C1164  C     0.79013   0.68785   0.75613   0.00000  Uiso   1.00
C1165  C     0.87656   0.68808   0.74360   0.00000  Uiso   1.00
C1166  C     0.79015   0.97860   0.75629   0.00000  Uiso   1.00
C1167  C     0.83332   0.70914   0.74982   0.00000  Uiso   1.00
C1168  C     0.83338   0.95753   0.75009   0.00000  Uiso   1.00
C1169  C     0.98484   0.80367   0.72601   0.00000  Uiso   1.00
C1170  C     0.68174   0.86286   0.77422   0.00000  Uiso   1.00
C1171  C     0.69966   0.80327   0.72623   0.00000  Uiso   1.00
C1172  C     0.96667   0.86288   0.77460   0.00000  Uiso   1.00
C1173  C     0.80327   0.83316   0.83822   0.00000  Uiso   1.00
C1174  C     0.86340   0.83273   0.66192   0.00000  Uiso   1.00
C1175  C     0.78488   0.82881   0.88912   0.00000  Uiso   1.00
C1176  C     0.88069   0.82350   0.61207   0.00000  Uiso   1.00
C1177  C     0.71762   0.82539   0.96312   0.00000  Uiso   1.00
C1178  C     0.93330   0.78349   0.54649   0.00000  Uiso   1.00
C1179  C     0.73478   0.82981   0.91488   0.00000  Uiso   1.00
C1180  C     0.92315   0.80028   0.59086   0.00000  Uiso   1.00
C1181  C     0.81768   0.82237   0.91213   0.00000  Uiso   1.00
C1182  C     0.84925   0.83086   0.58820   0.00000  Uiso   1.00
C1183  C     0.79978   0.81017   0.95918   0.00000  Uiso   1.00
C1184  C     0.85430   0.80705   0.54812   0.00000  Uiso   1.00
C1185  C     0.74998   0.81628   0.98560   0.00000  Uiso   1.00
C1186  C     0.89908   0.78675   0.52485   0.00000  Uiso   1.00
C1187  C     0.83090   0.79591   0.98162   0.00000  Uiso   1.00
C1188  C     0.81704   0.80412   0.52955   0.00000  Uiso   1.00
N1189  N     0.71426   0.83334   0.75001   0.00000  Uiso   1.00
N1190  N     0.95241   0.83332   0.74999   0.00000  Uiso   1.00
O1191  O     0.79512   0.89442   0.75001   0.00000  Uiso   1.00
O1192  O     0.87154   0.77225   0.75000   0.00000  Uiso   1.00
O1193  O     0.87157   0.89441   0.75000   0.00000  Uiso   1.00
O1194  O     0.79510   0.77226   0.75000   0.00000  Uiso   1.00
O1195  O     0.77328   0.83334   0.81613   0.00000  Uiso   1.00
O1196  O     0.89339   0.83333   0.68388   0.00000  Uiso   1.00
O1197  O     0.84972   0.83333   0.81612   0.00000  Uiso   1.00
O1198  O     0.81695   0.83334   0.68388   0.00000  Uiso   1.00
Zn1199 Zn    0.78229   0.83334   0.75000   0.00000  Uiso   1.00
Zn1200 Zn    0.88438   0.83333   0.75000   0.00000  Uiso   1.00
H1201  H     0.69537   0.81735   0.55470   0.00000  Uiso   1.00
H1202  H     0.94208   0.75279   0.96316   0.00000  Uiso   1.00
O1203  O     0.81488   0.86193   0.60446   0.00000  Uiso   1.00
H1204  H     0.80753   0.87307   0.57781   0.00000  Uiso   1.00
O1205  O     0.86644   0.83097   0.88908   0.00000  Uiso   1.00
H1206  H     0.88000   0.84225   0.91184   0.00000  Uiso   1.00
H1207  H     0.94766   0.79419   0.60907   0.00000  Uiso   1.00
H1208  H     0.70900   0.83547   0.89797   0.00000  Uiso   1.00
H1209  H     0.67918   0.82908   0.98274   0.00000  Uiso   1.00
H1210  H     0.96680   0.76644   0.53001   0.00000  Uiso   1.00
O1211  O     0.74756   0.80425   0.60432   0.00000  Uiso   1.00
H1212  H     0.77038   0.78731   0.61368   0.00000  Uiso   1.00
O1213  O     0.88601   0.75474   0.91581   0.00000  Uiso   1.00
H1214  H     0.85524   0.74915   0.91083   0.00000  Uiso   1.00
H1215  H     0.91028   0.96274   0.73873   0.00000  Uiso   1.00
H1216  H     0.75642   0.70393   0.76118   0.00000  Uiso   1.00
H1217  H     0.91028   0.70435   0.73844   0.00000  Uiso   1.00
H1218  H     0.75642   0.96233   0.76144   0.00000  Uiso   1.00
H1219  H     0.97332   0.78018   0.70689   0.00000  Uiso   1.00
H1220  H     0.69320   0.88625   0.79349   0.00000  Uiso   1.00
O1221  O     0.73220   0.77276   0.70310   0.00000  Uiso   1.00
H1222  H     0.71574   0.75272   0.68911   0.00000  Uiso   1.00
O1223  O     0.93335   0.89215   0.79967   0.00000  Uiso   1.00
H1224  H     0.94912   0.91111   0.81546   0.00000  Uiso   1.00
loop_
_geom_bond_atom_site_label_1
_geom_bond_atom_site_label_2
_geom_bond_distance
_geom_bond_site_symmetry_2
_ccdc_geom_bond_type
C1     O37     1.284   .     A
C1     C12     1.420   .     S
C1     O35     1.283   .     A
C2     O38     1.284   .     A
C2     C11     1.420   .     S
C2     O36     1.283   .     A
C3     C5      1.395   .     A
C3     C32     1.428   .     A
C3     O55     1.378   .     S
C4     O57     1.380   .     S
C4     C31     1.428   .     A
C4     C6      1.396   .     A
C5     H45     1.082   .     S
C5     C641    1.395   1_554 S
C6     H46     1.084   .     S
C6     C642    1.396   .     S
C7     H59     1.084   .     S
C7     C12     1.397   .     A
C7     C213    1.370   .     S
C8     H60     1.084   .     S
C8     C11     1.397   .     A
C8     C418    1.370   1_545 S
C9     C11     1.398   .     A
C9     H61     1.084   .     S
C9     C415    1.370   1_545 S
C10    H62     1.084   .     S
C10    C12     1.398   .     A
C10    C212    1.370   .     S
C13    H63     1.082   .     S
C13    N34     1.363   .     A
C13    C83     1.425   .     S
C14    H64     1.082   .     S
C14    N33     1.364   .     A
C14    C152    1.425   1_455 S
C15    N33     1.369   .     A
C15    O65     1.377   .     S
C15    C149    1.425   1_455 S
C16    O67     1.378   .     S
C16    N34     1.369   .     A
C16    C82     1.425   .     S
C17    C19     1.468   .     S
C17    O39     1.298   .     A
C17    O41     1.292   .     A
C18    O42     1.292   .     A
C18    C20     1.460   .     S
C18    O40     1.294   .     A
C19    C23     1.404   .     A
C19    C25     1.408   .     A
C20    C24     1.402   .     A
C20    C26     1.399   .     A
C21    C29     1.400   .     A
C21    H53     1.083   .     S
C21    C23     1.393   .     A
C22    H54     1.084   .     S
C22    C24     1.394   .     A
C22    C30     1.402   .     A
C23    H52     1.083   .     S
C24    H51     1.083   .     S
C25    C27     1.408   .     A
C25    O49     1.383   .     S
C26    C28     1.410   .     A
C26    O47     1.383   .     S
C27    C29     1.414   .     A
C27    C31     1.414   .     A
C28    C30     1.416   .     A
C28    C32     1.415   .     A
C29    C617    1.395   .     S
C30    C618    1.396   1_554 S
C31    C644    1.405   .     S
C32    C643    1.405   1_554 S
N33    Zn43    2.009   .     S
N34    Zn44    2.009   .     S
O35    Zn43    2.000   .     S
O36    Zn44    2.000   .     S
O37    Zn44    2.002   .     S
O38    Zn43    2.002   .     S
O39    Zn43    1.955   .     S
O40    Zn44    1.955   .     S
O41    Zn44    1.919   .     S
O42    Zn43    1.919   .     S
O47    H48     0.991   .     S
O49    H50     0.991   .     S
O55    H56     0.990   .     S
O57    H58     0.990   .     S
O65    H66     0.992   .     S
O67    H68     0.992   .     S
C69    O105    1.284   .     A
C69    C80     1.420   .     S
C69    O103    1.283   .     A
C70    O106    1.284   .     A
C70    C79     1.420   .     S
C70    O104    1.283   .     A
C71    C73     1.395   .     A
C71    C100    1.428   .     A
C71    O123    1.378   .     S
C72    O125    1.380   .     S
C72    C99     1.428   .     A
C72    C74     1.396   .     A
C73    H113    1.082   .     S
C73    C709    1.395   1_554 S
C74    H114    1.084   .     S
C74    C710    1.396   .     S
C75    H127    1.084   .     S
C75    C80     1.397   .     A
C75    C281    1.370   .     S
C76    H128    1.084   .     S
C76    C79     1.397   .     A
C76    C486    1.370   1_545 S
C77    C79     1.398   .     A
C77    H129    1.084   .     S
C77    C483    1.370   1_545 S
C78    H130    1.084   .     S
C78    C80     1.398   .     A
C78    C280    1.370   .     S
C81    H131    1.082   .     S
C81    N102    1.363   .     A
C81    C151    1.425   .     S
C82    H132    1.082   .     S
C82    N101    1.364   .     A
C83    N101    1.369   .     A
C83    O133    1.377   .     S
C84    O135    1.378   .     S
C84    N102    1.369   .     A
C84    C150    1.425   .     S
C85    C87     1.468   .     S
C85    O107    1.298   .     A
C85    O109    1.292   .     A
C86    O110    1.292   .     A
C86    C88     1.460   .     S
C86    O108    1.294   .     A
C87    C91     1.404   .     A
C87    C93     1.408   .     A
C88    C92     1.402   .     A
C88    C94     1.399   .     A
C89    C97     1.400   .     A
C89    H121    1.083   .     S
C89    C91     1.393   .     A
C90    H122    1.084   .     S
C90    C92     1.394   .     A
C90    C98     1.402   .     A
C91    H120    1.083   .     S
C92    H119    1.083   .     S
C93    C95     1.408   .     A
C93    O117    1.383   .     S
C94    C96     1.410   .     A
C94    O115    1.383   .     S
C95    C97     1.414   .     A
C95    C99     1.414   .     A
C96    C98     1.416   .     A
C96    C100    1.415   .     A
C97    C685    1.395   .     S
C98    C686    1.396   1_554 S
C99    C712    1.405   .     S
C100   C711    1.405   1_554 S
N101   Zn111   2.009   .     S
N102   Zn112   2.009   .     S
O103   Zn111   2.000   .     S
O104   Zn112   2.000   .     S
O105   Zn112   2.002   .     S
O106   Zn111   2.002   .     S
O107   Zn111   1.955   .     S
O108   Zn112   1.955   .     S
O109   Zn112   1.919   .     S
O110   Zn111   1.919   .     S
O115   H116    0.991   .     S
O117   H118    0.991   .     S
O123   H124    0.990   .     S
O125   H126    0.990   .     S
O133   H134    0.992   .     S
O135   H136    0.992   .     S
C137   O173    1.284   .     A
C137   C148    1.420   .     S
C137   O171    1.283   .     A
C138   O174    1.284   .     A
C138   C147    1.420   .     S
C138   O172    1.283   .     A
C139   C141    1.395   .     A
C139   C168    1.428   .     A
C139   O191    1.378   .     S
C140   O193    1.380   .     S
C140   C167    1.428   .     A
C140   C142    1.396   .     A
C141   H181    1.082   .     S
C141   C777    1.395   1_554 S
C142   H182    1.084   .     S
C142   C778    1.396   .     S
C143   H195    1.084   .     S
C143   C148    1.397   .     A
C143   C349    1.370   .     S
C144   H196    1.084   .     S
C144   C147    1.397   .     A
C144   C554    1.370   1_545 S
C145   C147    1.398   .     A
C145   H197    1.084   .     S
C145   C551    1.370   1_545 S
C146   H198    1.084   .     S
C146   C148    1.398   .     A
C146   C348    1.370   .     S
C149   H199    1.082   .     S
C149   N170    1.363   .     A
C149   C15     1.425   1_655 S
C150   H200    1.082   .     S
C150   N169    1.364   .     A
C151   N169    1.369   .     A
C151   O201    1.377   .     S
C152   O203    1.378   .     S
C152   N170    1.369   .     A
C152   C14     1.425   1_655 S
C153   C155    1.468   .     S
C153   O175    1.298   .     A
C153   O177    1.292   .     A
C154   O178    1.292   .     A
C154   C156    1.460   .     S
C154   O176    1.294   .     A
C155   C159    1.404   .     A
C155   C161    1.408   .     A
C156   C160    1.402   .     A
C156   C162    1.399   .     A
C157   C165    1.400   .     A
C157   H189    1.083   .     S
C157   C159    1.393   .     A
C158   H190    1.084   .     S
C158   C160    1.394   .     A
C158   C166    1.402   .     A
C159   H188    1.083   .     S
C160   H187    1.083   .     S
C161   C163    1.408   .     A
C161   O185    1.383   .     S
C162   C164    1.410   .     A
C162   O183    1.383   .     S
C163   C165    1.414   .     A
C163   C167    1.414   .     A
C164   C166    1.416   .     A
C164   C168    1.415   .     A
C165   C753    1.395   .     S
C166   C754    1.396   1_554 S
C167   C780    1.405   .     S
C168   C779    1.405   1_554 S
N169   Zn179   2.009   .     S
N170   Zn180   2.009   .     S
O171   Zn179   2.000   .     S
O172   Zn180   2.000   .     S
O173   Zn180   2.002   .     S
O174   Zn179   2.002   .     S
O175   Zn179   1.955   .     S
O176   Zn180   1.955   .     S
O177   Zn180   1.919   .     S
O178   Zn179   1.919   .     S
O183   H184    0.991   .     S
O185   H186    0.991   .     S
O191   H192    0.990   .     S
O193   H194    0.990   .     S
O201   H202    0.992   .     S
O203   H204    0.992   .     S
C205   O241    1.284   .     A
C205   C216    1.420   .     S
C205   O239    1.283   .     A
C206   O242    1.284   .     A
C206   C215    1.420   .     S
C206   O240    1.283   .     A
C207   C209    1.395   .     A
C207   C236    1.428   .     A
C207   O259    1.378   .     S
C208   O261    1.380   .     S
C208   C235    1.428   .     A
C208   C210    1.396   .     A
C209   H249    1.082   .     S
C209   C845    1.395   1_554 S
C210   H250    1.084   .     S
C210   C846    1.396   .     S
C211   H263    1.084   .     S
C211   C216    1.397   .     A
C211   C417    1.370   .     S
C212   H264    1.084   .     S
C212   C215    1.397   .     A
C213   C215    1.398   .     A
C213   H265    1.084   .     S
C214   H266    1.084   .     S
C214   C216    1.398   .     A
C214   C416    1.370   .     S
C217   H267    1.082   .     S
C217   N238    1.363   .     A
C217   C287    1.425   .     S
C218   H268    1.082   .     S
C218   N237    1.364   .     A
C218   C356    1.425   1_455 S
C219   N237    1.369   .     A
C219   O269    1.377   .     S
C219   C353    1.425   1_455 S
C220   O271    1.378   .     S
C220   N238    1.369   .     A
C220   C286    1.425   .     S
C221   C223    1.468   .     S
C221   O243    1.298   .     A
C221   O245    1.292   .     A
C222   O246    1.292   .     A
C222   C224    1.460   .     S
C222   O244    1.294   .     A
C223   C227    1.404   .     A
C223   C229    1.408   .     A
C224   C228    1.402   .     A
C224   C230    1.399   .     A
C225   C233    1.400   .     A
C225   H257    1.083   .     S
C225   C227    1.393   .     A
C226   H258    1.084   .     S
C226   C228    1.394   .     A
C226   C234    1.402   .     A
C227   H256    1.083   .     S
C228   H255    1.083   .     S
C229   C231    1.408   .     A
C229   O253    1.383   .     S
C230   C232    1.410   .     A
C230   O251    1.383   .     S
C231   C233    1.414   .     A
C231   C235    1.414   .     A
C232   C234    1.416   .     A
C232   C236    1.415   .     A
C233   C821    1.395   .     S
C234   C822    1.396   1_554 S
C235   C848    1.405   .     S
C236   C847    1.405   1_554 S
N237   Zn247   2.009   .     S
N238   Zn248   2.009   .     S
O239   Zn247   2.000   .     S
O240   Zn248   2.000   .     S
O241   Zn248   2.002   .     S
O242   Zn247   2.002   .     S
O243   Zn247   1.955   .     S
O244   Zn248   1.955   .     S
O245   Zn248   1.919   .     S
O246   Zn247   1.919   .     S
O251   H252    0.991   .     S
O253   H254    0.991   .     S
O259   H260    0.990   .     S
O261   H262    0.990   .     S
O269   H270    0.992   .     S
O271   H272    0.992   .     S
C273   O309    1.284   .     A
C273   C284    1.420   .     S
C273   O307    1.283   .     A
C274   O310    1.284   .     A
C274   C283    1.420   .     S
C274   O308    1.283   .     A
C275   C277    1.395   .     A
C275   C304    1.428   .     A
C275   O327    1.378   .     S
C276   O329    1.380   .     S
C276   C303    1.428   .     A
C276   C278    1.396   .     A
C277   H317    1.082   .     S
C277   C913    1.395   1_554 S
C278   H318    1.084   .     S
C278   C914    1.396   .     S
C279   H331    1.084   .     S
C279   C284    1.397   .     A
C279   C485    1.370   .     S
C280   H332    1.084   .     S
C280   C283    1.397   .     A
C281   C283    1.398   .     A
C281   H333    1.084   .     S
C282   H334    1.084   .     S
C282   C284    1.398   .     A
C282   C484    1.370   .     S
C285   H335    1.082   .     S
C285   N306    1.363   .     A
C285   C355    1.425   .     S
C286   H336    1.082   .     S
C286   N305    1.364   .     A
C287   N305    1.369   .     A
C287   O337    1.377   .     S
C288   O339    1.378   .     S
C288   N306    1.369   .     A
C288   C354    1.425   .     S
C289   C291    1.468   .     S
C289   O311    1.298   .     A
C289   O313    1.292   .     A
C290   O314    1.292   .     A
C290   C292    1.460   .     S
C290   O312    1.294   .     A
C291   C295    1.404   .     A
C291   C297    1.408   .     A
C292   C296    1.402   .     A
C292   C298    1.399   .     A
C293   C301    1.400   .     A
C293   H325    1.083   .     S
C293   C295    1.393   .     A
C294   H326    1.084   .     S
C294   C296    1.394   .     A
C294   C302    1.402   .     A
C295   H324    1.083   .     S
C296   H323    1.083   .     S
C297   C299    1.408   .     A
C297   O321    1.383   .     S
C298   C300    1.410   .     A
C298   O319    1.383   .     S
C299   C301    1.414   .     A
C299   C303    1.414   .     A
C300   C302    1.416   .     A
C300   C304    1.415   .     A
C301   C889    1.395   .     S
C302   C890    1.396   1_554 S
C303   C916    1.405   .     S
C304   C915    1.405   1_554 S
N305   Zn315   2.009   .     S
N306   Zn316   2.009   .     S
O307   Zn315   2.000   .     S
O308   Zn316   2.000   .     S
O309   Zn316   2.002   .     S
O310   Zn315   2.002   .     S
O311   Zn315   1.955   .     S
O312   Zn316   1.955   .     S
O313   Zn316   1.919   .     S
O314   Zn315   1.919   .     S
O319   H320    0.991   .     S
O321   H322    0.991   .     S
O327   H328    0.990   .     S
O329   H330    0.990   .     S
O337   H338    0.992   .     S
O339   H340    0.992   .     S
C341   O377    1.284   .     A
C341   C352    1.420   .     S
C341   O375    1.283   .     A
C342   O378    1.284   .     A
C342   C351    1.420   .     S
C342   O376    1.283   .     A
C343   C345    1.395   .     A
C343   C372    1.428   .     A
C343   O395    1.378   .     S
C344   O397    1.380   .     S
C344   C371    1.428   .     A
C344   C346    1.396   .     A
C345   H385    1.082   .     S
C345   C981    1.395   1_554 S
C346   H386    1.084   .     S
C346   C982    1.396   .     S
C347   H399    1.084   .     S
C347   C352    1.397   .     A
C347   C553    1.370   .     S
C348   H400    1.084   .     S
C348   C351    1.397   .     A
C349   C351    1.398   .     A
C349   H401    1.084   .     S
C350   H402    1.084   .     S
C350   C352    1.398   .     A
C350   C552    1.370   .     S
C353   H403    1.082   .     S
C353   N374    1.363   .     A
C353   C219    1.425   1_655 S
C354   H404    1.082   .     S
C354   N373    1.364   .     A
C355   N373    1.369   .     A
C355   O405    1.377   .     S
C356   O407    1.378   .     S
C356   N374    1.369   .     A
C356   C218    1.425   1_655 S
C357   C359    1.468   .     S
C357   O379    1.298   .     A
C357   O381    1.292   .     A
C358   O382    1.292   .     A
C358   C360    1.460   .     S
C358   O380    1.294   .     A
C359   C363    1.404   .     A
C359   C365    1.408   .     A
C360   C364    1.402   .     A
C360   C366    1.399   .     A
C361   C369    1.400   .     A
C361   H393    1.083   .     S
C361   C363    1.393   .     A
C362   H394    1.084   .     S
C362   C364    1.394   .     A
C362   C370    1.402   .     A
C363   H392    1.083   .     S
C364   H391    1.083   .     S
C365   C367    1.408   .     A
C365   O389    1.383   .     S
C366   C368    1.410   .     A
C366   O387    1.383   .     S
C367   C369    1.414   .     A
C367   C371    1.414   .     A
C368   C370    1.416   .     A
C368   C372    1.415   .     A
C369   C957    1.395   .     S
C370   C958    1.396   1_554 S
C371   C984    1.405   .     S
C372   C983    1.405   1_554 S
N373   Zn383   2.009   .     S
N374   Zn384   2.009   .     S
O375   Zn383   2.000   .     S
O376   Zn384   2.000   .     S
O377   Zn384   2.002   .     S
O378   Zn383   2.002   .     S
O379   Zn383   1.955   .     S
O380   Zn384   1.955   .     S
O381   Zn384   1.919   .     S
O382   Zn383   1.919   .     S
O387   H388    0.991   .     S
O389   H390    0.991   .     S
O395   H396    0.990   .     S
O397   H398    0.990   .     S
O405   H406    0.992   .     S
O407   H408    0.992   .     S
C409   O445    1.284   .     A
C409   C420    1.420   .     S
C409   O443    1.283   .     A
C410   O446    1.284   .     A
C410   C419    1.420   .     S
C410   O444    1.283   .     A
C411   C413    1.395   .     A
C411   C440    1.428   .     A
C411   O463    1.378   .     S
C412   O465    1.380   .     S
C412   C439    1.428   .     A
C412   C414    1.396   .     A
C413   H453    1.082   .     S
C413   C1049   1.395   1_554 S
C414   H454    1.084   .     S
C414   C1050   1.396   .     S
C415   H467    1.084   .     S
C415   C420    1.397   .     A
C415   C9      1.370   1_565 S
C416   H468    1.084   .     S
C416   C419    1.397   .     A
C417   C419    1.398   .     A
C417   H469    1.084   .     S
C418   H470    1.084   .     S
C418   C420    1.398   .     A
C418   C8      1.370   1_565 S
C421   H471    1.082   .     S
C421   N442    1.363   .     A
C421   C491    1.425   .     S
C422   H472    1.082   .     S
C422   N441    1.364   .     A
C422   C560    1.425   1_455 S
C423   N441    1.369   .     A
C423   O473    1.377   .     S
C423   C557    1.425   1_455 S
C424   O475    1.378   .     S
C424   N442    1.369   .     A
C424   C490    1.425   .     S
C425   C427    1.468   .     S
C425   O447    1.298   .     A
C425   O449    1.292   .     A
C426   O450    1.292   .     A
C426   C428    1.460   .     S
C426   O448    1.294   .     A
C427   C431    1.404   .     A
C427   C433    1.408   .     A
C428   C432    1.402   .     A
C428   C434    1.399   .     A
C429   C437    1.400   .     A
C429   H461    1.083   .     S
C429   C431    1.393   .     A
C430   H462    1.084   .     S
C430   C432    1.394   .     A
C430   C438    1.402   .     A
C431   H460    1.083   .     S
C432   H459    1.083   .     S
C433   C435    1.408   .     A
C433   O457    1.383   .     S
C434   C436    1.410   .     A
C434   O455    1.383   .     S
C435   C437    1.414   .     A
C435   C439    1.414   .     A
C436   C438    1.416   .     A
C436   C440    1.415   .     A
C437   C1025   1.395   .     S
C438   C1026   1.396   1_554 S
C439   C1052   1.405   .     S
C440   C1051   1.405   1_554 S
N441   Zn451   2.009   .     S
N442   Zn452   2.009   .     S
O443   Zn451   2.000   .     S
O444   Zn452   2.000   .     S
O445   Zn452   2.002   .     S
O446   Zn451   2.002   .     S
O447   Zn451   1.955   .     S
O448   Zn452   1.955   .     S
O449   Zn452   1.919   .     S
O450   Zn451   1.919   .     S
O455   H456    0.991   .     S
O457   H458    0.991   .     S
O463   H464    0.990   .     S
O465   H466    0.990   .     S
O473   H474    0.992   .     S
O475   H476    0.992   .     S
C477   O513    1.284   .     A
C477   C488    1.420   .     S
C477   O511    1.283   .     A
C478   O514    1.284   .     A
C478   C487    1.420   .     S
C478   O512    1.283   .     A
C479   C481    1.395   .     A
C479   C508    1.428   .     A
C479   O531    1.378   .     S
C480   O533    1.380   .     S
C480   C507    1.428   .     A
C480   C482    1.396   .     A
C481   H521    1.082   .     S
C481   C1117   1.395   1_554 S
C482   H522    1.084   .     S
C482   C1118   1.396   .     S
C483   H535    1.084   .     S
C483   C488    1.397   .     A
C483   C77     1.370   1_565 S
C484   H536    1.084   .     S
C484   C487    1.397   .     A
C485   C487    1.398   .     A
C485   H537    1.084   .     S
C486   H538    1.084   .     S
C486   C488    1.398   .     A
C486   C76     1.370   1_565 S
C489   H539    1.082   .     S
C489   N510    1.363   .     A
C489   C559    1.425   .     S
C490   H540    1.082   .     S
C490   N509    1.364   .     A
C491   N509    1.369   .     A
C491   O541    1.377   .     S
C492   O543    1.378   .     S
C492   N510    1.369   .     A
C492   C558    1.425   .     S
C493   C495    1.468   .     S
C493   O515    1.298   .     A
C493   O517    1.292   .     A
C494   O518    1.292   .     A
C494   C496    1.460   .     S
C494   O516    1.294   .     A
C495   C499    1.404   .     A
C495   C501    1.408   .     A
C496   C500    1.402   .     A
C496   C502    1.399   .     A
C497   C505    1.400   .     A
C497   H529    1.083   .     S
C497   C499    1.393   .     A
C498   H530    1.084   .     S
C498   C500    1.394   .     A
C498   C506    1.402   .     A
C499   H528    1.083   .     S
C500   H527    1.083   .     S
C501   C503    1.408   .     A
C501   O525    1.383   .     S
C502   C504    1.410   .     A
C502   O523    1.383   .     S
C503   C505    1.414   .     A
C503   C507    1.414   .     A
C504   C506    1.416   .     A
C504   C508    1.415   .     A
C505   C1093   1.395   .     S
C506   C1094   1.396   1_554 S
C507   C1120   1.405   .     S
C508   C1119   1.405   1_554 S
N509   Zn519   2.009   .     S
N510   Zn520   2.009   .     S
O511   Zn519   2.000   .     S
O512   Zn520   2.000   .     S
O513   Zn520   2.002   .     S
O514   Zn519   2.002   .     S
O515   Zn519   1.955   .     S
O516   Zn520   1.955   .     S
O517   Zn520   1.919   .     S
O518   Zn519   1.919   .     S
O523   H524    0.991   .     S
O525   H526    0.991   .     S
O531   H532    0.990   .     S
O533   H534    0.990   .     S
O541   H542    0.992   .     S
O543   H544    0.992   .     S
C545   O581    1.284   .     A
C545   C556    1.420   .     S
C545   O579    1.283   .     A
C546   O582    1.284   .     A
C546   C555    1.420   .     S
C546   O580    1.283   .     A
C547   C549    1.395   .     A
C547   C576    1.428   .     A
C547   O599    1.378   .     S
C548   O601    1.380   .     S
C548   C575    1.428   .     A
C548   C550    1.396   .     A
C549   H589    1.082   .     S
C549   C1185   1.395   1_554 S
C550   H590    1.084   .     S
C550   C1186   1.396   .     S
C551   H603    1.084   .     S
C551   C556    1.397   .     A
C551   C145    1.370   1_565 S
C552   H604    1.084   .     S
C552   C555    1.397   .     A
C553   C555    1.398   .     A
C553   H605    1.084   .     S
C554   H606    1.084   .     S
C554   C556    1.398   .     A
C554   C144    1.370   1_565 S
C557   H607    1.082   .     S
C557   N578    1.363   .     A
C557   C423    1.425   1_655 S
C558   H608    1.082   .     S
C558   N577    1.364   .     A
C559   N577    1.369   .     A
C559   O609    1.377   .     S
C560   O611    1.378   .     S
C560   N578    1.369   .     A
C560   C422    1.425   1_655 S
C561   C563    1.468   .     S
C561   O583    1.298   .     A
C561   O585    1.292   .     A
C562   O586    1.292   .     A
C562   C564    1.460   .     S
C562   O584    1.294   .     A
C563   C567    1.404   .     A
C563   C569    1.408   .     A
C564   C568    1.402   .     A
C564   C570    1.399   .     A
C565   C573    1.400   .     A
C565   H597    1.083   .     S
C565   C567    1.393   .     A
C566   H598    1.084   .     S
C566   C568    1.394   .     A
C566   C574    1.402   .     A
C567   H596    1.083   .     S
C568   H595    1.083   .     S
C569   C571    1.408   .     A
C569   O593    1.383   .     S
C570   C572    1.410   .     A
C570   O591    1.383   .     S
C571   C573    1.414   .     A
C571   C575    1.414   .     A
C572   C574    1.416   .     A
C572   C576    1.415   .     A
C573   C1161   1.395   .     S
C574   C1162   1.396   1_554 S
C575   C1188   1.405   .     S
C576   C1187   1.405   1_554 S
N577   Zn587   2.009   .     S
N578   Zn588   2.009   .     S
O579   Zn587   2.000   .     S
O580   Zn588   2.000   .     S
O581   Zn588   2.002   .     S
O582   Zn587   2.002   .     S
O583   Zn587   1.955   .     S
O584   Zn588   1.955   .     S
O585   Zn588   1.919   .     S
O586   Zn587   1.919   .     S
O591   H592    0.991   .     S
O593   H594    0.991   .     S
O599   H600    0.990   .     S
O601   H602    0.990   .     S
O609   H610    0.992   .     S
O611   H612    0.992   .     S
C613   O649    1.284   .     A
C613   C624    1.420   .     S
C613   O647    1.283   .     A
C614   O650    1.284   .     A
C614   C623    1.420   .     S
C614   O648    1.283   .     A
C615   C617    1.395   .     A
C615   C644    1.428   .     A
C615   O667    1.378   .     S
C616   O669    1.380   .     S
C616   C643    1.428   .     A
C616   C618    1.396   .     A
C617   H657    1.082   .     S
C618   H658    1.084   .     S
C618   C30     1.396   1_556 S
C619   H671    1.084   .     S
C619   C624    1.397   .     A
C619   C825    1.370   .     S
C620   H672    1.084   .     S
C620   C623    1.397   .     A
C620   C1030   1.370   1_545 S
C621   C623    1.398   .     A
C621   H673    1.084   .     S
C621   C1027   1.370   1_545 S
C622   H674    1.084   .     S
C622   C624    1.398   .     A
C622   C824    1.370   .     S
C625   H675    1.082   .     S
C625   N646    1.363   .     A
C625   C695    1.425   .     S
C626   H676    1.082   .     S
C626   N645    1.364   .     A
C626   C764    1.425   1_455 S
C627   N645    1.369   .     A
C627   O677    1.377   .     S
C627   C761    1.425   1_455 S
C628   O679    1.378   .     S
C628   N646    1.369   .     A
C628   C694    1.425   .     S
C629   C631    1.468   .     S
C629   O651    1.298   .     A
C629   O653    1.292   .     A
C630   O654    1.292   .     A
C630   C632    1.460   .     S
C630   O652    1.294   .     A
C631   C635    1.404   .     A
C631   C637    1.408   .     A
C632   C636    1.402   .     A
C632   C638    1.399   .     A
C633   C641    1.400   .     A
C633   H665    1.083   .     S
C633   C635    1.393   .     A
C634   H666    1.084   .     S
C634   C636    1.394   .     A
C634   C642    1.402   .     A
C635   H664    1.083   .     S
C636   H663    1.083   .     S
C637   C639    1.408   .     A
C637   O661    1.383   .     S
C638   C640    1.410   .     A
C638   O659    1.383   .     S
C639   C641    1.414   .     A
C639   C643    1.414   .     A
C640   C642    1.416   .     A
C640   C644    1.415   .     A
C641   C5      1.395   1_556 S
C643   C32     1.405   1_556 S
N645   Zn655   2.009   .     S
N646   Zn656   2.009   .     S
O647   Zn655   2.000   .     S
O648   Zn656   2.000   .     S
O649   Zn656   2.002   .     S
O650   Zn655   2.002   .     S
O651   Zn655   1.955   .     S
O652   Zn656   1.955   .     S
O653   Zn656   1.919   .     S
O654   Zn655   1.919   .     S
O659   H660    0.991   .     S
O661   H662    0.991   .     S
O667   H668    0.990   .     S
O669   H670    0.990   .     S
O677   H678    0.992   .     S
O679   H680    0.992   .     S
C681   O717    1.284   .     A
C681   C692    1.420   .     S
C681   O715    1.283   .     A
C682   O718    1.284   .     A
C682   C691    1.420   .     S
C682   O716    1.283   .     A
C683   C685    1.395   .     A
C683   C712    1.428   .     A
C683   O735    1.378   .     S
C684   O737    1.380   .     S
C684   C711    1.428   .     A
C684   C686    1.396   .     A
C685   H725    1.082   .     S
C686   H726    1.084   .     S
C686   C98     1.396   1_556 S
C687   H739    1.084   .     S
C687   C692    1.397   .     A
C687   C893    1.370   .     S
C688   H740    1.084   .     S
C688   C691    1.397   .     A
C688   C1098   1.370   1_545 S
C689   C691    1.398   .     A
C689   H741    1.084   .     S
C689   C1095   1.370   1_545 S
C690   H742    1.084   .     S
C690   C692    1.398   .     A
C690   C892    1.370   .     S
C693   H743    1.082   .     S
C693   N714    1.363   .     A
C693   C763    1.425   .     S
C694   H744    1.082   .     S
C694   N713    1.364   .     A
C695   N713    1.369   .     A
C695   O745    1.377   .     S
C696   O747    1.378   .     S
C696   N714    1.369   .     A
C696   C762    1.425   .     S
C697   C699    1.468   .     S
C697   O719    1.298   .     A
C697   O721    1.292   .     A
C698   O722    1.292   .     A
C698   C700    1.460   .     S
C698   O720    1.294   .     A
C699   C703    1.404   .     A
C699   C705    1.408   .     A
C700   C704    1.402   .     A
C700   C706    1.399   .     A
C701   C709    1.400   .     A
C701   H733    1.083   .     S
C701   C703    1.393   .     A
C702   H734    1.084   .     S
C702   C704    1.394   .     A
C702   C710    1.402   .     A
C703   H732    1.083   .     S
C704   H731    1.083   .     S
C705   C707    1.408   .     A
C705   O729    1.383   .     S
C706   C708    1.410   .     A
C706   O727    1.383   .     S
C707   C709    1.414   .     A
C707   C711    1.414   .     A
C708   C710    1.416   .     A
C708   C712    1.415   .     A
C709   C73     1.395   1_556 S
C711   C100    1.405   1_556 S
N713   Zn723   2.009   .     S
N714   Zn724   2.009   .     S
O715   Zn723   2.000   .     S
O716   Zn724   2.000   .     S
O717   Zn724   2.002   .     S
O718   Zn723   2.002   .     S
O719   Zn723   1.955   .     S
O720   Zn724   1.955   .     S
O721   Zn724   1.919   .     S
O722   Zn723   1.919   .     S
O727   H728    0.991   .     S
O729   H730    0.991   .     S
O735   H736    0.990   .     S
O737   H738    0.990   .     S
O745   H746    0.992   .     S
O747   H748    0.992   .     S
C749   O785    1.284   .     A
C749   C760    1.420   .     S
C749   O783    1.283   .     A
C750   O786    1.284   .     A
C750   C759    1.420   .     S
C750   O784    1.283   .     A
C751   C753    1.395   .     A
C751   C780    1.428   .     A
C751   O803    1.378   .     S
C752   O805    1.380   .     S
C752   C779    1.428   .     A
C752   C754    1.396   .     A
C753   H793    1.082   .     S
C754   H794    1.084   .     S
C754   C166    1.396   1_556 S
C755   H807    1.084   .     S
C755   C760    1.397   .     A
C755   C961    1.370   .     S
C756   H808    1.084   .     S
C756   C759    1.397   .     A
C756   C1166   1.370   1_545 S
C757   C759    1.398   .     A
C757   H809    1.084   .     S
C757   C1163   1.370   1_545 S
C758   H810    1.084   .     S
C758   C760    1.398   .     A
C758   C960    1.370   .     S
C761   H811    1.082   .     S
C761   N782    1.363   .     A
C761   C627    1.425   1_655 S
C762   H812    1.082   .     S
C762   N781    1.364   .     A
C763   N781    1.369   .     A
C763   O813    1.377   .     S
C764   O815    1.378   .     S
C764   N782    1.369   .     A
C764   C626    1.425   1_655 S
C765   C767    1.468   .     S
C765   O787    1.298   .     A
C765   O789    1.292   .     A
C766   O790    1.292   .     A
C766   C768    1.460   .     S
C766   O788    1.294   .     A
C767   C771    1.404   .     A
C767   C773    1.408   .     A
C768   C772    1.402   .     A
C768   C774    1.399   .     A
C769   C777    1.400   .     A
C769   H801    1.083   .     S
C769   C771    1.393   .     A
C770   H802    1.084   .     S
C770   C772    1.394   .     A
C770   C778    1.402   .     A
C771   H800    1.083   .     S
C772   H799    1.083   .     S
C773   C775    1.408   .     A
C773   O797    1.383   .     S
C774   C776    1.410   .     A
C774   O795    1.383   .     S
C775   C777    1.414   .     A
C775   C779    1.414   .     A
C776   C778    1.416   .     A
C776   C780    1.415   .     A
C777   C141    1.395   1_556 S
C779   C168    1.405   1_556 S
N781   Zn791   2.009   .     S
N782   Zn792   2.009   .     S
O783   Zn791   2.000   .     S
O784   Zn792   2.000   .     S
O785   Zn792   2.002   .     S
O786   Zn791   2.002   .     S
O787   Zn791   1.955   .     S
O788   Zn792   1.955   .     S
O789   Zn792   1.919   .     S
O790   Zn791   1.919   .     S
O795   H796    0.991   .     S
O797   H798    0.991   .     S
O803   H804    0.990   .     S
O805   H806    0.990   .     S
O813   H814    0.992   .     S
O815   H816    0.992   .     S
C817   O853    1.284   .     A
C817   C828    1.420   .     S
C817   O851    1.283   .     A
C818   O854    1.284   .     A
C818   C827    1.420   .     S
C818   O852    1.283   .     A
C819   C821    1.395   .     A
C819   C848    1.428   .     A
C819   O871    1.378   .     S
C820   O873    1.380   .     S
C820   C847    1.428   .     A
C820   C822    1.396   .     A
C821   H861    1.082   .     S
C822   H862    1.084   .     S
C822   C234    1.396   1_556 S
C823   H875    1.084   .     S
C823   C828    1.397   .     A
C823   C1029   1.370   .     S
C824   H876    1.084   .     S
C824   C827    1.397   .     A
C825   C827    1.398   .     A
C825   H877    1.084   .     S
C826   H878    1.084   .     S
C826   C828    1.398   .     A
C826   C1028   1.370   .     S
C829   H879    1.082   .     S
C829   N850    1.363   .     A
C829   C899    1.425   .     S
C830   H880    1.082   .     S
C830   N849    1.364   .     A
C830   C968    1.425   1_455 S
C831   N849    1.369   .     A
C831   O881    1.377   .     S
C831   C965    1.425   1_455 S
C832   O883    1.378   .     S
C832   N850    1.369   .     A
C832   C898    1.425   .     S
C833   C835    1.468   .     S
C833   O855    1.298   .     A
C833   O857    1.292   .     A
C834   O858    1.292   .     A
C834   C836    1.460   .     S
C834   O856    1.294   .     A
C835   C839    1.404   .     A
C835   C841    1.408   .     A
C836   C840    1.402   .     A
C836   C842    1.399   .     A
C837   C845    1.400   .     A
C837   H869    1.083   .     S
C837   C839    1.393   .     A
C838   H870    1.084   .     S
C838   C840    1.394   .     A
C838   C846    1.402   .     A
C839   H868    1.083   .     S
C840   H867    1.083   .     S
C841   C843    1.408   .     A
C841   O865    1.383   .     S
C842   C844    1.410   .     A
C842   O863    1.383   .     S
C843   C845    1.414   .     A
C843   C847    1.414   .     A
C844   C846    1.416   .     A
C844   C848    1.415   .     A
C845   C209    1.395   1_556 S
C847   C236    1.405   1_556 S
N849   Zn859   2.009   .     S
N850   Zn860   2.009   .     S
O851   Zn859   2.000   .     S
O852   Zn860   2.000   .     S
O853   Zn860   2.002   .     S
O854   Zn859   2.002   .     S
O855   Zn859   1.955   .     S
O856   Zn860   1.955   .     S
O857   Zn860   1.919   .     S
O858   Zn859   1.919   .     S
O863   H864    0.991   .     S
O865   H866    0.991   .     S
O871   H872    0.990   .     S
O873   H874    0.990   .     S
O881   H882    0.992   .     S
O883   H884    0.992   .     S
C885   O921    1.284   .     A
C885   C896    1.420   .     S
C885   O919    1.283   .     A
C886   O922    1.284   .     A
C886   C895    1.420   .     S
C886   O920    1.283   .     A
C887   C889    1.395   .     A
C887   C916    1.428   .     A
C887   O939    1.378   .     S
C888   O941    1.380   .     S
C888   C915    1.428   .     A
C888   C890    1.396   .     A
C889   H929    1.082   .     S
C890   H930    1.084   .     S
C890   C302    1.396   1_556 S
C891   H943    1.084   .     S
C891   C896    1.397   .     A
C891   C1097   1.370   .     S
C892   H944    1.084   .     S
C892   C895    1.397   .     A
C893   C895    1.398   .     A
C893   H945    1.084   .     S
C894   H946    1.084   .     S
C894   C896    1.398   .     A
C894   C1096   1.370   .     S
C897   H947    1.082   .     S
C897   N918    1.363   .     A
C897   C967    1.425   .     S
C898   H948    1.082   .     S
C898   N917    1.364   .     A
C899   N917    1.369   .     A
C899   O949    1.377   .     S
C900   O951    1.378   .     S
C900   N918    1.369   .     A
C900   C966    1.425   .     S
C901   C903    1.468   .     S
C901   O923    1.298   .     A
C901   O925    1.292   .     A
C902   O926    1.292   .     A
C902   C904    1.460   .     S
C902   O924    1.294   .     A
C903   C907    1.404   .     A
C903   C909    1.408   .     A
C904   C908    1.402   .     A
C904   C910    1.399   .     A
C905   C913    1.400   .     A
C905   H937    1.083   .     S
C905   C907    1.393   .     A
C906   H938    1.084   .     S
C906   C908    1.394   .     A
C906   C914    1.402   .     A
C907   H936    1.083   .     S
C908   H935    1.083   .     S
C909   C911    1.408   .     A
C909   O933    1.383   .     S
C910   C912    1.410   .     A
C910   O931    1.383   .     S
C911   C913    1.414   .     A
C911   C915    1.414   .     A
C912   C914    1.416   .     A
C912   C916    1.415   .     A
C913   C277    1.395   1_556 S
C915   C304    1.405   1_556 S
N917   Zn927   2.009   .     S
N918   Zn928   2.009   .     S
O919   Zn927   2.000   .     S
O920   Zn928   2.000   .     S
O921   Zn928   2.002   .     S
O922   Zn927   2.002   .     S
O923   Zn927   1.955   .     S
O924   Zn928   1.955   .     S
O925   Zn928   1.919   .     S
O926   Zn927   1.919   .     S
O931   H932    0.991   .     S
O933   H934    0.991   .     S
O939   H940    0.990   .     S
O941   H942    0.990   .     S
O949   H950    0.992   .     S
O951   H952    0.992   .     S
C953   O989    1.284   .     A
C953   C964    1.420   .     S
C953   O987    1.283   .     A
C954   O990    1.284   .     A
C954   C963    1.420   .     S
C954   O988    1.283   .     A
C955   C957    1.395   .     A
C955   C984    1.428   .     A
C955   O1007   1.378   .     S
C956   O1009   1.380   .     S
C956   C983    1.428   .     A
C956   C958    1.396   .     A
C957   H997    1.082   .     S
C958   H998    1.084   .     S
C958   C370    1.396   1_556 S
C959   H1011   1.084   .     S
C959   C964    1.397   .     A
C959   C1165   1.370   .     S
C960   H1012   1.084   .     S
C960   C963    1.397   .     A
C961   C963    1.398   .     A
C961   H1013   1.084   .     S
C962   H1014   1.084   .     S
C962   C964    1.398   .     A
C962   C1164   1.370   .     S
C965   H1015   1.082   .     S
C965   N986    1.363   .     A
C965   C831    1.425   1_655 S
C966   H1016   1.082   .     S
C966   N985    1.364   .     A
C967   N985    1.369   .     A
C967   O1017   1.377   .     S
C968   O1019   1.378   .     S
C968   N986    1.369   .     A
C968   C830    1.425   1_655 S
C969   C971    1.468   .     S
C969   O991    1.298   .     A
C969   O993    1.292   .     A
C970   O994    1.292   .     A
C970   C972    1.460   .     S
C970   O992    1.294   .     A
C971   C975    1.404   .     A
C971   C977    1.408   .     A
C972   C976    1.402   .     A
C972   C978    1.399   .     A
C973   C981    1.400   .     A
C973   H1005   1.083   .     S
C973   C975    1.393   .     A
C974   H1006   1.084   .     S
C974   C976    1.394   .     A
C974   C982    1.402   .     A
C975   H1004   1.083   .     S
C976   H1003   1.083   .     S
C977   C979    1.408   .     A
C977   O1001   1.383   .     S
C978   C980    1.410   .     A
C978   O999    1.383   .     S
C979   C981    1.414   .     A
C979   C983    1.414   .     A
C980   C982    1.416   .     A
C980   C984    1.415   .     A
C981   C345    1.395   1_556 S
C983   C372    1.405   1_556 S
N985   Zn995   2.009   .     S
N986   Zn996   2.009   .     S
O987   Zn995   2.000   .     S
O988   Zn996   2.000   .     S
O989   Zn996   2.002   .     S
O990   Zn995   2.002   .     S
O991   Zn995   1.955   .     S
O992   Zn996   1.955   .     S
O993   Zn996   1.919   .     S
O994   Zn995   1.919   .     S
O999   H1000   0.991   .     S
O1001  H1002   0.991   .     S
O1007  H1008   0.990   .     S
O1009  H1010   0.990   .     S
O1017  H1018   0.992   .     S
O1019  H1020   0.992   .     S
C1021  O1057   1.284   .     A
C1021  C1032   1.420   .     S
C1021  O1055   1.283   .     A
C1022  O1058   1.284   .     A
C1022  C1031   1.420   .     S
C1022  O1056   1.283   .     A
C1023  C1025   1.395   .     A
C1023  C1052   1.428   .     A
C1023  O1075   1.378   .     S
C1024  O1077   1.380   .     S
C1024  C1051   1.428   .     A
C1024  C1026   1.396   .     A
C1025  H1065   1.082   .     S
C1026  H1066   1.084   .     S
C1026  C438    1.396   1_556 S
C1027  H1079   1.084   .     S
C1027  C1032   1.397   .     A
C1027  C621    1.370   1_565 S
C1028  H1080   1.084   .     S
C1028  C1031   1.397   .     A
C1029  C1031   1.398   .     A
C1029  H1081   1.084   .     S
C1030  H1082   1.084   .     S
C1030  C1032   1.398   .     A
C1030  C620    1.370   1_565 S
C1033  H1083   1.082   .     S
C1033  N1054   1.363   .     A
C1033  C1103   1.425   .     S
C1034  H1084   1.082   .     S
C1034  N1053   1.364   .     A
C1034  C1172   1.425   1_455 S
C1035  N1053   1.369   .     A
C1035  O1085   1.377   .     S
C1035  C1169   1.425   1_455 S
C1036  O1087   1.378   .     S
C1036  N1054   1.369   .     A
C1036  C1102   1.425   .     S
C1037  C1039   1.468   .     S
C1037  O1059   1.298   .     A
C1037  O1061   1.292   .     A
C1038  O1062   1.292   .     A
C1038  C1040   1.460   .     S
C1038  O1060   1.294   .     A
C1039  C1043   1.404   .     A
C1039  C1045   1.408   .     A
C1040  C1044   1.402   .     A
C1040  C1046   1.399   .     A
C1041  C1049   1.400   .     A
C1041  H1073   1.083   .     S
C1041  C1043   1.393   .     A
C1042  H1074   1.084   .     S
C1042  C1044   1.394   .     A
C1042  C1050   1.402   .     A
C1043  H1072   1.083   .     S
C1044  H1071   1.083   .     S
C1045  C1047   1.408   .     A
C1045  O1069   1.383   .     S
C1046  C1048   1.410   .     A
C1046  O1067   1.383   .     S
C1047  C1049   1.414   .     A
C1047  C1051   1.414   .     A
C1048  C1050   1.416   .     A
C1048  C1052   1.415   .     A
C1049  C413    1.395   1_556 S
C1051  C440    1.405   1_556 S
N1053  Zn1063  2.009   .     S
N1054  Zn1064  2.009   .     S
O1055  Zn1063  2.000   .     S
O1056  Zn1064  2.000   .     S
O1057  Zn1064  2.002   .     S
O1058  Zn1063  2.002   .     S
O1059  Zn1063  1.955   .     S
O1060  Zn1064  1.955   .     S
O1061  Zn1064  1.919   .     S
O1062  Zn1063  1.919   .     S
O1067  H1068   0.991   .     S
O1069  H1070   0.991   .     S
O1075  H1076   0.990   .     S
O1077  H1078   0.990   .     S
O1085  H1086   0.992   .     S
O1087  H1088   0.992   .     S
C1089  O1125   1.284   .     A
C1089  C1100   1.420   .     S
C1089  O1123   1.283   .     A
C1090  O1126   1.284   .     A
C1090  C1099   1.420   .     S
C1090  O1124   1.283   .     A
C1091  C1093   1.395   .     A
C1091  C1120   1.428   .     A
C1091  O1143   1.378   .     S
C1092  O1145   1.380   .     S
C1092  C1119   1.428   .     A
C1092  C1094   1.396   .     A
C1093  H1133   1.082   .     S
C1094  H1134   1.084   .     S
C1094  C506    1.396   1_556 S
C1095  H1147   1.084   .     S
C1095  C1100   1.397   .     A
C1095  C689    1.370   1_565 S
C1096  H1148   1.084   .     S
C1096  C1099   1.397   .     A
C1097  C1099   1.398   .     A
C1097  H1149   1.084   .     S
C1098  H1150   1.084   .     S
C1098  C1100   1.398   .     A
C1098  C688    1.370   1_565 S
C1101  H1151   1.082   .     S
C1101  N1122   1.363   .     A
C1101  C1171   1.425   .     S
C1102  H1152   1.082   .     S
C1102  N1121   1.364   .     A
C1103  N1121   1.369   .     A
C1103  O1153   1.377   .     S
C1104  O1155   1.378   .     S
C1104  N1122   1.369   .     A
C1104  C1170   1.425   .     S
C1105  C1107   1.468   .     S
C1105  O1127   1.298   .     A
C1105  O1129   1.292   .     A
C1106  O1130   1.292   .     A
C1106  C1108   1.460   .     S
C1106  O1128   1.294   .     A
C1107  C1111   1.404   .     A
C1107  C1113   1.408   .     A
C1108  C1112   1.402   .     A
C1108  C1114   1.399   .     A
C1109  C1117   1.400   .     A
C1109  H1141   1.083   .     S
C1109  C1111   1.393   .     A
C1110  H1142   1.084   .     S
C1110  C1112   1.394   .     A
C1110  C1118   1.402   .     A
C1111  H1140   1.083   .     S
C1112  H1139   1.083   .     S
C1113  C1115   1.408   .     A
C1113  O1137   1.383   .     S
C1114  C1116   1.410   .     A
C1114  O1135   1.383   .     S
C1115  C1117   1.414   .     A
C1115  C1119   1.414   .     A
C1116  C1118   1.416   .     A
C1116  C1120   1.415   .     A
C1117  C481    1.395   1_556 S
C1119  C508    1.405   1_556 S
N1121  Zn1131  2.009   .     S
N1122  Zn1132  2.009   .     S
O1123  Zn1131  2.000   .     S
O1124  Zn1132  2.000   .     S
O1125  Zn1132  2.002   .     S
O1126  Zn1131  2.002   .     S
O1127  Zn1131  1.955   .     S
O1128  Zn1132  1.955   .     S
O1129  Zn1132  1.919   .     S
O1130  Zn1131  1.919   .     S
O1135  H1136   0.991   .     S
O1137  H1138   0.991   .     S
O1143  H1144   0.990   .     S
O1145  H1146   0.990   .     S
O1153  H1154   0.992   .     S
O1155  H1156   0.992   .     S
C1157  O1193   1.284   .     A
C1157  C1168   1.420   .     S
C1157  O1191   1.283   .     A
C1158  O1194   1.284   .     A
C1158  C1167   1.420   .     S
C1158  O1192   1.283   .     A
C1159  C1161   1.395   .     A
C1159  C1188   1.428   .     A
C1159  O1211   1.378   .     S
C1160  O1213   1.380   .     S
C1160  C1187   1.428   .     A
C1160  C1162   1.396   .     A
C1161  H1201   1.082   .     S
C1162  H1202   1.084   .     S
C1162  C574    1.396   1_556 S
C1163  H1215   1.084   .     S
C1163  C1168   1.397   .     A
C1163  C757    1.370   1_565 S
C1164  H1216   1.084   .     S
C1164  C1167   1.397   .     A
C1165  C1167   1.398   .     A
C1165  H1217   1.084   .     S
C1166  H1218   1.084   .     S
C1166  C1168   1.398   .     A
C1166  C756    1.370   1_565 S
C1169  H1219   1.082   .     S
C1169  N1190   1.363   .     A
C1169  C1035   1.425   1_655 S
C1170  H1220   1.082   .     S
C1170  N1189   1.364   .     A
C1171  N1189   1.369   .     A
C1171  O1221   1.377   .     S
C1172  O1223   1.378   .     S
C1172  N1190   1.369   .     A
C1172  C1034   1.425   1_655 S
C1173  C1175   1.468   .     S
C1173  O1195   1.298   .     A
C1173  O1197   1.292   .     A
C1174  O1198   1.292   .     A
C1174  C1176   1.460   .     S
C1174  O1196   1.294   .     A
C1175  C1179   1.404   .     A
C1175  C1181   1.408   .     A
C1176  C1180   1.402   .     A
C1176  C1182   1.399   .     A
C1177  C1185   1.400   .     A
C1177  H1209   1.083   .     S
C1177  C1179   1.393   .     A
C1178  H1210   1.084   .     S
C1178  C1180   1.394   .     A
C1178  C1186   1.402   .     A
C1179  H1208   1.083   .     S
C1180  H1207   1.083   .     S
C1181  C1183   1.408   .     A
C1181  O1205   1.383   .     S
C1182  C1184   1.410   .     A
C1182  O1203   1.383   .     S
C1183  C1185   1.414   .     A
C1183  C1187   1.414   .     A
C1184  C1186   1.416   .     A
C1184  C1188   1.415   .     A
C1185  C549    1.395   1_556 S
C1187  C576    1.405   1_556 S
N1189  Zn1199  2.009   .     S
N1190  Zn1200  2.009   .     S
O1191  Zn1199  2.000   .     S
O1192  Zn1200  2.000   .     S
O1193  Zn1200  2.002   .     S
O1194  Zn1199  2.002   .     S
O1195  Zn1199  1.955   .     S
O1196  Zn1200  1.955   .     S
O1197  Zn1200  1.919   .     S
O1198  Zn1199  1.919   .     S
O1203  H1204   0.991   .     S
O1205  H1206   0.991   .     S
O1211  H1212   0.990   .     S
O1213  H1214   0.990   .     S
O1221  H1222   0.992   .     S
O1223  H1224   0.992   .     S
