data_str_m3_o1_o16_pcu_sym.129
_audit_creation_date              2020-01-03
_audit_creation_method            'Materials Studio'
_symmetry_space_group_name_H-M    'P1'
_symmetry_Int_Tables_number       1
_symmetry_cell_setting            triclinic
loop_
_symmetry_equiv_pos_as_xyz
  x,y,z
_cell_length_a                    29.5799
_cell_length_b                    32.1524
_cell_length_c                    26.1270
_cell_angle_alpha                 89.9120
_cell_angle_beta                  69.3071
_cell_angle_gamma                 89.5428
loop_
_atom_site_label
_atom_site_type_symbol
_atom_site_fract_x
_atom_site_fract_y
_atom_site_fract_z
_atom_site_U_iso_or_equiv
_atom_site_adp_type
_atom_site_occupancy
C1     C     0.16681   0.24665   0.24922   0.00000  Uiso   1.00
C2     C     0.14076   0.15623   0.49457   0.00000  Uiso   1.00
C3     C     0.14888   0.14372   0.44043   0.00000  Uiso   1.00
C4     C     0.17946   0.15085   0.01438   0.00000  Uiso   1.00
C5     C     0.22046   0.12604   0.48497   0.00000  Uiso   1.00
C6     C     0.22314   0.10706   0.43524   0.00000  Uiso   1.00
C7     C     0.18516   0.11341   0.41544   0.00000  Uiso   1.00
C8     C     0.17953   0.17128   0.06157   0.00000  Uiso   1.00
C9     C     0.25068   0.13330   0.06015   0.00000  Uiso   1.00
C10    C     0.12108   0.16266   0.41247   0.00000  Uiso   1.00
C11    C     0.20997   0.31205   0.22963   0.00000  Uiso   1.00
C12    C     0.13961   0.16547   0.35256   0.00000  Uiso   1.00
C13    C     0.20928   0.02132   0.23143   0.00000  Uiso   1.00
C14    C     0.16514   0.04243   0.25427   0.00000  Uiso   1.00
C15    C     0.12097   0.02085   0.27663   0.00000  Uiso   1.00
C16    C     0.12235   0.31149   0.27192   0.00000  Uiso   1.00
C17    C     0.16643   0.29076   0.24956   0.00000  Uiso   1.00
C18    C     0.31841   0.13698   0.22210   0.00000  Uiso   1.00
C19    C     0.03314   0.13727   0.22151   0.00000  Uiso   1.00
C20    C     0.01365   0.19451   0.28127   0.00000  Uiso   1.00
C21    C     0.29945   0.19503   0.28019   0.00000  Uiso   1.00
C22    C     0.16616   0.08667   0.25158   0.00000  Uiso   1.00
C23    C     0.19377   0.16607   0.14730   0.00000  Uiso   1.00
C24    C     0.25618   0.11846   0.00816   0.00000  Uiso   1.00
C25    C     0.21089   0.15908   0.08796   0.00000  Uiso   1.00
C26    C     0.07869   0.18423   0.44173   0.00000  Uiso   1.00
C27    C     0.06390   0.18805   0.49828   0.00000  Uiso   1.00
C28    C     0.09425   0.17333   0.02597   0.00000  Uiso   1.00
H29    H     0.24317   0.03774   0.21416   0.00000  Uiso   1.00
H30    H     0.08916   0.29426   0.28775   0.00000  Uiso   1.00
H31    H     0.30723   0.11268   0.20088   0.00000  Uiso   1.00
H32    H     0.05852   0.11364   0.19885   0.00000  Uiso   1.00
H33    H     0.27309   0.21736   0.30467   0.00000  Uiso   1.00
H34    H     0.28690   0.09843   0.48809   0.00000  Uiso   1.00
H35    H     0.15337   0.19541   0.08051   0.00000  Uiso   1.00
H36    H     0.05686   0.19799   0.42044   0.00000  Uiso   1.00
H37    H     0.24426   0.29584   0.21193   0.00000  Uiso   1.00
N38    N     0.04760   0.16668   0.25001   0.00000  Uiso   1.00
N39    N     0.28573   0.16665   0.25001   0.00000  Uiso   1.00
O40    O     0.12846   0.22775   0.25001   0.00000  Uiso   1.00
O41    O     0.20490   0.22774   0.25001   0.00000  Uiso   1.00
O42    O     0.10947   0.16666   0.32681   0.00000  Uiso   1.00
O43    O     0.18591   0.16665   0.32681   0.00000  Uiso   1.00
O44    O     0.12843   0.10559   0.25000   0.00000  Uiso   1.00
O45    O     0.20488   0.10558   0.25000   0.00000  Uiso   1.00
O46    O     0.14742   0.16668   0.17319   0.00000  Uiso   1.00
O47    O     0.22387   0.16667   0.17319   0.00000  Uiso   1.00
Zn48   Zn    0.11562   0.16667   0.25000   0.00000  Uiso   1.00
Zn49   Zn    0.21771   0.16666   0.25000   0.00000  Uiso   1.00
C50    C     0.28525   0.11948   0.08405   0.00000  Uiso   1.00
N51    N     0.31351   0.10798   0.10223   0.00000  Uiso   1.00
C52    C     0.07378   0.04125   0.30751   0.00000  Uiso   1.00
H53    H     0.07230   0.07129   0.32682   0.00000  Uiso   1.00
O54    O     0.03566   0.02417   0.31272   0.00000  Uiso   1.00
C55    C     0.02439   0.22151   0.31910   0.00000  Uiso   1.00
N56    N     0.03207   0.24312   0.35038   0.00000  Uiso   1.00
C57    C     0.26505   0.08050   0.40362   0.00000  Uiso   1.00
H58    H     0.25939   0.04933   0.39134   0.00000  Uiso   1.00
O59    O     0.30609   0.09405   0.38920   0.00000  Uiso   1.00
C60    C     0.07451   0.16917   0.08659   0.00000  Uiso   1.00
H61    H     0.08707   0.14385   0.10572   0.00000  Uiso   1.00
O62    O     0.04528   0.19406   0.11561   0.00000  Uiso   1.00
C63    C     0.01763   0.20774   0.02635   0.00000  Uiso   1.00
N64    N     0.31395   0.22360   0.04869   0.00000  Uiso   1.00
C65    C     0.17979   0.08443   0.37378   0.00000  Uiso   1.00
H66    H     0.21118   0.07144   0.34203   0.00000  Uiso   1.00
O67    O     0.13968   0.07348   0.37619   0.00000  Uiso   1.00
C68    C     0.50014   0.24665   0.24922   0.00000  Uiso   1.00
C69    C     0.47410   0.15623   0.49457   0.00000  Uiso   1.00
C70    C     0.48222   0.14372   0.44043   0.00000  Uiso   1.00
C71    C     0.51279   0.15085   0.01438   0.00000  Uiso   1.00
C72    C     0.55379   0.12604   0.48497   0.00000  Uiso   1.00
C73    C     0.55648   0.10706   0.43524   0.00000  Uiso   1.00
C74    C     0.51849   0.11341   0.41544   0.00000  Uiso   1.00
C75    C     0.51286   0.17128   0.06157   0.00000  Uiso   1.00
C76    C     0.58401   0.13330   0.06015   0.00000  Uiso   1.00
C77    C     0.45441   0.16266   0.41247   0.00000  Uiso   1.00
C78    C     0.54331   0.31205   0.22963   0.00000  Uiso   1.00
C79    C     0.47294   0.16547   0.35256   0.00000  Uiso   1.00
C80    C     0.54261   0.02132   0.23143   0.00000  Uiso   1.00
C81    C     0.49848   0.04243   0.25427   0.00000  Uiso   1.00
C82    C     0.45430   0.02085   0.27663   0.00000  Uiso   1.00
C83    C     0.45568   0.31149   0.27192   0.00000  Uiso   1.00
C84    C     0.49977   0.29076   0.24956   0.00000  Uiso   1.00
C85    C     0.65174   0.13698   0.22210   0.00000  Uiso   1.00
C86    C     0.36647   0.13727   0.22151   0.00000  Uiso   1.00
C87    C     0.34699   0.19451   0.28127   0.00000  Uiso   1.00
C88    C     0.63279   0.19503   0.28019   0.00000  Uiso   1.00
C89    C     0.49949   0.08667   0.25158   0.00000  Uiso   1.00
C90    C     0.52711   0.16607   0.14730   0.00000  Uiso   1.00
C91    C     0.58952   0.11846   0.00816   0.00000  Uiso   1.00
C92    C     0.54422   0.15908   0.08796   0.00000  Uiso   1.00
C93    C     0.41202   0.18423   0.44173   0.00000  Uiso   1.00
C94    C     0.39724   0.18805   0.49828   0.00000  Uiso   1.00
C95    C     0.42758   0.17333   0.02597   0.00000  Uiso   1.00
H96    H     0.57650   0.03774   0.21416   0.00000  Uiso   1.00
H97    H     0.42250   0.29426   0.28775   0.00000  Uiso   1.00
H98    H     0.64056   0.11268   0.20088   0.00000  Uiso   1.00
H99    H     0.39185   0.11364   0.19885   0.00000  Uiso   1.00
H100   H     0.60643   0.21736   0.30467   0.00000  Uiso   1.00
H101   H     0.62023   0.09843   0.48809   0.00000  Uiso   1.00
H102   H     0.48670   0.19541   0.08051   0.00000  Uiso   1.00
H103   H     0.39019   0.19799   0.42044   0.00000  Uiso   1.00
H104   H     0.57759   0.29584   0.21193   0.00000  Uiso   1.00
N105   N     0.38093   0.16668   0.25001   0.00000  Uiso   1.00
N106   N     0.61906   0.16665   0.25001   0.00000  Uiso   1.00
O107   O     0.46179   0.22775   0.25001   0.00000  Uiso   1.00
O108   O     0.53823   0.22774   0.25001   0.00000  Uiso   1.00
O109   O     0.44280   0.16666   0.32681   0.00000  Uiso   1.00
O110   O     0.51924   0.16665   0.32681   0.00000  Uiso   1.00
O111   O     0.46177   0.10559   0.25000   0.00000  Uiso   1.00
O112   O     0.53821   0.10558   0.25000   0.00000  Uiso   1.00
O113   O     0.48076   0.16668   0.17319   0.00000  Uiso   1.00
O114   O     0.55720   0.16667   0.17319   0.00000  Uiso   1.00
Zn115  Zn    0.44896   0.16667   0.25000   0.00000  Uiso   1.00
Zn116  Zn    0.55104   0.16666   0.25000   0.00000  Uiso   1.00
C117   C     0.61858   0.11948   0.08405   0.00000  Uiso   1.00
N118   N     0.64684   0.10798   0.10223   0.00000  Uiso   1.00
C119   C     0.40711   0.04125   0.30751   0.00000  Uiso   1.00
H120   H     0.40563   0.07129   0.32682   0.00000  Uiso   1.00
O121   O     0.36900   0.02417   0.31272   0.00000  Uiso   1.00
C122   C     0.35772   0.22151   0.31910   0.00000  Uiso   1.00
N123   N     0.36540   0.24312   0.35038   0.00000  Uiso   1.00
C124   C     0.59838   0.08050   0.40362   0.00000  Uiso   1.00
H125   H     0.59273   0.04933   0.39134   0.00000  Uiso   1.00
O126   O     0.63943   0.09405   0.38920   0.00000  Uiso   1.00
C127   C     0.40784   0.16917   0.08659   0.00000  Uiso   1.00
H128   H     0.42041   0.14385   0.10572   0.00000  Uiso   1.00
O129   O     0.37861   0.19406   0.11561   0.00000  Uiso   1.00
C130   C     0.35096   0.20774   0.02635   0.00000  Uiso   1.00
N131   N     0.64728   0.22360   0.04869   0.00000  Uiso   1.00
C132   C     0.51313   0.08443   0.37378   0.00000  Uiso   1.00
H133   H     0.54451   0.07144   0.34203   0.00000  Uiso   1.00
O134   O     0.47301   0.07348   0.37619   0.00000  Uiso   1.00
C135   C     0.83347   0.24665   0.24922   0.00000  Uiso   1.00
C136   C     0.80743   0.15623   0.49457   0.00000  Uiso   1.00
C137   C     0.81555   0.14372   0.44043   0.00000  Uiso   1.00
C138   C     0.84613   0.15085   0.01438   0.00000  Uiso   1.00
C139   C     0.88712   0.12604   0.48497   0.00000  Uiso   1.00
C140   C     0.88981   0.10706   0.43524   0.00000  Uiso   1.00
C141   C     0.85183   0.11341   0.41544   0.00000  Uiso   1.00
C142   C     0.84619   0.17128   0.06157   0.00000  Uiso   1.00
C143   C     0.91735   0.13330   0.06015   0.00000  Uiso   1.00
C144   C     0.78775   0.16266   0.41247   0.00000  Uiso   1.00
C145   C     0.87664   0.31205   0.22963   0.00000  Uiso   1.00
C146   C     0.80627   0.16547   0.35256   0.00000  Uiso   1.00
C147   C     0.87594   0.02132   0.23143   0.00000  Uiso   1.00
C148   C     0.83181   0.04243   0.25427   0.00000  Uiso   1.00
C149   C     0.78764   0.02085   0.27663   0.00000  Uiso   1.00
C150   C     0.78902   0.31149   0.27192   0.00000  Uiso   1.00
C151   C     0.83310   0.29076   0.24956   0.00000  Uiso   1.00
C152   C     0.98508   0.13698   0.22210   0.00000  Uiso   1.00
C153   C     0.69981   0.13727   0.22151   0.00000  Uiso   1.00
C154   C     0.68032   0.19451   0.28127   0.00000  Uiso   1.00
C155   C     0.96612   0.19503   0.28019   0.00000  Uiso   1.00
C156   C     0.83283   0.08667   0.25158   0.00000  Uiso   1.00
C157   C     0.86044   0.16607   0.14730   0.00000  Uiso   1.00
C158   C     0.92285   0.11846   0.00816   0.00000  Uiso   1.00
C159   C     0.87755   0.15908   0.08796   0.00000  Uiso   1.00
C160   C     0.74536   0.18423   0.44173   0.00000  Uiso   1.00
C161   C     0.73057   0.18805   0.49828   0.00000  Uiso   1.00
C162   C     0.76092   0.17333   0.02597   0.00000  Uiso   1.00
H163   H     0.90983   0.03774   0.21416   0.00000  Uiso   1.00
H164   H     0.75583   0.29426   0.28775   0.00000  Uiso   1.00
H165   H     0.97389   0.11268   0.20088   0.00000  Uiso   1.00
H166   H     0.72518   0.11364   0.19885   0.00000  Uiso   1.00
H167   H     0.93976   0.21736   0.30467   0.00000  Uiso   1.00
H168   H     0.95357   0.09843   0.48809   0.00000  Uiso   1.00
H169   H     0.82003   0.19541   0.08051   0.00000  Uiso   1.00
H170   H     0.72353   0.19799   0.42044   0.00000  Uiso   1.00
H171   H     0.91092   0.29584   0.21193   0.00000  Uiso   1.00
N172   N     0.71426   0.16668   0.25001   0.00000  Uiso   1.00
N173   N     0.95239   0.16665   0.25001   0.00000  Uiso   1.00
O174   O     0.79512   0.22775   0.25001   0.00000  Uiso   1.00
O175   O     0.87157   0.22774   0.25001   0.00000  Uiso   1.00
O176   O     0.77613   0.16666   0.32681   0.00000  Uiso   1.00
O177   O     0.85258   0.16665   0.32681   0.00000  Uiso   1.00
O178   O     0.79510   0.10559   0.25000   0.00000  Uiso   1.00
O179   O     0.87154   0.10558   0.25000   0.00000  Uiso   1.00
O180   O     0.81409   0.16668   0.17319   0.00000  Uiso   1.00
O181   O     0.89053   0.16667   0.17319   0.00000  Uiso   1.00
Zn182  Zn    0.78229   0.16667   0.25000   0.00000  Uiso   1.00
Zn183  Zn    0.88438   0.16666   0.25000   0.00000  Uiso   1.00
C184   C     0.95191   0.11948   0.08405   0.00000  Uiso   1.00
N185   N     0.98017   0.10798   0.10223   0.00000  Uiso   1.00
C186   C     0.74045   0.04125   0.30751   0.00000  Uiso   1.00
H187   H     0.73896   0.07129   0.32682   0.00000  Uiso   1.00
O188   O     0.70233   0.02417   0.31272   0.00000  Uiso   1.00
C189   C     0.69106   0.22151   0.31910   0.00000  Uiso   1.00
N190   N     0.69874   0.24312   0.35038   0.00000  Uiso   1.00
C191   C     0.93171   0.08050   0.40362   0.00000  Uiso   1.00
H192   H     0.92606   0.04933   0.39134   0.00000  Uiso   1.00
O193   O     0.97276   0.09405   0.38920   0.00000  Uiso   1.00
C194   C     0.74118   0.16917   0.08659   0.00000  Uiso   1.00
H195   H     0.75374   0.14385   0.10572   0.00000  Uiso   1.00
O196   O     0.71195   0.19406   0.11561   0.00000  Uiso   1.00
C197   C     0.68430   0.20774   0.02635   0.00000  Uiso   1.00
N198   N     0.98062   0.22360   0.04869   0.00000  Uiso   1.00
C199   C     0.84646   0.08443   0.37378   0.00000  Uiso   1.00
H200   H     0.87785   0.07144   0.34203   0.00000  Uiso   1.00
O201   O     0.80635   0.07348   0.37619   0.00000  Uiso   1.00
C202   C     0.16681   0.57998   0.24922   0.00000  Uiso   1.00
C203   C     0.14076   0.48957   0.49457   0.00000  Uiso   1.00
C204   C     0.14888   0.47705   0.44043   0.00000  Uiso   1.00
C205   C     0.17946   0.48418   0.01438   0.00000  Uiso   1.00
C206   C     0.22046   0.45937   0.48497   0.00000  Uiso   1.00
C207   C     0.22314   0.44040   0.43524   0.00000  Uiso   1.00
C208   C     0.18516   0.44675   0.41544   0.00000  Uiso   1.00
C209   C     0.17953   0.50461   0.06157   0.00000  Uiso   1.00
C210   C     0.25068   0.46664   0.06015   0.00000  Uiso   1.00
C211   C     0.12108   0.49600   0.41247   0.00000  Uiso   1.00
C212   C     0.20997   0.64539   0.22963   0.00000  Uiso   1.00
C213   C     0.13961   0.49881   0.35256   0.00000  Uiso   1.00
C214   C     0.20928   0.35465   0.23143   0.00000  Uiso   1.00
C215   C     0.16514   0.37577   0.25427   0.00000  Uiso   1.00
C216   C     0.12097   0.35419   0.27663   0.00000  Uiso   1.00
C217   C     0.12235   0.64483   0.27192   0.00000  Uiso   1.00
C218   C     0.16643   0.62409   0.24956   0.00000  Uiso   1.00
C219   C     0.31841   0.47031   0.22210   0.00000  Uiso   1.00
C220   C     0.03314   0.47061   0.22151   0.00000  Uiso   1.00
C221   C     0.01365   0.52785   0.28127   0.00000  Uiso   1.00
C222   C     0.29945   0.52836   0.28019   0.00000  Uiso   1.00
C223   C     0.16616   0.42000   0.25158   0.00000  Uiso   1.00
C224   C     0.19377   0.49940   0.14730   0.00000  Uiso   1.00
C225   C     0.25618   0.45180   0.00816   0.00000  Uiso   1.00
C226   C     0.21089   0.49241   0.08796   0.00000  Uiso   1.00
C227   C     0.07869   0.51756   0.44173   0.00000  Uiso   1.00
C228   C     0.06390   0.52138   0.49828   0.00000  Uiso   1.00
C229   C     0.09425   0.50666   0.02597   0.00000  Uiso   1.00
H230   H     0.24317   0.37108   0.21416   0.00000  Uiso   1.00
H231   H     0.08916   0.62760   0.28775   0.00000  Uiso   1.00
H232   H     0.30723   0.44601   0.20088   0.00000  Uiso   1.00
H233   H     0.05852   0.44697   0.19885   0.00000  Uiso   1.00
H234   H     0.27309   0.55070   0.30467   0.00000  Uiso   1.00
H235   H     0.28690   0.43176   0.48809   0.00000  Uiso   1.00
H236   H     0.15337   0.52874   0.08051   0.00000  Uiso   1.00
H237   H     0.05686   0.53132   0.42044   0.00000  Uiso   1.00
H238   H     0.24426   0.62918   0.21193   0.00000  Uiso   1.00
N239   N     0.04760   0.50001   0.25001   0.00000  Uiso   1.00
N240   N     0.28573   0.49998   0.25001   0.00000  Uiso   1.00
O241   O     0.12846   0.56108   0.25001   0.00000  Uiso   1.00
O242   O     0.20490   0.56107   0.25001   0.00000  Uiso   1.00
O243   O     0.10947   0.50000   0.32681   0.00000  Uiso   1.00
O244   O     0.18591   0.49999   0.32681   0.00000  Uiso   1.00
O245   O     0.12843   0.43893   0.25000   0.00000  Uiso   1.00
O246   O     0.20488   0.43892   0.25000   0.00000  Uiso   1.00
O247   O     0.14742   0.50001   0.17319   0.00000  Uiso   1.00
O248   O     0.22387   0.50000   0.17319   0.00000  Uiso   1.00
Zn249  Zn    0.11562   0.50001   0.25000   0.00000  Uiso   1.00
Zn250  Zn    0.21771   0.49999   0.25000   0.00000  Uiso   1.00
C251   C     0.28525   0.45282   0.08405   0.00000  Uiso   1.00
N252   N     0.31351   0.44131   0.10223   0.00000  Uiso   1.00
C253   C     0.07378   0.37458   0.30751   0.00000  Uiso   1.00
H254   H     0.07230   0.40462   0.32682   0.00000  Uiso   1.00
O255   O     0.03566   0.35751   0.31272   0.00000  Uiso   1.00
C256   C     0.02439   0.55485   0.31910   0.00000  Uiso   1.00
N257   N     0.03207   0.57645   0.35038   0.00000  Uiso   1.00
C258   C     0.26505   0.41383   0.40362   0.00000  Uiso   1.00
H259   H     0.25939   0.38266   0.39134   0.00000  Uiso   1.00
O260   O     0.30609   0.42738   0.38920   0.00000  Uiso   1.00
C261   C     0.07451   0.50250   0.08659   0.00000  Uiso   1.00
H262   H     0.08707   0.47719   0.10572   0.00000  Uiso   1.00
O263   O     0.04528   0.52739   0.11561   0.00000  Uiso   1.00
C264   C     0.01763   0.54108   0.02635   0.00000  Uiso   1.00
N265   N     0.31395   0.55693   0.04869   0.00000  Uiso   1.00
C266   C     0.17979   0.41776   0.37378   0.00000  Uiso   1.00
H267   H     0.21118   0.40477   0.34203   0.00000  Uiso   1.00
O268   O     0.13968   0.40682   0.37619   0.00000  Uiso   1.00
C269   C     0.50014   0.57998   0.24922   0.00000  Uiso   1.00
C270   C     0.47410   0.48957   0.49457   0.00000  Uiso   1.00
C271   C     0.48222   0.47705   0.44043   0.00000  Uiso   1.00
C272   C     0.51279   0.48418   0.01438   0.00000  Uiso   1.00
C273   C     0.55379   0.45937   0.48497   0.00000  Uiso   1.00
C274   C     0.55648   0.44040   0.43524   0.00000  Uiso   1.00
C275   C     0.51849   0.44675   0.41544   0.00000  Uiso   1.00
C276   C     0.51286   0.50461   0.06157   0.00000  Uiso   1.00
C277   C     0.58401   0.46664   0.06015   0.00000  Uiso   1.00
C278   C     0.45441   0.49600   0.41247   0.00000  Uiso   1.00
C279   C     0.54331   0.64539   0.22963   0.00000  Uiso   1.00
C280   C     0.47294   0.49881   0.35256   0.00000  Uiso   1.00
C281   C     0.54261   0.35465   0.23143   0.00000  Uiso   1.00
C282   C     0.49848   0.37577   0.25427   0.00000  Uiso   1.00
C283   C     0.45430   0.35419   0.27663   0.00000  Uiso   1.00
C284   C     0.45568   0.64483   0.27192   0.00000  Uiso   1.00
C285   C     0.49977   0.62409   0.24956   0.00000  Uiso   1.00
C286   C     0.65174   0.47031   0.22210   0.00000  Uiso   1.00
C287   C     0.36647   0.47061   0.22151   0.00000  Uiso   1.00
C288   C     0.34699   0.52785   0.28127   0.00000  Uiso   1.00
C289   C     0.63279   0.52836   0.28019   0.00000  Uiso   1.00
C290   C     0.49949   0.42000   0.25158   0.00000  Uiso   1.00
C291   C     0.52711   0.49940   0.14730   0.00000  Uiso   1.00
C292   C     0.58952   0.45180   0.00816   0.00000  Uiso   1.00
C293   C     0.54422   0.49241   0.08796   0.00000  Uiso   1.00
C294   C     0.41202   0.51756   0.44173   0.00000  Uiso   1.00
C295   C     0.39724   0.52138   0.49828   0.00000  Uiso   1.00
C296   C     0.42758   0.50666   0.02597   0.00000  Uiso   1.00
H297   H     0.57650   0.37108   0.21416   0.00000  Uiso   1.00
H298   H     0.42250   0.62760   0.28775   0.00000  Uiso   1.00
H299   H     0.64056   0.44601   0.20088   0.00000  Uiso   1.00
H300   H     0.39185   0.44697   0.19885   0.00000  Uiso   1.00
H301   H     0.60643   0.55070   0.30467   0.00000  Uiso   1.00
H302   H     0.62023   0.43176   0.48809   0.00000  Uiso   1.00
H303   H     0.48670   0.52874   0.08051   0.00000  Uiso   1.00
H304   H     0.39019   0.53132   0.42044   0.00000  Uiso   1.00
H305   H     0.57759   0.62918   0.21193   0.00000  Uiso   1.00
N306   N     0.38093   0.50001   0.25001   0.00000  Uiso   1.00
N307   N     0.61906   0.49998   0.25001   0.00000  Uiso   1.00
O308   O     0.46179   0.56108   0.25001   0.00000  Uiso   1.00
O309   O     0.53823   0.56107   0.25001   0.00000  Uiso   1.00
O310   O     0.44280   0.50000   0.32681   0.00000  Uiso   1.00
O311   O     0.51924   0.49999   0.32681   0.00000  Uiso   1.00
O312   O     0.46177   0.43893   0.25000   0.00000  Uiso   1.00
O313   O     0.53821   0.43892   0.25000   0.00000  Uiso   1.00
O314   O     0.48076   0.50001   0.17319   0.00000  Uiso   1.00
O315   O     0.55720   0.50000   0.17319   0.00000  Uiso   1.00
Zn316  Zn    0.44896   0.50001   0.25000   0.00000  Uiso   1.00
Zn317  Zn    0.55104   0.49999   0.25000   0.00000  Uiso   1.00
C318   C     0.61858   0.45282   0.08405   0.00000  Uiso   1.00
N319   N     0.64684   0.44131   0.10223   0.00000  Uiso   1.00
C320   C     0.40711   0.37458   0.30751   0.00000  Uiso   1.00
H321   H     0.40563   0.40462   0.32682   0.00000  Uiso   1.00
O322   O     0.36900   0.35751   0.31272   0.00000  Uiso   1.00
C323   C     0.35772   0.55485   0.31910   0.00000  Uiso   1.00
N324   N     0.36540   0.57645   0.35038   0.00000  Uiso   1.00
C325   C     0.59838   0.41383   0.40362   0.00000  Uiso   1.00
H326   H     0.59273   0.38266   0.39134   0.00000  Uiso   1.00
O327   O     0.63943   0.42738   0.38920   0.00000  Uiso   1.00
C328   C     0.40784   0.50250   0.08659   0.00000  Uiso   1.00
H329   H     0.42041   0.47719   0.10572   0.00000  Uiso   1.00
O330   O     0.37861   0.52739   0.11561   0.00000  Uiso   1.00
C331   C     0.35096   0.54108   0.02635   0.00000  Uiso   1.00
N332   N     0.64728   0.55693   0.04869   0.00000  Uiso   1.00
C333   C     0.51313   0.41776   0.37378   0.00000  Uiso   1.00
H334   H     0.54451   0.40477   0.34203   0.00000  Uiso   1.00
O335   O     0.47301   0.40682   0.37619   0.00000  Uiso   1.00
C336   C     0.83347   0.57998   0.24922   0.00000  Uiso   1.00
C337   C     0.80743   0.48957   0.49457   0.00000  Uiso   1.00
C338   C     0.81555   0.47705   0.44043   0.00000  Uiso   1.00
C339   C     0.84613   0.48418   0.01438   0.00000  Uiso   1.00
C340   C     0.88712   0.45937   0.48497   0.00000  Uiso   1.00
C341   C     0.88981   0.44040   0.43524   0.00000  Uiso   1.00
C342   C     0.85183   0.44675   0.41544   0.00000  Uiso   1.00
C343   C     0.84619   0.50461   0.06157   0.00000  Uiso   1.00
C344   C     0.91735   0.46664   0.06015   0.00000  Uiso   1.00
C345   C     0.78775   0.49600   0.41247   0.00000  Uiso   1.00
C346   C     0.87664   0.64539   0.22963   0.00000  Uiso   1.00
C347   C     0.80627   0.49881   0.35256   0.00000  Uiso   1.00
C348   C     0.87594   0.35465   0.23143   0.00000  Uiso   1.00
C349   C     0.83181   0.37577   0.25427   0.00000  Uiso   1.00
C350   C     0.78764   0.35419   0.27663   0.00000  Uiso   1.00
C351   C     0.78902   0.64483   0.27192   0.00000  Uiso   1.00
C352   C     0.83310   0.62409   0.24956   0.00000  Uiso   1.00
C353   C     0.98508   0.47031   0.22210   0.00000  Uiso   1.00
C354   C     0.69981   0.47061   0.22151   0.00000  Uiso   1.00
C355   C     0.68032   0.52785   0.28127   0.00000  Uiso   1.00
C356   C     0.96612   0.52836   0.28019   0.00000  Uiso   1.00
C357   C     0.83283   0.42000   0.25158   0.00000  Uiso   1.00
C358   C     0.86044   0.49940   0.14730   0.00000  Uiso   1.00
C359   C     0.92285   0.45180   0.00816   0.00000  Uiso   1.00
C360   C     0.87755   0.49241   0.08796   0.00000  Uiso   1.00
C361   C     0.74536   0.51756   0.44173   0.00000  Uiso   1.00
C362   C     0.73057   0.52138   0.49828   0.00000  Uiso   1.00
C363   C     0.76092   0.50666   0.02597   0.00000  Uiso   1.00
H364   H     0.90983   0.37108   0.21416   0.00000  Uiso   1.00
H365   H     0.75583   0.62760   0.28775   0.00000  Uiso   1.00
H366   H     0.97389   0.44601   0.20088   0.00000  Uiso   1.00
H367   H     0.72518   0.44697   0.19885   0.00000  Uiso   1.00
H368   H     0.93976   0.55070   0.30467   0.00000  Uiso   1.00
H369   H     0.95357   0.43176   0.48809   0.00000  Uiso   1.00
H370   H     0.82003   0.52874   0.08051   0.00000  Uiso   1.00
H371   H     0.72353   0.53132   0.42044   0.00000  Uiso   1.00
H372   H     0.91092   0.62918   0.21193   0.00000  Uiso   1.00
N373   N     0.71426   0.50001   0.25001   0.00000  Uiso   1.00
N374   N     0.95239   0.49998   0.25001   0.00000  Uiso   1.00
O375   O     0.79512   0.56108   0.25001   0.00000  Uiso   1.00
O376   O     0.87157   0.56107   0.25001   0.00000  Uiso   1.00
O377   O     0.77613   0.50000   0.32681   0.00000  Uiso   1.00
O378   O     0.85258   0.49999   0.32681   0.00000  Uiso   1.00
O379   O     0.79510   0.43893   0.25000   0.00000  Uiso   1.00
O380   O     0.87154   0.43892   0.25000   0.00000  Uiso   1.00
O381   O     0.81409   0.50001   0.17319   0.00000  Uiso   1.00
O382   O     0.89053   0.50000   0.17319   0.00000  Uiso   1.00
Zn383  Zn    0.78229   0.50001   0.25000   0.00000  Uiso   1.00
Zn384  Zn    0.88438   0.49999   0.25000   0.00000  Uiso   1.00
C385   C     0.95191   0.45282   0.08405   0.00000  Uiso   1.00
N386   N     0.98017   0.44131   0.10223   0.00000  Uiso   1.00
C387   C     0.74045   0.37458   0.30751   0.00000  Uiso   1.00
H388   H     0.73896   0.40462   0.32682   0.00000  Uiso   1.00
O389   O     0.70233   0.35751   0.31272   0.00000  Uiso   1.00
C390   C     0.69106   0.55485   0.31910   0.00000  Uiso   1.00
N391   N     0.69874   0.57645   0.35038   0.00000  Uiso   1.00
C392   C     0.93171   0.41383   0.40362   0.00000  Uiso   1.00
H393   H     0.92606   0.38266   0.39134   0.00000  Uiso   1.00
O394   O     0.97276   0.42738   0.38920   0.00000  Uiso   1.00
C395   C     0.74118   0.50250   0.08659   0.00000  Uiso   1.00
H396   H     0.75374   0.47719   0.10572   0.00000  Uiso   1.00
O397   O     0.71195   0.52739   0.11561   0.00000  Uiso   1.00
C398   C     0.68430   0.54108   0.02635   0.00000  Uiso   1.00
N399   N     0.98062   0.55693   0.04869   0.00000  Uiso   1.00
C400   C     0.84646   0.41776   0.37378   0.00000  Uiso   1.00
H401   H     0.87785   0.40477   0.34203   0.00000  Uiso   1.00
O402   O     0.80635   0.40682   0.37619   0.00000  Uiso   1.00
C403   C     0.16681   0.91332   0.24922   0.00000  Uiso   1.00
C404   C     0.14076   0.82290   0.49457   0.00000  Uiso   1.00
C405   C     0.14888   0.81038   0.44043   0.00000  Uiso   1.00
C406   C     0.17946   0.81752   0.01438   0.00000  Uiso   1.00
C407   C     0.22046   0.79270   0.48497   0.00000  Uiso   1.00
C408   C     0.22314   0.77373   0.43524   0.00000  Uiso   1.00
C409   C     0.18516   0.78008   0.41544   0.00000  Uiso   1.00
C410   C     0.17953   0.83795   0.06157   0.00000  Uiso   1.00
C411   C     0.25068   0.79997   0.06015   0.00000  Uiso   1.00
C412   C     0.12108   0.82933   0.41247   0.00000  Uiso   1.00
C413   C     0.20997   0.97872   0.22963   0.00000  Uiso   1.00
C414   C     0.13961   0.83214   0.35256   0.00000  Uiso   1.00
C415   C     0.20928   0.68799   0.23143   0.00000  Uiso   1.00
C416   C     0.16514   0.70910   0.25427   0.00000  Uiso   1.00
C417   C     0.12097   0.68752   0.27663   0.00000  Uiso   1.00
C418   C     0.12235   0.97816   0.27192   0.00000  Uiso   1.00
C419   C     0.16643   0.95742   0.24956   0.00000  Uiso   1.00
C420   C     0.31841   0.80364   0.22210   0.00000  Uiso   1.00
C421   C     0.03314   0.80394   0.22151   0.00000  Uiso   1.00
C422   C     0.01365   0.86118   0.28127   0.00000  Uiso   1.00
C423   C     0.29945   0.86169   0.28019   0.00000  Uiso   1.00
C424   C     0.16616   0.75333   0.25158   0.00000  Uiso   1.00
C425   C     0.19377   0.83274   0.14730   0.00000  Uiso   1.00
C426   C     0.25618   0.78513   0.00816   0.00000  Uiso   1.00
C427   C     0.21089   0.82575   0.08796   0.00000  Uiso   1.00
C428   C     0.07869   0.85090   0.44173   0.00000  Uiso   1.00
C429   C     0.06390   0.85472   0.49828   0.00000  Uiso   1.00
C430   C     0.09425   0.84000   0.02597   0.00000  Uiso   1.00
H431   H     0.24317   0.70441   0.21416   0.00000  Uiso   1.00
H432   H     0.08916   0.96093   0.28775   0.00000  Uiso   1.00
H433   H     0.30723   0.77935   0.20088   0.00000  Uiso   1.00
H434   H     0.05852   0.78031   0.19885   0.00000  Uiso   1.00
H435   H     0.27309   0.88403   0.30467   0.00000  Uiso   1.00
H436   H     0.28690   0.76510   0.48809   0.00000  Uiso   1.00
H437   H     0.15337   0.86207   0.08051   0.00000  Uiso   1.00
H438   H     0.05686   0.86465   0.42044   0.00000  Uiso   1.00
H439   H     0.24426   0.96251   0.21193   0.00000  Uiso   1.00
N440   N     0.04760   0.83334   0.25001   0.00000  Uiso   1.00
N441   N     0.28573   0.83331   0.25001   0.00000  Uiso   1.00
O442   O     0.12846   0.89442   0.25001   0.00000  Uiso   1.00
O443   O     0.20490   0.89441   0.25001   0.00000  Uiso   1.00
O444   O     0.10947   0.83333   0.32681   0.00000  Uiso   1.00
O445   O     0.18591   0.83332   0.32681   0.00000  Uiso   1.00
O446   O     0.12843   0.77226   0.25000   0.00000  Uiso   1.00
O447   O     0.20488   0.77225   0.25000   0.00000  Uiso   1.00
O448   O     0.14742   0.83335   0.17319   0.00000  Uiso   1.00
O449   O     0.22387   0.83334   0.17319   0.00000  Uiso   1.00
Zn450  Zn    0.11562   0.83334   0.25000   0.00000  Uiso   1.00
Zn451  Zn    0.21771   0.83333   0.25000   0.00000  Uiso   1.00
C452   C     0.28525   0.78615   0.08405   0.00000  Uiso   1.00
N453   N     0.31351   0.77465   0.10223   0.00000  Uiso   1.00
C454   C     0.07378   0.70792   0.30751   0.00000  Uiso   1.00
H455   H     0.07230   0.73795   0.32682   0.00000  Uiso   1.00
O456   O     0.03566   0.69084   0.31272   0.00000  Uiso   1.00
C457   C     0.02439   0.88818   0.31910   0.00000  Uiso   1.00
N458   N     0.03207   0.90978   0.35038   0.00000  Uiso   1.00
C459   C     0.26505   0.74717   0.40362   0.00000  Uiso   1.00
H460   H     0.25939   0.71600   0.39134   0.00000  Uiso   1.00
O461   O     0.30609   0.76072   0.38920   0.00000  Uiso   1.00
C462   C     0.07451   0.83584   0.08659   0.00000  Uiso   1.00
H463   H     0.08707   0.81052   0.10572   0.00000  Uiso   1.00
O464   O     0.04528   0.86073   0.11561   0.00000  Uiso   1.00
C465   C     0.01763   0.87441   0.02635   0.00000  Uiso   1.00
N466   N     0.31395   0.89027   0.04869   0.00000  Uiso   1.00
C467   C     0.17979   0.75110   0.37378   0.00000  Uiso   1.00
H468   H     0.21118   0.73810   0.34203   0.00000  Uiso   1.00
O469   O     0.13968   0.74015   0.37619   0.00000  Uiso   1.00
C470   C     0.50014   0.91332   0.24922   0.00000  Uiso   1.00
C471   C     0.47410   0.82290   0.49457   0.00000  Uiso   1.00
C472   C     0.48222   0.81038   0.44043   0.00000  Uiso   1.00
C473   C     0.51279   0.81752   0.01438   0.00000  Uiso   1.00
C474   C     0.55379   0.79270   0.48497   0.00000  Uiso   1.00
C475   C     0.55648   0.77373   0.43524   0.00000  Uiso   1.00
C476   C     0.51849   0.78008   0.41544   0.00000  Uiso   1.00
C477   C     0.51286   0.83795   0.06157   0.00000  Uiso   1.00
C478   C     0.58401   0.79997   0.06015   0.00000  Uiso   1.00
C479   C     0.45441   0.82933   0.41247   0.00000  Uiso   1.00
C480   C     0.54331   0.97872   0.22963   0.00000  Uiso   1.00
C481   C     0.47294   0.83214   0.35256   0.00000  Uiso   1.00
C482   C     0.54261   0.68799   0.23143   0.00000  Uiso   1.00
C483   C     0.49848   0.70910   0.25427   0.00000  Uiso   1.00
C484   C     0.45430   0.68752   0.27663   0.00000  Uiso   1.00
C485   C     0.45568   0.97816   0.27192   0.00000  Uiso   1.00
C486   C     0.49977   0.95742   0.24956   0.00000  Uiso   1.00
C487   C     0.65174   0.80364   0.22210   0.00000  Uiso   1.00
C488   C     0.36647   0.80394   0.22151   0.00000  Uiso   1.00
C489   C     0.34699   0.86118   0.28127   0.00000  Uiso   1.00
C490   C     0.63279   0.86169   0.28019   0.00000  Uiso   1.00
C491   C     0.49949   0.75333   0.25158   0.00000  Uiso   1.00
C492   C     0.52711   0.83274   0.14730   0.00000  Uiso   1.00
C493   C     0.58952   0.78513   0.00816   0.00000  Uiso   1.00
C494   C     0.54422   0.82575   0.08796   0.00000  Uiso   1.00
C495   C     0.41202   0.85090   0.44173   0.00000  Uiso   1.00
C496   C     0.39724   0.85472   0.49828   0.00000  Uiso   1.00
C497   C     0.42758   0.84000   0.02597   0.00000  Uiso   1.00
H498   H     0.57650   0.70441   0.21416   0.00000  Uiso   1.00
H499   H     0.42250   0.96093   0.28775   0.00000  Uiso   1.00
H500   H     0.64056   0.77935   0.20088   0.00000  Uiso   1.00
H501   H     0.39185   0.78031   0.19885   0.00000  Uiso   1.00
H502   H     0.60643   0.88403   0.30467   0.00000  Uiso   1.00
H503   H     0.62023   0.76510   0.48809   0.00000  Uiso   1.00
H504   H     0.48670   0.86207   0.08051   0.00000  Uiso   1.00
H505   H     0.39019   0.86465   0.42044   0.00000  Uiso   1.00
H506   H     0.57759   0.96251   0.21193   0.00000  Uiso   1.00
N507   N     0.38093   0.83334   0.25001   0.00000  Uiso   1.00
N508   N     0.61906   0.83331   0.25001   0.00000  Uiso   1.00
O509   O     0.46179   0.89442   0.25001   0.00000  Uiso   1.00
O510   O     0.53823   0.89441   0.25001   0.00000  Uiso   1.00
O511   O     0.44280   0.83333   0.32681   0.00000  Uiso   1.00
O512   O     0.51924   0.83332   0.32681   0.00000  Uiso   1.00
O513   O     0.46177   0.77226   0.25000   0.00000  Uiso   1.00
O514   O     0.53821   0.77225   0.25000   0.00000  Uiso   1.00
O515   O     0.48076   0.83335   0.17319   0.00000  Uiso   1.00
O516   O     0.55720   0.83334   0.17319   0.00000  Uiso   1.00
Zn517  Zn    0.44896   0.83334   0.25000   0.00000  Uiso   1.00
Zn518  Zn    0.55104   0.83333   0.25000   0.00000  Uiso   1.00
C519   C     0.61858   0.78615   0.08405   0.00000  Uiso   1.00
N520   N     0.64684   0.77465   0.10223   0.00000  Uiso   1.00
C521   C     0.40711   0.70792   0.30751   0.00000  Uiso   1.00
H522   H     0.40563   0.73795   0.32682   0.00000  Uiso   1.00
O523   O     0.36900   0.69084   0.31272   0.00000  Uiso   1.00
C524   C     0.35772   0.88818   0.31910   0.00000  Uiso   1.00
N525   N     0.36540   0.90978   0.35038   0.00000  Uiso   1.00
C526   C     0.59838   0.74717   0.40362   0.00000  Uiso   1.00
H527   H     0.59273   0.71600   0.39134   0.00000  Uiso   1.00
O528   O     0.63943   0.76072   0.38920   0.00000  Uiso   1.00
C529   C     0.40784   0.83584   0.08659   0.00000  Uiso   1.00
H530   H     0.42041   0.81052   0.10572   0.00000  Uiso   1.00
O531   O     0.37861   0.86073   0.11561   0.00000  Uiso   1.00
C532   C     0.35096   0.87441   0.02635   0.00000  Uiso   1.00
N533   N     0.64728   0.89027   0.04869   0.00000  Uiso   1.00
C534   C     0.51313   0.75110   0.37378   0.00000  Uiso   1.00
H535   H     0.54451   0.73810   0.34203   0.00000  Uiso   1.00
O536   O     0.47301   0.74015   0.37619   0.00000  Uiso   1.00
C537   C     0.83347   0.91332   0.24922   0.00000  Uiso   1.00
C538   C     0.80743   0.82290   0.49457   0.00000  Uiso   1.00
C539   C     0.81555   0.81038   0.44043   0.00000  Uiso   1.00
C540   C     0.84613   0.81752   0.01438   0.00000  Uiso   1.00
C541   C     0.88712   0.79270   0.48497   0.00000  Uiso   1.00
C542   C     0.88981   0.77373   0.43524   0.00000  Uiso   1.00
C543   C     0.85183   0.78008   0.41544   0.00000  Uiso   1.00
C544   C     0.84619   0.83795   0.06157   0.00000  Uiso   1.00
C545   C     0.91735   0.79997   0.06015   0.00000  Uiso   1.00
C546   C     0.78775   0.82933   0.41247   0.00000  Uiso   1.00
C547   C     0.87664   0.97872   0.22963   0.00000  Uiso   1.00
C548   C     0.80627   0.83214   0.35256   0.00000  Uiso   1.00
C549   C     0.87594   0.68799   0.23143   0.00000  Uiso   1.00
C550   C     0.83181   0.70910   0.25427   0.00000  Uiso   1.00
C551   C     0.78764   0.68752   0.27663   0.00000  Uiso   1.00
C552   C     0.78902   0.97816   0.27192   0.00000  Uiso   1.00
C553   C     0.83310   0.95742   0.24956   0.00000  Uiso   1.00
C554   C     0.98508   0.80364   0.22210   0.00000  Uiso   1.00
C555   C     0.69981   0.80394   0.22151   0.00000  Uiso   1.00
C556   C     0.68032   0.86118   0.28127   0.00000  Uiso   1.00
C557   C     0.96612   0.86169   0.28019   0.00000  Uiso   1.00
C558   C     0.83283   0.75333   0.25158   0.00000  Uiso   1.00
C559   C     0.86044   0.83274   0.14730   0.00000  Uiso   1.00
C560   C     0.92285   0.78513   0.00816   0.00000  Uiso   1.00
C561   C     0.87755   0.82575   0.08796   0.00000  Uiso   1.00
C562   C     0.74536   0.85090   0.44173   0.00000  Uiso   1.00
C563   C     0.73057   0.85472   0.49828   0.00000  Uiso   1.00
C564   C     0.76092   0.84000   0.02597   0.00000  Uiso   1.00
H565   H     0.90983   0.70441   0.21416   0.00000  Uiso   1.00
H566   H     0.75583   0.96093   0.28775   0.00000  Uiso   1.00
H567   H     0.97389   0.77935   0.20088   0.00000  Uiso   1.00
H568   H     0.72518   0.78031   0.19885   0.00000  Uiso   1.00
H569   H     0.93976   0.88403   0.30467   0.00000  Uiso   1.00
H570   H     0.95357   0.76510   0.48809   0.00000  Uiso   1.00
H571   H     0.82003   0.86207   0.08051   0.00000  Uiso   1.00
H572   H     0.72353   0.86465   0.42044   0.00000  Uiso   1.00
H573   H     0.91092   0.96251   0.21193   0.00000  Uiso   1.00
N574   N     0.71426   0.83334   0.25001   0.00000  Uiso   1.00
N575   N     0.95239   0.83331   0.25001   0.00000  Uiso   1.00
O576   O     0.79512   0.89442   0.25001   0.00000  Uiso   1.00
O577   O     0.87157   0.89441   0.25001   0.00000  Uiso   1.00
O578   O     0.77613   0.83333   0.32681   0.00000  Uiso   1.00
O579   O     0.85258   0.83332   0.32681   0.00000  Uiso   1.00
O580   O     0.79510   0.77226   0.25000   0.00000  Uiso   1.00
O581   O     0.87154   0.77225   0.25000   0.00000  Uiso   1.00
O582   O     0.81409   0.83335   0.17319   0.00000  Uiso   1.00
O583   O     0.89053   0.83334   0.17319   0.00000  Uiso   1.00
Zn584  Zn    0.78229   0.83334   0.25000   0.00000  Uiso   1.00
Zn585  Zn    0.88438   0.83333   0.25000   0.00000  Uiso   1.00
C586   C     0.95191   0.78615   0.08405   0.00000  Uiso   1.00
N587   N     0.98017   0.77465   0.10223   0.00000  Uiso   1.00
C588   C     0.74045   0.70792   0.30751   0.00000  Uiso   1.00
H589   H     0.73896   0.73795   0.32682   0.00000  Uiso   1.00
O590   O     0.70233   0.69084   0.31272   0.00000  Uiso   1.00
C591   C     0.69106   0.88818   0.31910   0.00000  Uiso   1.00
N592   N     0.69874   0.90978   0.35038   0.00000  Uiso   1.00
C593   C     0.93171   0.74717   0.40362   0.00000  Uiso   1.00
H594   H     0.92606   0.71600   0.39134   0.00000  Uiso   1.00
O595   O     0.97276   0.76072   0.38920   0.00000  Uiso   1.00
C596   C     0.74118   0.83584   0.08659   0.00000  Uiso   1.00
H597   H     0.75374   0.81052   0.10572   0.00000  Uiso   1.00
O598   O     0.71195   0.86073   0.11561   0.00000  Uiso   1.00
C599   C     0.68430   0.87441   0.02635   0.00000  Uiso   1.00
N600   N     0.98062   0.89027   0.04869   0.00000  Uiso   1.00
C601   C     0.84646   0.75110   0.37378   0.00000  Uiso   1.00
H602   H     0.87785   0.73810   0.34203   0.00000  Uiso   1.00
O603   O     0.80635   0.74015   0.37619   0.00000  Uiso   1.00
C604   C     0.16681   0.24665   0.74922   0.00000  Uiso   1.00
C605   C     0.14076   0.15623   0.99457   0.00000  Uiso   1.00
C606   C     0.14888   0.14372   0.94043   0.00000  Uiso   1.00
C607   C     0.17946   0.15085   0.51438   0.00000  Uiso   1.00
C608   C     0.22046   0.12604   0.98497   0.00000  Uiso   1.00
C609   C     0.22314   0.10706   0.93524   0.00000  Uiso   1.00
C610   C     0.18516   0.11341   0.91544   0.00000  Uiso   1.00
C611   C     0.17953   0.17128   0.56157   0.00000  Uiso   1.00
C612   C     0.25068   0.13330   0.56015   0.00000  Uiso   1.00
C613   C     0.12108   0.16266   0.91247   0.00000  Uiso   1.00
C614   C     0.20997   0.31205   0.72963   0.00000  Uiso   1.00
C615   C     0.13961   0.16547   0.85256   0.00000  Uiso   1.00
C616   C     0.20928   0.02132   0.73143   0.00000  Uiso   1.00
C617   C     0.16514   0.04243   0.75427   0.00000  Uiso   1.00
C618   C     0.12097   0.02085   0.77663   0.00000  Uiso   1.00
C619   C     0.12235   0.31149   0.77192   0.00000  Uiso   1.00
C620   C     0.16643   0.29076   0.74956   0.00000  Uiso   1.00
C621   C     0.31841   0.13698   0.72210   0.00000  Uiso   1.00
C622   C     0.03314   0.13727   0.72151   0.00000  Uiso   1.00
C623   C     0.01365   0.19451   0.78127   0.00000  Uiso   1.00
C624   C     0.29945   0.19503   0.78019   0.00000  Uiso   1.00
C625   C     0.16616   0.08667   0.75158   0.00000  Uiso   1.00
C626   C     0.19377   0.16607   0.64730   0.00000  Uiso   1.00
C627   C     0.25618   0.11846   0.50816   0.00000  Uiso   1.00
C628   C     0.21089   0.15908   0.58796   0.00000  Uiso   1.00
C629   C     0.07869   0.18423   0.94173   0.00000  Uiso   1.00
C630   C     0.06390   0.18805   0.99828   0.00000  Uiso   1.00
C631   C     0.09425   0.17333   0.52597   0.00000  Uiso   1.00
H632   H     0.24317   0.03774   0.71416   0.00000  Uiso   1.00
H633   H     0.08916   0.29426   0.78775   0.00000  Uiso   1.00
H634   H     0.30723   0.11268   0.70088   0.00000  Uiso   1.00
H635   H     0.05852   0.11364   0.69885   0.00000  Uiso   1.00
H636   H     0.27309   0.21736   0.80467   0.00000  Uiso   1.00
H637   H     0.28690   0.09843   0.98809   0.00000  Uiso   1.00
H638   H     0.15337   0.19541   0.58051   0.00000  Uiso   1.00
H639   H     0.05686   0.19799   0.92044   0.00000  Uiso   1.00
H640   H     0.24426   0.29584   0.71193   0.00000  Uiso   1.00
N641   N     0.04760   0.16668   0.75001   0.00000  Uiso   1.00
N642   N     0.28573   0.16665   0.75001   0.00000  Uiso   1.00
O643   O     0.12846   0.22775   0.75001   0.00000  Uiso   1.00
O644   O     0.20490   0.22774   0.75001   0.00000  Uiso   1.00
O645   O     0.10947   0.16666   0.82681   0.00000  Uiso   1.00
O646   O     0.18591   0.16665   0.82681   0.00000  Uiso   1.00
O647   O     0.12843   0.10559   0.75000   0.00000  Uiso   1.00
O648   O     0.20488   0.10558   0.75000   0.00000  Uiso   1.00
O649   O     0.14742   0.16668   0.67319   0.00000  Uiso   1.00
O650   O     0.22387   0.16667   0.67319   0.00000  Uiso   1.00
Zn651  Zn    0.11562   0.16667   0.75000   0.00000  Uiso   1.00
Zn652  Zn    0.21771   0.16666   0.75000   0.00000  Uiso   1.00
C653   C     0.28525   0.11948   0.58405   0.00000  Uiso   1.00
N654   N     0.31351   0.10798   0.60223   0.00000  Uiso   1.00
C655   C     0.07378   0.04125   0.80751   0.00000  Uiso   1.00
H656   H     0.07230   0.07129   0.82682   0.00000  Uiso   1.00
O657   O     0.03566   0.02417   0.81272   0.00000  Uiso   1.00
C658   C     0.02439   0.22151   0.81910   0.00000  Uiso   1.00
N659   N     0.03207   0.24312   0.85038   0.00000  Uiso   1.00
C660   C     0.26505   0.08050   0.90362   0.00000  Uiso   1.00
H661   H     0.25939   0.04933   0.89134   0.00000  Uiso   1.00
O662   O     0.30609   0.09405   0.88920   0.00000  Uiso   1.00
C663   C     0.07451   0.16917   0.58659   0.00000  Uiso   1.00
H664   H     0.08707   0.14385   0.60572   0.00000  Uiso   1.00
O665   O     0.04528   0.19406   0.61561   0.00000  Uiso   1.00
C666   C     0.01763   0.20774   0.52635   0.00000  Uiso   1.00
N667   N     0.31395   0.22360   0.54869   0.00000  Uiso   1.00
C668   C     0.17979   0.08443   0.87378   0.00000  Uiso   1.00
H669   H     0.21118   0.07144   0.84203   0.00000  Uiso   1.00
O670   O     0.13968   0.07348   0.87619   0.00000  Uiso   1.00
C671   C     0.50014   0.24665   0.74922   0.00000  Uiso   1.00
C672   C     0.47410   0.15623   0.99457   0.00000  Uiso   1.00
C673   C     0.48222   0.14372   0.94043   0.00000  Uiso   1.00
C674   C     0.51279   0.15085   0.51438   0.00000  Uiso   1.00
C675   C     0.55379   0.12604   0.98497   0.00000  Uiso   1.00
C676   C     0.55648   0.10706   0.93524   0.00000  Uiso   1.00
C677   C     0.51849   0.11341   0.91544   0.00000  Uiso   1.00
C678   C     0.51286   0.17128   0.56157   0.00000  Uiso   1.00
C679   C     0.58401   0.13330   0.56015   0.00000  Uiso   1.00
C680   C     0.45441   0.16266   0.91247   0.00000  Uiso   1.00
C681   C     0.54331   0.31205   0.72963   0.00000  Uiso   1.00
C682   C     0.47294   0.16547   0.85256   0.00000  Uiso   1.00
C683   C     0.54261   0.02132   0.73143   0.00000  Uiso   1.00
C684   C     0.49848   0.04243   0.75427   0.00000  Uiso   1.00
C685   C     0.45430   0.02085   0.77663   0.00000  Uiso   1.00
C686   C     0.45568   0.31149   0.77192   0.00000  Uiso   1.00
C687   C     0.49977   0.29076   0.74956   0.00000  Uiso   1.00
C688   C     0.65174   0.13698   0.72210   0.00000  Uiso   1.00
C689   C     0.36647   0.13727   0.72151   0.00000  Uiso   1.00
C690   C     0.34699   0.19451   0.78127   0.00000  Uiso   1.00
C691   C     0.63279   0.19503   0.78019   0.00000  Uiso   1.00
C692   C     0.49949   0.08667   0.75158   0.00000  Uiso   1.00
C693   C     0.52711   0.16607   0.64730   0.00000  Uiso   1.00
C694   C     0.58952   0.11846   0.50816   0.00000  Uiso   1.00
C695   C     0.54422   0.15908   0.58796   0.00000  Uiso   1.00
C696   C     0.41202   0.18423   0.94173   0.00000  Uiso   1.00
C697   C     0.39724   0.18805   0.99828   0.00000  Uiso   1.00
C698   C     0.42758   0.17333   0.52597   0.00000  Uiso   1.00
H699   H     0.57650   0.03774   0.71416   0.00000  Uiso   1.00
H700   H     0.42250   0.29426   0.78775   0.00000  Uiso   1.00
H701   H     0.64056   0.11268   0.70088   0.00000  Uiso   1.00
H702   H     0.39185   0.11364   0.69885   0.00000  Uiso   1.00
H703   H     0.60643   0.21736   0.80467   0.00000  Uiso   1.00
H704   H     0.62023   0.09843   0.98809   0.00000  Uiso   1.00
H705   H     0.48670   0.19541   0.58051   0.00000  Uiso   1.00
H706   H     0.39019   0.19799   0.92044   0.00000  Uiso   1.00
H707   H     0.57759   0.29584   0.71193   0.00000  Uiso   1.00
N708   N     0.38093   0.16668   0.75001   0.00000  Uiso   1.00
N709   N     0.61906   0.16665   0.75001   0.00000  Uiso   1.00
O710   O     0.46179   0.22775   0.75001   0.00000  Uiso   1.00
O711   O     0.53823   0.22774   0.75001   0.00000  Uiso   1.00
O712   O     0.44280   0.16666   0.82681   0.00000  Uiso   1.00
O713   O     0.51924   0.16665   0.82681   0.00000  Uiso   1.00
O714   O     0.46177   0.10559   0.75000   0.00000  Uiso   1.00
O715   O     0.53821   0.10558   0.75000   0.00000  Uiso   1.00
O716   O     0.48076   0.16668   0.67319   0.00000  Uiso   1.00
O717   O     0.55720   0.16667   0.67319   0.00000  Uiso   1.00
Zn718  Zn    0.44896   0.16667   0.75000   0.00000  Uiso   1.00
Zn719  Zn    0.55104   0.16666   0.75000   0.00000  Uiso   1.00
C720   C     0.61858   0.11948   0.58405   0.00000  Uiso   1.00
N721   N     0.64684   0.10798   0.60223   0.00000  Uiso   1.00
C722   C     0.40711   0.04125   0.80751   0.00000  Uiso   1.00
H723   H     0.40563   0.07129   0.82682   0.00000  Uiso   1.00
O724   O     0.36900   0.02417   0.81272   0.00000  Uiso   1.00
C725   C     0.35772   0.22151   0.81910   0.00000  Uiso   1.00
N726   N     0.36540   0.24312   0.85038   0.00000  Uiso   1.00
C727   C     0.59838   0.08050   0.90362   0.00000  Uiso   1.00
H728   H     0.59273   0.04933   0.89134   0.00000  Uiso   1.00
O729   O     0.63943   0.09405   0.88920   0.00000  Uiso   1.00
C730   C     0.40784   0.16917   0.58659   0.00000  Uiso   1.00
H731   H     0.42041   0.14385   0.60572   0.00000  Uiso   1.00
O732   O     0.37861   0.19406   0.61561   0.00000  Uiso   1.00
C733   C     0.35096   0.20774   0.52635   0.00000  Uiso   1.00
N734   N     0.64728   0.22360   0.54869   0.00000  Uiso   1.00
C735   C     0.51313   0.08443   0.87378   0.00000  Uiso   1.00
H736   H     0.54451   0.07144   0.84203   0.00000  Uiso   1.00
O737   O     0.47301   0.07348   0.87619   0.00000  Uiso   1.00
C738   C     0.83347   0.24665   0.74922   0.00000  Uiso   1.00
C739   C     0.80743   0.15623   0.99457   0.00000  Uiso   1.00
C740   C     0.81555   0.14372   0.94043   0.00000  Uiso   1.00
C741   C     0.84613   0.15085   0.51438   0.00000  Uiso   1.00
C742   C     0.88712   0.12604   0.98497   0.00000  Uiso   1.00
C743   C     0.88981   0.10706   0.93524   0.00000  Uiso   1.00
C744   C     0.85183   0.11341   0.91544   0.00000  Uiso   1.00
C745   C     0.84619   0.17128   0.56157   0.00000  Uiso   1.00
C746   C     0.91735   0.13330   0.56015   0.00000  Uiso   1.00
C747   C     0.78775   0.16266   0.91247   0.00000  Uiso   1.00
C748   C     0.87664   0.31205   0.72963   0.00000  Uiso   1.00
C749   C     0.80627   0.16547   0.85256   0.00000  Uiso   1.00
C750   C     0.87594   0.02132   0.73143   0.00000  Uiso   1.00
C751   C     0.83181   0.04243   0.75427   0.00000  Uiso   1.00
C752   C     0.78764   0.02085   0.77663   0.00000  Uiso   1.00
C753   C     0.78902   0.31149   0.77192   0.00000  Uiso   1.00
C754   C     0.83310   0.29076   0.74956   0.00000  Uiso   1.00
C755   C     0.98508   0.13698   0.72210   0.00000  Uiso   1.00
C756   C     0.69981   0.13727   0.72151   0.00000  Uiso   1.00
C757   C     0.68032   0.19451   0.78127   0.00000  Uiso   1.00
C758   C     0.96612   0.19503   0.78019   0.00000  Uiso   1.00
C759   C     0.83283   0.08667   0.75158   0.00000  Uiso   1.00
C760   C     0.86044   0.16607   0.64730   0.00000  Uiso   1.00
C761   C     0.92285   0.11846   0.50816   0.00000  Uiso   1.00
C762   C     0.87755   0.15908   0.58796   0.00000  Uiso   1.00
C763   C     0.74536   0.18423   0.94173   0.00000  Uiso   1.00
C764   C     0.73057   0.18805   0.99828   0.00000  Uiso   1.00
C765   C     0.76092   0.17333   0.52597   0.00000  Uiso   1.00
H766   H     0.90983   0.03774   0.71416   0.00000  Uiso   1.00
H767   H     0.75583   0.29426   0.78775   0.00000  Uiso   1.00
H768   H     0.97389   0.11268   0.70088   0.00000  Uiso   1.00
H769   H     0.72518   0.11364   0.69885   0.00000  Uiso   1.00
H770   H     0.93976   0.21736   0.80467   0.00000  Uiso   1.00
H771   H     0.95357   0.09843   0.98809   0.00000  Uiso   1.00
H772   H     0.82003   0.19541   0.58051   0.00000  Uiso   1.00
H773   H     0.72353   0.19799   0.92044   0.00000  Uiso   1.00
H774   H     0.91092   0.29584   0.71193   0.00000  Uiso   1.00
N775   N     0.71426   0.16668   0.75001   0.00000  Uiso   1.00
N776   N     0.95239   0.16665   0.75001   0.00000  Uiso   1.00
O777   O     0.79512   0.22775   0.75001   0.00000  Uiso   1.00
O778   O     0.87157   0.22774   0.75001   0.00000  Uiso   1.00
O779   O     0.77613   0.16666   0.82681   0.00000  Uiso   1.00
O780   O     0.85258   0.16665   0.82681   0.00000  Uiso   1.00
O781   O     0.79510   0.10559   0.75000   0.00000  Uiso   1.00
O782   O     0.87154   0.10558   0.75000   0.00000  Uiso   1.00
O783   O     0.81409   0.16668   0.67319   0.00000  Uiso   1.00
O784   O     0.89053   0.16667   0.67319   0.00000  Uiso   1.00
Zn785  Zn    0.78229   0.16667   0.75000   0.00000  Uiso   1.00
Zn786  Zn    0.88438   0.16666   0.75000   0.00000  Uiso   1.00
C787   C     0.95191   0.11948   0.58405   0.00000  Uiso   1.00
N788   N     0.98017   0.10798   0.60223   0.00000  Uiso   1.00
C789   C     0.74045   0.04125   0.80751   0.00000  Uiso   1.00
H790   H     0.73896   0.07129   0.82682   0.00000  Uiso   1.00
O791   O     0.70233   0.02417   0.81272   0.00000  Uiso   1.00
C792   C     0.69106   0.22151   0.81910   0.00000  Uiso   1.00
N793   N     0.69874   0.24312   0.85038   0.00000  Uiso   1.00
C794   C     0.93171   0.08050   0.90362   0.00000  Uiso   1.00
H795   H     0.92606   0.04933   0.89134   0.00000  Uiso   1.00
O796   O     0.97276   0.09405   0.88920   0.00000  Uiso   1.00
C797   C     0.74118   0.16917   0.58659   0.00000  Uiso   1.00
H798   H     0.75374   0.14385   0.60572   0.00000  Uiso   1.00
O799   O     0.71195   0.19406   0.61561   0.00000  Uiso   1.00
C800   C     0.68430   0.20774   0.52635   0.00000  Uiso   1.00
N801   N     0.98062   0.22360   0.54869   0.00000  Uiso   1.00
C802   C     0.84646   0.08443   0.87378   0.00000  Uiso   1.00
H803   H     0.87785   0.07144   0.84203   0.00000  Uiso   1.00
O804   O     0.80635   0.07348   0.87619   0.00000  Uiso   1.00
C805   C     0.16681   0.57998   0.74922   0.00000  Uiso   1.00
C806   C     0.14076   0.48957   0.99457   0.00000  Uiso   1.00
C807   C     0.14888   0.47705   0.94043   0.00000  Uiso   1.00
C808   C     0.17946   0.48418   0.51438   0.00000  Uiso   1.00
C809   C     0.22046   0.45937   0.98497   0.00000  Uiso   1.00
C810   C     0.22314   0.44040   0.93524   0.00000  Uiso   1.00
C811   C     0.18516   0.44675   0.91544   0.00000  Uiso   1.00
C812   C     0.17953   0.50461   0.56157   0.00000  Uiso   1.00
C813   C     0.25068   0.46664   0.56015   0.00000  Uiso   1.00
C814   C     0.12108   0.49600   0.91247   0.00000  Uiso   1.00
C815   C     0.20997   0.64539   0.72963   0.00000  Uiso   1.00
C816   C     0.13961   0.49881   0.85256   0.00000  Uiso   1.00
C817   C     0.20928   0.35465   0.73143   0.00000  Uiso   1.00
C818   C     0.16514   0.37577   0.75427   0.00000  Uiso   1.00
C819   C     0.12097   0.35419   0.77663   0.00000  Uiso   1.00
C820   C     0.12235   0.64483   0.77192   0.00000  Uiso   1.00
C821   C     0.16643   0.62409   0.74956   0.00000  Uiso   1.00
C822   C     0.31841   0.47031   0.72210   0.00000  Uiso   1.00
C823   C     0.03314   0.47061   0.72151   0.00000  Uiso   1.00
C824   C     0.01365   0.52785   0.78127   0.00000  Uiso   1.00
C825   C     0.29945   0.52836   0.78019   0.00000  Uiso   1.00
C826   C     0.16616   0.42000   0.75158   0.00000  Uiso   1.00
C827   C     0.19377   0.49940   0.64730   0.00000  Uiso   1.00
C828   C     0.25618   0.45180   0.50816   0.00000  Uiso   1.00
C829   C     0.21089   0.49241   0.58796   0.00000  Uiso   1.00
C830   C     0.07869   0.51756   0.94173   0.00000  Uiso   1.00
C831   C     0.06390   0.52138   0.99828   0.00000  Uiso   1.00
C832   C     0.09425   0.50666   0.52597   0.00000  Uiso   1.00
H833   H     0.24317   0.37108   0.71416   0.00000  Uiso   1.00
H834   H     0.08916   0.62760   0.78775   0.00000  Uiso   1.00
H835   H     0.30723   0.44601   0.70088   0.00000  Uiso   1.00
H836   H     0.05852   0.44697   0.69885   0.00000  Uiso   1.00
H837   H     0.27309   0.55070   0.80467   0.00000  Uiso   1.00
H838   H     0.28690   0.43176   0.98809   0.00000  Uiso   1.00
H839   H     0.15337   0.52874   0.58051   0.00000  Uiso   1.00
H840   H     0.05686   0.53132   0.92044   0.00000  Uiso   1.00
H841   H     0.24426   0.62918   0.71193   0.00000  Uiso   1.00
N842   N     0.04760   0.50001   0.75001   0.00000  Uiso   1.00
N843   N     0.28573   0.49998   0.75001   0.00000  Uiso   1.00
O844   O     0.12846   0.56108   0.75001   0.00000  Uiso   1.00
O845   O     0.20490   0.56107   0.75001   0.00000  Uiso   1.00
O846   O     0.10947   0.50000   0.82681   0.00000  Uiso   1.00
O847   O     0.18591   0.49999   0.82681   0.00000  Uiso   1.00
O848   O     0.12843   0.43893   0.75000   0.00000  Uiso   1.00
O849   O     0.20488   0.43892   0.75000   0.00000  Uiso   1.00
O850   O     0.14742   0.50001   0.67319   0.00000  Uiso   1.00
O851   O     0.22387   0.50000   0.67319   0.00000  Uiso   1.00
Zn852  Zn    0.11562   0.50001   0.75000   0.00000  Uiso   1.00
Zn853  Zn    0.21771   0.49999   0.75000   0.00000  Uiso   1.00
C854   C     0.28525   0.45282   0.58405   0.00000  Uiso   1.00
N855   N     0.31351   0.44131   0.60223   0.00000  Uiso   1.00
C856   C     0.07378   0.37458   0.80751   0.00000  Uiso   1.00
H857   H     0.07230   0.40462   0.82682   0.00000  Uiso   1.00
O858   O     0.03566   0.35751   0.81272   0.00000  Uiso   1.00
C859   C     0.02439   0.55485   0.81910   0.00000  Uiso   1.00
N860   N     0.03207   0.57645   0.85038   0.00000  Uiso   1.00
C861   C     0.26505   0.41383   0.90362   0.00000  Uiso   1.00
H862   H     0.25939   0.38266   0.89134   0.00000  Uiso   1.00
O863   O     0.30609   0.42738   0.88920   0.00000  Uiso   1.00
C864   C     0.07451   0.50250   0.58659   0.00000  Uiso   1.00
H865   H     0.08707   0.47719   0.60572   0.00000  Uiso   1.00
O866   O     0.04528   0.52739   0.61561   0.00000  Uiso   1.00
C867   C     0.01763   0.54108   0.52635   0.00000  Uiso   1.00
N868   N     0.31395   0.55693   0.54869   0.00000  Uiso   1.00
C869   C     0.17979   0.41776   0.87378   0.00000  Uiso   1.00
H870   H     0.21118   0.40477   0.84203   0.00000  Uiso   1.00
O871   O     0.13968   0.40682   0.87619   0.00000  Uiso   1.00
C872   C     0.50014   0.57998   0.74922   0.00000  Uiso   1.00
C873   C     0.47410   0.48957   0.99457   0.00000  Uiso   1.00
C874   C     0.48222   0.47705   0.94043   0.00000  Uiso   1.00
C875   C     0.51279   0.48418   0.51438   0.00000  Uiso   1.00
C876   C     0.55379   0.45937   0.98497   0.00000  Uiso   1.00
C877   C     0.55648   0.44040   0.93524   0.00000  Uiso   1.00
C878   C     0.51849   0.44675   0.91544   0.00000  Uiso   1.00
C879   C     0.51286   0.50461   0.56157   0.00000  Uiso   1.00
C880   C     0.58401   0.46664   0.56015   0.00000  Uiso   1.00
C881   C     0.45441   0.49600   0.91247   0.00000  Uiso   1.00
C882   C     0.54331   0.64539   0.72963   0.00000  Uiso   1.00
C883   C     0.47294   0.49881   0.85256   0.00000  Uiso   1.00
C884   C     0.54261   0.35465   0.73143   0.00000  Uiso   1.00
C885   C     0.49848   0.37577   0.75427   0.00000  Uiso   1.00
C886   C     0.45430   0.35419   0.77663   0.00000  Uiso   1.00
C887   C     0.45568   0.64483   0.77192   0.00000  Uiso   1.00
C888   C     0.49977   0.62409   0.74956   0.00000  Uiso   1.00
C889   C     0.65174   0.47031   0.72210   0.00000  Uiso   1.00
C890   C     0.36647   0.47061   0.72151   0.00000  Uiso   1.00
C891   C     0.34699   0.52785   0.78127   0.00000  Uiso   1.00
C892   C     0.63279   0.52836   0.78019   0.00000  Uiso   1.00
C893   C     0.49949   0.42000   0.75158   0.00000  Uiso   1.00
C894   C     0.52711   0.49940   0.64730   0.00000  Uiso   1.00
C895   C     0.58952   0.45180   0.50816   0.00000  Uiso   1.00
C896   C     0.54422   0.49241   0.58796   0.00000  Uiso   1.00
C897   C     0.41202   0.51756   0.94173   0.00000  Uiso   1.00
C898   C     0.39724   0.52138   0.99828   0.00000  Uiso   1.00
C899   C     0.42758   0.50666   0.52597   0.00000  Uiso   1.00
H900   H     0.57650   0.37108   0.71416   0.00000  Uiso   1.00
H901   H     0.42250   0.62760   0.78775   0.00000  Uiso   1.00
H902   H     0.64056   0.44601   0.70088   0.00000  Uiso   1.00
H903   H     0.39185   0.44697   0.69885   0.00000  Uiso   1.00
H904   H     0.60643   0.55070   0.80467   0.00000  Uiso   1.00
H905   H     0.62023   0.43176   0.98809   0.00000  Uiso   1.00
H906   H     0.48670   0.52874   0.58051   0.00000  Uiso   1.00
H907   H     0.39019   0.53132   0.92044   0.00000  Uiso   1.00
H908   H     0.57759   0.62918   0.71193   0.00000  Uiso   1.00
N909   N     0.38093   0.50001   0.75001   0.00000  Uiso   1.00
N910   N     0.61906   0.49998   0.75001   0.00000  Uiso   1.00
O911   O     0.46179   0.56108   0.75001   0.00000  Uiso   1.00
O912   O     0.53823   0.56107   0.75001   0.00000  Uiso   1.00
O913   O     0.44280   0.50000   0.82681   0.00000  Uiso   1.00
O914   O     0.51924   0.49999   0.82681   0.00000  Uiso   1.00
O915   O     0.46177   0.43893   0.75000   0.00000  Uiso   1.00
O916   O     0.53821   0.43892   0.75000   0.00000  Uiso   1.00
O917   O     0.48076   0.50001   0.67319   0.00000  Uiso   1.00
O918   O     0.55720   0.50000   0.67319   0.00000  Uiso   1.00
Zn919  Zn    0.44896   0.50001   0.75000   0.00000  Uiso   1.00
Zn920  Zn    0.55104   0.49999   0.75000   0.00000  Uiso   1.00
C921   C     0.61858   0.45282   0.58405   0.00000  Uiso   1.00
N922   N     0.64684   0.44131   0.60223   0.00000  Uiso   1.00
C923   C     0.40711   0.37458   0.80751   0.00000  Uiso   1.00
H924   H     0.40563   0.40462   0.82682   0.00000  Uiso   1.00
O925   O     0.36900   0.35751   0.81272   0.00000  Uiso   1.00
C926   C     0.35772   0.55485   0.81910   0.00000  Uiso   1.00
N927   N     0.36540   0.57645   0.85038   0.00000  Uiso   1.00
C928   C     0.59838   0.41383   0.90362   0.00000  Uiso   1.00
H929   H     0.59273   0.38266   0.89134   0.00000  Uiso   1.00
O930   O     0.63943   0.42738   0.88920   0.00000  Uiso   1.00
C931   C     0.40784   0.50250   0.58659   0.00000  Uiso   1.00
H932   H     0.42041   0.47719   0.60572   0.00000  Uiso   1.00
O933   O     0.37861   0.52739   0.61561   0.00000  Uiso   1.00
C934   C     0.35096   0.54108   0.52635   0.00000  Uiso   1.00
N935   N     0.64728   0.55693   0.54869   0.00000  Uiso   1.00
C936   C     0.51313   0.41776   0.87378   0.00000  Uiso   1.00
H937   H     0.54451   0.40477   0.84203   0.00000  Uiso   1.00
O938   O     0.47301   0.40682   0.87619   0.00000  Uiso   1.00
C939   C     0.83347   0.57998   0.74922   0.00000  Uiso   1.00
C940   C     0.80743   0.48957   0.99457   0.00000  Uiso   1.00
C941   C     0.81555   0.47705   0.94043   0.00000  Uiso   1.00
C942   C     0.84613   0.48418   0.51438   0.00000  Uiso   1.00
C943   C     0.88712   0.45937   0.98497   0.00000  Uiso   1.00
C944   C     0.88981   0.44040   0.93524   0.00000  Uiso   1.00
C945   C     0.85183   0.44675   0.91544   0.00000  Uiso   1.00
C946   C     0.84619   0.50461   0.56157   0.00000  Uiso   1.00
C947   C     0.91735   0.46664   0.56015   0.00000  Uiso   1.00
C948   C     0.78775   0.49600   0.91247   0.00000  Uiso   1.00
C949   C     0.87664   0.64539   0.72963   0.00000  Uiso   1.00
C950   C     0.80627   0.49881   0.85256   0.00000  Uiso   1.00
C951   C     0.87594   0.35465   0.73143   0.00000  Uiso   1.00
C952   C     0.83181   0.37577   0.75427   0.00000  Uiso   1.00
C953   C     0.78764   0.35419   0.77663   0.00000  Uiso   1.00
C954   C     0.78902   0.64483   0.77192   0.00000  Uiso   1.00
C955   C     0.83310   0.62409   0.74956   0.00000  Uiso   1.00
C956   C     0.98508   0.47031   0.72210   0.00000  Uiso   1.00
C957   C     0.69981   0.47061   0.72151   0.00000  Uiso   1.00
C958   C     0.68032   0.52785   0.78127   0.00000  Uiso   1.00
C959   C     0.96612   0.52836   0.78019   0.00000  Uiso   1.00
C960   C     0.83283   0.42000   0.75158   0.00000  Uiso   1.00
C961   C     0.86044   0.49940   0.64730   0.00000  Uiso   1.00
C962   C     0.92285   0.45180   0.50816   0.00000  Uiso   1.00
C963   C     0.87755   0.49241   0.58796   0.00000  Uiso   1.00
C964   C     0.74536   0.51756   0.94173   0.00000  Uiso   1.00
C965   C     0.73057   0.52138   0.99828   0.00000  Uiso   1.00
C966   C     0.76092   0.50666   0.52597   0.00000  Uiso   1.00
H967   H     0.90983   0.37108   0.71416   0.00000  Uiso   1.00
H968   H     0.75583   0.62760   0.78775   0.00000  Uiso   1.00
H969   H     0.97389   0.44601   0.70088   0.00000  Uiso   1.00
H970   H     0.72518   0.44697   0.69885   0.00000  Uiso   1.00
H971   H     0.93976   0.55070   0.80467   0.00000  Uiso   1.00
H972   H     0.95357   0.43176   0.98809   0.00000  Uiso   1.00
H973   H     0.82003   0.52874   0.58051   0.00000  Uiso   1.00
H974   H     0.72353   0.53132   0.92044   0.00000  Uiso   1.00
H975   H     0.91092   0.62918   0.71193   0.00000  Uiso   1.00
N976   N     0.71426   0.50001   0.75001   0.00000  Uiso   1.00
N977   N     0.95239   0.49998   0.75001   0.00000  Uiso   1.00
O978   O     0.79512   0.56108   0.75001   0.00000  Uiso   1.00
O979   O     0.87157   0.56107   0.75001   0.00000  Uiso   1.00
O980   O     0.77613   0.50000   0.82681   0.00000  Uiso   1.00
O981   O     0.85258   0.49999   0.82681   0.00000  Uiso   1.00
O982   O     0.79510   0.43893   0.75000   0.00000  Uiso   1.00
O983   O     0.87154   0.43892   0.75000   0.00000  Uiso   1.00
O984   O     0.81409   0.50001   0.67319   0.00000  Uiso   1.00
O985   O     0.89053   0.50000   0.67319   0.00000  Uiso   1.00
Zn986  Zn    0.78229   0.50001   0.75000   0.00000  Uiso   1.00
Zn987  Zn    0.88438   0.49999   0.75000   0.00000  Uiso   1.00
C988   C     0.95191   0.45282   0.58405   0.00000  Uiso   1.00
N989   N     0.98017   0.44131   0.60223   0.00000  Uiso   1.00
C990   C     0.74045   0.37458   0.80751   0.00000  Uiso   1.00
H991   H     0.73896   0.40462   0.82682   0.00000  Uiso   1.00
O992   O     0.70233   0.35751   0.81272   0.00000  Uiso   1.00
C993   C     0.69106   0.55485   0.81910   0.00000  Uiso   1.00
N994   N     0.69874   0.57645   0.85038   0.00000  Uiso   1.00
C995   C     0.93171   0.41383   0.90362   0.00000  Uiso   1.00
H996   H     0.92606   0.38266   0.89134   0.00000  Uiso   1.00
O997   O     0.97276   0.42738   0.88920   0.00000  Uiso   1.00
C998   C     0.74118   0.50250   0.58659   0.00000  Uiso   1.00
H999   H     0.75374   0.47719   0.60572   0.00000  Uiso   1.00
O1000  O     0.71195   0.52739   0.61561   0.00000  Uiso   1.00
C1001  C     0.68430   0.54108   0.52635   0.00000  Uiso   1.00
N1002  N     0.98062   0.55693   0.54869   0.00000  Uiso   1.00
C1003  C     0.84646   0.41776   0.87378   0.00000  Uiso   1.00
H1004  H     0.87785   0.40477   0.84203   0.00000  Uiso   1.00
O1005  O     0.80635   0.40682   0.87619   0.00000  Uiso   1.00
C1006  C     0.16681   0.91332   0.74922   0.00000  Uiso   1.00
C1007  C     0.14076   0.82290   0.99457   0.00000  Uiso   1.00
C1008  C     0.14888   0.81038   0.94043   0.00000  Uiso   1.00
C1009  C     0.17946   0.81752   0.51438   0.00000  Uiso   1.00
C1010  C     0.22046   0.79270   0.98497   0.00000  Uiso   1.00
C1011  C     0.22314   0.77373   0.93524   0.00000  Uiso   1.00
C1012  C     0.18516   0.78008   0.91544   0.00000  Uiso   1.00
C1013  C     0.17953   0.83795   0.56157   0.00000  Uiso   1.00
C1014  C     0.25068   0.79997   0.56015   0.00000  Uiso   1.00
C1015  C     0.12108   0.82933   0.91247   0.00000  Uiso   1.00
C1016  C     0.20997   0.97872   0.72963   0.00000  Uiso   1.00
C1017  C     0.13961   0.83214   0.85256   0.00000  Uiso   1.00
C1018  C     0.20928   0.68799   0.73143   0.00000  Uiso   1.00
C1019  C     0.16514   0.70910   0.75427   0.00000  Uiso   1.00
C1020  C     0.12097   0.68752   0.77663   0.00000  Uiso   1.00
C1021  C     0.12235   0.97816   0.77192   0.00000  Uiso   1.00
C1022  C     0.16643   0.95742   0.74956   0.00000  Uiso   1.00
C1023  C     0.31841   0.80364   0.72210   0.00000  Uiso   1.00
C1024  C     0.03314   0.80394   0.72151   0.00000  Uiso   1.00
C1025  C     0.01365   0.86118   0.78127   0.00000  Uiso   1.00
C1026  C     0.29945   0.86169   0.78019   0.00000  Uiso   1.00
C1027  C     0.16616   0.75333   0.75158   0.00000  Uiso   1.00
C1028  C     0.19377   0.83274   0.64730   0.00000  Uiso   1.00
C1029  C     0.25618   0.78513   0.50816   0.00000  Uiso   1.00
C1030  C     0.21089   0.82575   0.58796   0.00000  Uiso   1.00
C1031  C     0.07869   0.85090   0.94173   0.00000  Uiso   1.00
C1032  C     0.06390   0.85472   0.99828   0.00000  Uiso   1.00
C1033  C     0.09425   0.84000   0.52597   0.00000  Uiso   1.00
H1034  H     0.24317   0.70441   0.71416   0.00000  Uiso   1.00
H1035  H     0.08916   0.96093   0.78775   0.00000  Uiso   1.00
H1036  H     0.30723   0.77935   0.70088   0.00000  Uiso   1.00
H1037  H     0.05852   0.78031   0.69885   0.00000  Uiso   1.00
H1038  H     0.27309   0.88403   0.80467   0.00000  Uiso   1.00
H1039  H     0.28690   0.76510   0.98809   0.00000  Uiso   1.00
H1040  H     0.15337   0.86207   0.58051   0.00000  Uiso   1.00
H1041  H     0.05686   0.86465   0.92044   0.00000  Uiso   1.00
H1042  H     0.24426   0.96251   0.71193   0.00000  Uiso   1.00
N1043  N     0.04760   0.83334   0.75001   0.00000  Uiso   1.00
N1044  N     0.28573   0.83331   0.75001   0.00000  Uiso   1.00
O1045  O     0.12846   0.89442   0.75001   0.00000  Uiso   1.00
O1046  O     0.20490   0.89441   0.75001   0.00000  Uiso   1.00
O1047  O     0.10947   0.83333   0.82681   0.00000  Uiso   1.00
O1048  O     0.18591   0.83332   0.82681   0.00000  Uiso   1.00
O1049  O     0.12843   0.77226   0.75000   0.00000  Uiso   1.00
O1050  O     0.20488   0.77225   0.75000   0.00000  Uiso   1.00
O1051  O     0.14742   0.83335   0.67319   0.00000  Uiso   1.00
O1052  O     0.22387   0.83334   0.67319   0.00000  Uiso   1.00
Zn1053 Zn    0.11562   0.83334   0.75000   0.00000  Uiso   1.00
Zn1054 Zn    0.21771   0.83333   0.75000   0.00000  Uiso   1.00
C1055  C     0.28525   0.78615   0.58405   0.00000  Uiso   1.00
N1056  N     0.31351   0.77465   0.60223   0.00000  Uiso   1.00
C1057  C     0.07378   0.70792   0.80751   0.00000  Uiso   1.00
H1058  H     0.07230   0.73795   0.82682   0.00000  Uiso   1.00
O1059  O     0.03566   0.69084   0.81272   0.00000  Uiso   1.00
C1060  C     0.02439   0.88818   0.81910   0.00000  Uiso   1.00
N1061  N     0.03207   0.90978   0.85038   0.00000  Uiso   1.00
C1062  C     0.26505   0.74717   0.90362   0.00000  Uiso   1.00
H1063  H     0.25939   0.71600   0.89134   0.00000  Uiso   1.00
O1064  O     0.30609   0.76072   0.88920   0.00000  Uiso   1.00
C1065  C     0.07451   0.83584   0.58659   0.00000  Uiso   1.00
H1066  H     0.08707   0.81052   0.60572   0.00000  Uiso   1.00
O1067  O     0.04528   0.86073   0.61561   0.00000  Uiso   1.00
C1068  C     0.01763   0.87441   0.52635   0.00000  Uiso   1.00
N1069  N     0.31395   0.89027   0.54869   0.00000  Uiso   1.00
C1070  C     0.17979   0.75110   0.87378   0.00000  Uiso   1.00
H1071  H     0.21118   0.73810   0.84203   0.00000  Uiso   1.00
O1072  O     0.13968   0.74015   0.87619   0.00000  Uiso   1.00
C1073  C     0.50014   0.91332   0.74922   0.00000  Uiso   1.00
C1074  C     0.47410   0.82290   0.99457   0.00000  Uiso   1.00
C1075  C     0.48222   0.81038   0.94043   0.00000  Uiso   1.00
C1076  C     0.51279   0.81752   0.51438   0.00000  Uiso   1.00
C1077  C     0.55379   0.79270   0.98497   0.00000  Uiso   1.00
C1078  C     0.55648   0.77373   0.93524   0.00000  Uiso   1.00
C1079  C     0.51849   0.78008   0.91544   0.00000  Uiso   1.00
C1080  C     0.51286   0.83795   0.56157   0.00000  Uiso   1.00
C1081  C     0.58401   0.79997   0.56015   0.00000  Uiso   1.00
C1082  C     0.45441   0.82933   0.91247   0.00000  Uiso   1.00
C1083  C     0.54331   0.97872   0.72963   0.00000  Uiso   1.00
C1084  C     0.47294   0.83214   0.85256   0.00000  Uiso   1.00
C1085  C     0.54261   0.68799   0.73143   0.00000  Uiso   1.00
C1086  C     0.49848   0.70910   0.75427   0.00000  Uiso   1.00
C1087  C     0.45430   0.68752   0.77663   0.00000  Uiso   1.00
C1088  C     0.45568   0.97816   0.77192   0.00000  Uiso   1.00
C1089  C     0.49977   0.95742   0.74956   0.00000  Uiso   1.00
C1090  C     0.65174   0.80364   0.72210   0.00000  Uiso   1.00
C1091  C     0.36647   0.80394   0.72151   0.00000  Uiso   1.00
C1092  C     0.34699   0.86118   0.78127   0.00000  Uiso   1.00
C1093  C     0.63279   0.86169   0.78019   0.00000  Uiso   1.00
C1094  C     0.49949   0.75333   0.75158   0.00000  Uiso   1.00
C1095  C     0.52711   0.83274   0.64730   0.00000  Uiso   1.00
C1096  C     0.58952   0.78513   0.50816   0.00000  Uiso   1.00
C1097  C     0.54422   0.82575   0.58796   0.00000  Uiso   1.00
C1098  C     0.41202   0.85090   0.94173   0.00000  Uiso   1.00
C1099  C     0.39724   0.85472   0.99828   0.00000  Uiso   1.00
C1100  C     0.42758   0.84000   0.52597   0.00000  Uiso   1.00
H1101  H     0.57650   0.70441   0.71416   0.00000  Uiso   1.00
H1102  H     0.42250   0.96093   0.78775   0.00000  Uiso   1.00
H1103  H     0.64056   0.77935   0.70088   0.00000  Uiso   1.00
H1104  H     0.39185   0.78031   0.69885   0.00000  Uiso   1.00
H1105  H     0.60643   0.88403   0.80467   0.00000  Uiso   1.00
H1106  H     0.62023   0.76510   0.98809   0.00000  Uiso   1.00
H1107  H     0.48670   0.86207   0.58051   0.00000  Uiso   1.00
H1108  H     0.39019   0.86465   0.92044   0.00000  Uiso   1.00
H1109  H     0.57759   0.96251   0.71193   0.00000  Uiso   1.00
N1110  N     0.38093   0.83334   0.75001   0.00000  Uiso   1.00
N1111  N     0.61906   0.83331   0.75001   0.00000  Uiso   1.00
O1112  O     0.46179   0.89442   0.75001   0.00000  Uiso   1.00
O1113  O     0.53823   0.89441   0.75001   0.00000  Uiso   1.00
O1114  O     0.44280   0.83333   0.82681   0.00000  Uiso   1.00
O1115  O     0.51924   0.83332   0.82681   0.00000  Uiso   1.00
O1116  O     0.46177   0.77226   0.75000   0.00000  Uiso   1.00
O1117  O     0.53821   0.77225   0.75000   0.00000  Uiso   1.00
O1118  O     0.48076   0.83335   0.67319   0.00000  Uiso   1.00
O1119  O     0.55720   0.83334   0.67319   0.00000  Uiso   1.00
Zn1120 Zn    0.44896   0.83334   0.75000   0.00000  Uiso   1.00
Zn1121 Zn    0.55104   0.83333   0.75000   0.00000  Uiso   1.00
C1122  C     0.61858   0.78615   0.58405   0.00000  Uiso   1.00
N1123  N     0.64684   0.77465   0.60223   0.00000  Uiso   1.00
C1124  C     0.40711   0.70792   0.80751   0.00000  Uiso   1.00
H1125  H     0.40563   0.73795   0.82682   0.00000  Uiso   1.00
O1126  O     0.36900   0.69084   0.81272   0.00000  Uiso   1.00
C1127  C     0.35772   0.88818   0.81910   0.00000  Uiso   1.00
N1128  N     0.36540   0.90978   0.85038   0.00000  Uiso   1.00
C1129  C     0.59838   0.74717   0.90362   0.00000  Uiso   1.00
H1130  H     0.59273   0.71600   0.89134   0.00000  Uiso   1.00
O1131  O     0.63943   0.76072   0.88920   0.00000  Uiso   1.00
C1132  C     0.40784   0.83584   0.58659   0.00000  Uiso   1.00
H1133  H     0.42041   0.81052   0.60572   0.00000  Uiso   1.00
O1134  O     0.37861   0.86073   0.61561   0.00000  Uiso   1.00
C1135  C     0.35096   0.87441   0.52635   0.00000  Uiso   1.00
N1136  N     0.64728   0.89027   0.54869   0.00000  Uiso   1.00
C1137  C     0.51313   0.75110   0.87378   0.00000  Uiso   1.00
H1138  H     0.54451   0.73810   0.84203   0.00000  Uiso   1.00
O1139  O     0.47301   0.74015   0.87619   0.00000  Uiso   1.00
C1140  C     0.83347   0.91332   0.74922   0.00000  Uiso   1.00
C1141  C     0.80743   0.82290   0.99457   0.00000  Uiso   1.00
C1142  C     0.81555   0.81038   0.94043   0.00000  Uiso   1.00
C1143  C     0.84613   0.81752   0.51438   0.00000  Uiso   1.00
C1144  C     0.88712   0.79270   0.98497   0.00000  Uiso   1.00
C1145  C     0.88981   0.77373   0.93524   0.00000  Uiso   1.00
C1146  C     0.85183   0.78008   0.91544   0.00000  Uiso   1.00
C1147  C     0.84619   0.83795   0.56157   0.00000  Uiso   1.00
C1148  C     0.91735   0.79997   0.56015   0.00000  Uiso   1.00
C1149  C     0.78775   0.82933   0.91247   0.00000  Uiso   1.00
C1150  C     0.87664   0.97872   0.72963   0.00000  Uiso   1.00
C1151  C     0.80627   0.83214   0.85256   0.00000  Uiso   1.00
C1152  C     0.87594   0.68799   0.73143   0.00000  Uiso   1.00
C1153  C     0.83181   0.70910   0.75427   0.00000  Uiso   1.00
C1154  C     0.78764   0.68752   0.77663   0.00000  Uiso   1.00
C1155  C     0.78902   0.97816   0.77192   0.00000  Uiso   1.00
C1156  C     0.83310   0.95742   0.74956   0.00000  Uiso   1.00
C1157  C     0.98508   0.80364   0.72210   0.00000  Uiso   1.00
C1158  C     0.69981   0.80394   0.72151   0.00000  Uiso   1.00
C1159  C     0.68032   0.86118   0.78127   0.00000  Uiso   1.00
C1160  C     0.96612   0.86169   0.78019   0.00000  Uiso   1.00
C1161  C     0.83283   0.75333   0.75158   0.00000  Uiso   1.00
C1162  C     0.86044   0.83274   0.64730   0.00000  Uiso   1.00
C1163  C     0.92285   0.78513   0.50816   0.00000  Uiso   1.00
C1164  C     0.87755   0.82575   0.58796   0.00000  Uiso   1.00
C1165  C     0.74536   0.85090   0.94173   0.00000  Uiso   1.00
C1166  C     0.73057   0.85472   0.99828   0.00000  Uiso   1.00
C1167  C     0.76092   0.84000   0.52597   0.00000  Uiso   1.00
H1168  H     0.90983   0.70441   0.71416   0.00000  Uiso   1.00
H1169  H     0.75583   0.96093   0.78775   0.00000  Uiso   1.00
H1170  H     0.97389   0.77935   0.70088   0.00000  Uiso   1.00
H1171  H     0.72518   0.78031   0.69885   0.00000  Uiso   1.00
H1172  H     0.93976   0.88403   0.80467   0.00000  Uiso   1.00
H1173  H     0.95357   0.76510   0.98809   0.00000  Uiso   1.00
H1174  H     0.82003   0.86207   0.58051   0.00000  Uiso   1.00
H1175  H     0.72353   0.86465   0.92044   0.00000  Uiso   1.00
H1176  H     0.91092   0.96251   0.71193   0.00000  Uiso   1.00
N1177  N     0.71426   0.83334   0.75001   0.00000  Uiso   1.00
N1178  N     0.95239   0.83331   0.75001   0.00000  Uiso   1.00
O1179  O     0.79512   0.89442   0.75001   0.00000  Uiso   1.00
O1180  O     0.87157   0.89441   0.75001   0.00000  Uiso   1.00
O1181  O     0.77613   0.83333   0.82681   0.00000  Uiso   1.00
O1182  O     0.85258   0.83332   0.82681   0.00000  Uiso   1.00
O1183  O     0.79510   0.77226   0.75000   0.00000  Uiso   1.00
O1184  O     0.87154   0.77225   0.75000   0.00000  Uiso   1.00
O1185  O     0.81409   0.83335   0.67319   0.00000  Uiso   1.00
O1186  O     0.89053   0.83334   0.67319   0.00000  Uiso   1.00
Zn1187 Zn    0.78229   0.83334   0.75000   0.00000  Uiso   1.00
Zn1188 Zn    0.88438   0.83333   0.75000   0.00000  Uiso   1.00
C1189  C     0.95191   0.78615   0.58405   0.00000  Uiso   1.00
N1190  N     0.98017   0.77465   0.60223   0.00000  Uiso   1.00
C1191  C     0.74045   0.70792   0.80751   0.00000  Uiso   1.00
H1192  H     0.73896   0.73795   0.82682   0.00000  Uiso   1.00
O1193  O     0.70233   0.69084   0.81272   0.00000  Uiso   1.00
C1194  C     0.69106   0.88818   0.81910   0.00000  Uiso   1.00
N1195  N     0.69874   0.90978   0.85038   0.00000  Uiso   1.00
C1196  C     0.93171   0.74717   0.90362   0.00000  Uiso   1.00
H1197  H     0.92606   0.71600   0.89134   0.00000  Uiso   1.00
O1198  O     0.97276   0.76072   0.88920   0.00000  Uiso   1.00
C1199  C     0.74118   0.83584   0.58659   0.00000  Uiso   1.00
H1200  H     0.75374   0.81052   0.60572   0.00000  Uiso   1.00
O1201  O     0.71195   0.86073   0.61561   0.00000  Uiso   1.00
C1202  C     0.68430   0.87441   0.52635   0.00000  Uiso   1.00
N1203  N     0.98062   0.89027   0.54869   0.00000  Uiso   1.00
C1204  C     0.84646   0.75110   0.87378   0.00000  Uiso   1.00
H1205  H     0.87785   0.73810   0.84203   0.00000  Uiso   1.00
O1206  O     0.80635   0.74015   0.87619   0.00000  Uiso   1.00
loop_
_geom_bond_atom_site_label_1
_geom_bond_atom_site_label_2
_geom_bond_distance
_geom_bond_site_symmetry_2
_ccdc_geom_bond_type
C1     O41     1.283   .     A
C1     C17     1.418   .     S
C1     O40     1.285   .     A
C2     C3      1.407   .     A
C2     C607    1.422   .     S
C2     C631    1.435   .     S
C3     C7      1.420   .     A
C3     C10     1.413   .     A
C4     C8      1.399   .     A
C4     C605    1.422   1_554 S
C4     C608    1.423   1_554 S
C5     C6      1.413   .     A
C5     C607    1.423   .     S
C5     C627    1.411   .     S
C6     C7      1.407   .     A
C6     C57     1.487   .     S
C7     C65     1.485   .     S
C8     C25     1.391   .     A
C8     H35     1.080   .     S
C9     C24     1.394   .     A
C9     C25     1.408   .     A
C9     C50     1.441   .     S
C10    C26     1.396   .     A
C10    C12     1.467   .     S
C11    H37     1.084   .     S
C11    C17     1.392   .     A
C11    C214    1.370   .     S
C12    O43     1.296   .     A
C12    O42     1.293   .     A
C13    C14     1.399   .     A
C13    H29     1.084   .     S
C13    C413    1.370   1_545 S
C14    C22     1.424   .     S
C14    C15     1.415   .     A
C15    C52     1.490   .     S
C15    C418    1.377   1_545 S
C16    H30     1.078   .     S
C16    C17     1.391   .     A
C16    C216    1.377   .     S
C18    N39     1.366   .     A
C18    H31     1.078   .     S
C18    C86     1.417   .     S
C19    N38     1.366   .     A
C19    H32     1.081   .     S
C19    C152    1.417   1_455 S
C20    N38     1.373   .     A
C20    C55     1.435   .     S
C20    C155    1.416   1_455 S
C21    N39     1.362   .     A
C21    H33     1.083   .     S
C21    C87     1.416   .     S
C22    O44     1.280   .     A
C22    O45     1.289   .     A
C23    C25     1.468   .     S
C23    O46     1.297   .     A
C23    O47     1.295   .     A
C24    C608    1.411   1_554 S
C24    H637    1.082   1_554 S
C26    C27     1.390   .     A
C26    H36     1.082   .     S
C27    C631    1.416   .     S
C27    C666    1.446   .     S
C28    C60     1.488   .     S
C28    C630    1.416   1_554 S
C28    C605    1.435   1_554 S
H34    C627    1.082   .     S
N38    Zn48    2.012   .     S
N39    Zn49    2.012   .     S
O40    Zn48    2.003   .     S
O41    Zn49    1.997   .     S
O42    Zn48    1.950   .     S
O43    Zn49    1.892   .     S
O44    Zn48    1.997   .     S
O45    Zn49    2.003   .     S
O46    Zn48    1.892   .     S
O47    Zn49    1.950   .     S
C50    N51     1.156   .     T
C52    O54     1.222   .     D
C52    H53     1.084   .     S
C55    N56     1.157   .     T
C57    H58     1.085   .     S
C57    O59     1.221   .     D
C60    H61     1.084   .     S
C60    O62     1.221   .     D
C63    C630    1.446   1_554 S
C63    N198    1.157   1_455 S
N64    C130    1.157   .     S
C65    H66     1.084   .     S
C65    O67     1.220   .     D
C68    O108    1.283   .     A
C68    C84     1.418   .     S
C68    O107    1.285   .     A
C69    C70     1.407   .     A
C69    C674    1.422   .     S
C69    C698    1.435   .     S
C70    C74     1.420   .     A
C70    C77     1.413   .     A
C71    C75     1.399   .     A
C71    C672    1.422   1_554 S
C71    C675    1.423   1_554 S
C72    C73     1.413   .     A
C72    C674    1.423   .     S
C72    C694    1.411   .     S
C73    C74     1.407   .     A
C73    C124    1.487   .     S
C74    C132    1.485   .     S
C75    C92     1.391   .     A
C75    H102    1.080   .     S
C76    C91     1.394   .     A
C76    C92     1.408   .     A
C76    C117    1.441   .     S
C77    C93     1.396   .     A
C77    C79     1.467   .     S
C78    H104    1.084   .     S
C78    C84     1.392   .     A
C78    C281    1.370   .     S
C79    O110    1.296   .     A
C79    O109    1.293   .     A
C80    C81     1.399   .     A
C80    H96     1.084   .     S
C80    C480    1.370   1_545 S
C81    C89     1.424   .     S
C81    C82     1.415   .     A
C82    C119    1.490   .     S
C82    C485    1.377   1_545 S
C83    H97     1.078   .     S
C83    C84     1.391   .     A
C83    C283    1.377   .     S
C85    N106    1.366   .     A
C85    H98     1.078   .     S
C85    C153    1.417   .     S
C86    N105    1.366   .     A
C86    H99     1.081   .     S
C87    N105    1.373   .     A
C87    C122    1.435   .     S
C88    N106    1.362   .     A
C88    H100    1.083   .     S
C88    C154    1.416   .     S
C89    O111    1.280   .     A
C89    O112    1.289   .     A
C90    C92     1.468   .     S
C90    O113    1.297   .     A
C90    O114    1.295   .     A
C91    C675    1.411   1_554 S
C91    H704    1.082   1_554 S
C93    C94     1.390   .     A
C93    H103    1.082   .     S
C94    C698    1.416   .     S
C94    C733    1.446   .     S
C95    C127    1.488   .     S
C95    C697    1.416   1_554 S
C95    C672    1.435   1_554 S
H101   C694    1.082   .     S
N105   Zn115   2.012   .     S
N106   Zn116   2.012   .     S
O107   Zn115   2.003   .     S
O108   Zn116   1.997   .     S
O109   Zn115   1.950   .     S
O110   Zn116   1.892   .     S
O111   Zn115   1.997   .     S
O112   Zn116   2.003   .     S
O113   Zn115   1.892   .     S
O114   Zn116   1.950   .     S
C117   N118    1.156   .     T
C119   O121    1.222   .     D
C119   H120    1.084   .     S
C122   N123    1.157   .     T
C124   H125    1.085   .     S
C124   O126    1.221   .     D
C127   H128    1.084   .     S
C127   O129    1.221   .     D
C130   C697    1.446   1_554 S
N131   C197    1.157   .     S
C132   H133    1.084   .     S
C132   O134    1.220   .     D
C135   O175    1.283   .     A
C135   C151    1.418   .     S
C135   O174    1.285   .     A
C136   C137    1.407   .     A
C136   C741    1.422   .     S
C136   C765    1.435   .     S
C137   C141    1.420   .     A
C137   C144    1.413   .     A
C138   C142    1.399   .     A
C138   C739    1.422   1_554 S
C138   C742    1.423   1_554 S
C139   C140    1.413   .     A
C139   C741    1.423   .     S
C139   C761    1.411   .     S
C140   C141    1.407   .     A
C140   C191    1.487   .     S
C141   C199    1.485   .     S
C142   C159    1.391   .     A
C142   H169    1.080   .     S
C143   C158    1.394   .     A
C143   C159    1.408   .     A
C143   C184    1.441   .     S
C144   C160    1.396   .     A
C144   C146    1.467   .     S
C145   H171    1.084   .     S
C145   C151    1.392   .     A
C145   C348    1.370   .     S
C146   O177    1.296   .     A
C146   O176    1.293   .     A
C147   C148    1.399   .     A
C147   H163    1.084   .     S
C147   C547    1.370   1_545 S
C148   C156    1.424   .     S
C148   C149    1.415   .     A
C149   C186    1.490   .     S
C149   C552    1.377   1_545 S
C150   H164    1.078   .     S
C150   C151    1.391   .     A
C150   C350    1.377   .     S
C152   N173    1.366   .     A
C152   H165    1.078   .     S
C152   C19     1.417   1_655 S
C153   N172    1.366   .     A
C153   H166    1.081   .     S
C154   N172    1.373   .     A
C154   C189    1.435   .     S
C155   N173    1.362   .     A
C155   H167    1.083   .     S
C155   C20     1.416   1_655 S
C156   O178    1.280   .     A
C156   O179    1.289   .     A
C157   C159    1.468   .     S
C157   O180    1.297   .     A
C157   O181    1.295   .     A
C158   C742    1.411   1_554 S
C158   H771    1.082   1_554 S
C160   C161    1.390   .     A
C160   H170    1.082   .     S
C161   C765    1.416   .     S
C161   C800    1.446   .     S
C162   C194    1.488   .     S
C162   C764    1.416   1_554 S
C162   C739    1.435   1_554 S
H168   C761    1.082   .     S
N172   Zn182   2.012   .     S
N173   Zn183   2.012   .     S
O174   Zn182   2.003   .     S
O175   Zn183   1.997   .     S
O176   Zn182   1.950   .     S
O177   Zn183   1.892   .     S
O178   Zn182   1.997   .     S
O179   Zn183   2.003   .     S
O180   Zn182   1.892   .     S
O181   Zn183   1.950   .     S
C184   N185    1.156   .     T
C186   O188    1.222   .     D
C186   H187    1.084   .     S
C189   N190    1.157   .     T
C191   H192    1.085   .     S
C191   O193    1.221   .     D
C194   H195    1.084   .     S
C194   O196    1.221   .     D
C197   C764    1.446   1_554 S
N198   C63     1.157   1_655 S
C199   H200    1.084   .     S
C199   O201    1.220   .     D
C202   O242    1.283   .     A
C202   C218    1.418   .     S
C202   O241    1.285   .     A
C203   C204    1.407   .     A
C203   C808    1.422   .     S
C203   C832    1.435   .     S
C204   C208    1.420   .     A
C204   C211    1.413   .     A
C205   C209    1.399   .     A
C205   C806    1.422   1_554 S
C205   C809    1.423   1_554 S
C206   C207    1.413   .     A
C206   C808    1.423   .     S
C206   C828    1.411   .     S
C207   C208    1.407   .     A
C207   C258    1.487   .     S
C208   C266    1.485   .     S
C209   C226    1.391   .     A
C209   H236    1.080   .     S
C210   C225    1.394   .     A
C210   C226    1.408   .     A
C210   C251    1.441   .     S
C211   C227    1.396   .     A
C211   C213    1.467   .     S
C212   H238    1.084   .     S
C212   C218    1.392   .     A
C212   C415    1.370   .     S
C213   O244    1.296   .     A
C213   O243    1.293   .     A
C214   C215    1.399   .     A
C214   H230    1.084   .     S
C215   C223    1.424   .     S
C215   C216    1.415   .     A
C216   C253    1.490   .     S
C217   H231    1.078   .     S
C217   C218    1.391   .     A
C217   C417    1.377   .     S
C219   N240    1.366   .     A
C219   H232    1.078   .     S
C219   C287    1.417   .     S
C220   N239    1.366   .     A
C220   H233    1.081   .     S
C220   C353    1.417   1_455 S
C221   N239    1.373   .     A
C221   C256    1.435   .     S
C221   C356    1.416   1_455 S
C222   N240    1.362   .     A
C222   H234    1.083   .     S
C222   C288    1.416   .     S
C223   O245    1.280   .     A
C223   O246    1.289   .     A
C224   C226    1.468   .     S
C224   O247    1.297   .     A
C224   O248    1.295   .     A
C225   C809    1.411   1_554 S
C225   H838    1.082   1_554 S
C227   C228    1.390   .     A
C227   H237    1.082   .     S
C228   C832    1.416   .     S
C228   C867    1.446   .     S
C229   C261    1.488   .     S
C229   C831    1.416   1_554 S
C229   C806    1.435   1_554 S
H235   C828    1.082   .     S
N239   Zn249   2.012   .     S
N240   Zn250   2.012   .     S
O241   Zn249   2.003   .     S
O242   Zn250   1.997   .     S
O243   Zn249   1.950   .     S
O244   Zn250   1.892   .     S
O245   Zn249   1.997   .     S
O246   Zn250   2.003   .     S
O247   Zn249   1.892   .     S
O248   Zn250   1.950   .     S
C251   N252    1.156   .     T
C253   O255    1.222   .     D
C253   H254    1.084   .     S
C256   N257    1.157   .     T
C258   H259    1.085   .     S
C258   O260    1.221   .     D
C261   H262    1.084   .     S
C261   O263    1.221   .     D
C264   C831    1.446   1_554 S
C264   N399    1.157   1_455 S
N265   C331    1.157   .     S
C266   H267    1.084   .     S
C266   O268    1.220   .     D
C269   O309    1.283   .     A
C269   C285    1.418   .     S
C269   O308    1.285   .     A
C270   C271    1.407   .     A
C270   C875    1.422   .     S
C270   C899    1.435   .     S
C271   C275    1.420   .     A
C271   C278    1.413   .     A
C272   C276    1.399   .     A
C272   C873    1.422   1_554 S
C272   C876    1.423   1_554 S
C273   C274    1.413   .     A
C273   C875    1.423   .     S
C273   C895    1.411   .     S
C274   C275    1.407   .     A
C274   C325    1.487   .     S
C275   C333    1.485   .     S
C276   C293    1.391   .     A
C276   H303    1.080   .     S
C277   C292    1.394   .     A
C277   C293    1.408   .     A
C277   C318    1.441   .     S
C278   C294    1.396   .     A
C278   C280    1.467   .     S
C279   H305    1.084   .     S
C279   C285    1.392   .     A
C279   C482    1.370   .     S
C280   O311    1.296   .     A
C280   O310    1.293   .     A
C281   C282    1.399   .     A
C281   H297    1.084   .     S
C282   C290    1.424   .     S
C282   C283    1.415   .     A
C283   C320    1.490   .     S
C284   H298    1.078   .     S
C284   C285    1.391   .     A
C284   C484    1.377   .     S
C286   N307    1.366   .     A
C286   H299    1.078   .     S
C286   C354    1.417   .     S
C287   N306    1.366   .     A
C287   H300    1.081   .     S
C288   N306    1.373   .     A
C288   C323    1.435   .     S
C289   N307    1.362   .     A
C289   H301    1.083   .     S
C289   C355    1.416   .     S
C290   O312    1.280   .     A
C290   O313    1.289   .     A
C291   C293    1.468   .     S
C291   O314    1.297   .     A
C291   O315    1.295   .     A
C292   C876    1.411   1_554 S
C292   H905    1.082   1_554 S
C294   C295    1.390   .     A
C294   H304    1.082   .     S
C295   C899    1.416   .     S
C295   C934    1.446   .     S
C296   C328    1.488   .     S
C296   C898    1.416   1_554 S
C296   C873    1.435   1_554 S
H302   C895    1.082   .     S
N306   Zn316   2.012   .     S
N307   Zn317   2.012   .     S
O308   Zn316   2.003   .     S
O309   Zn317   1.997   .     S
O310   Zn316   1.950   .     S
O311   Zn317   1.892   .     S
O312   Zn316   1.997   .     S
O313   Zn317   2.003   .     S
O314   Zn316   1.892   .     S
O315   Zn317   1.950   .     S
C318   N319    1.156   .     T
C320   O322    1.222   .     D
C320   H321    1.084   .     S
C323   N324    1.157   .     T
C325   H326    1.085   .     S
C325   O327    1.221   .     D
C328   H329    1.084   .     S
C328   O330    1.221   .     D
C331   C898    1.446   1_554 S
N332   C398    1.157   .     S
C333   H334    1.084   .     S
C333   O335    1.220   .     D
C336   O376    1.283   .     A
C336   C352    1.418   .     S
C336   O375    1.285   .     A
C337   C338    1.407   .     A
C337   C942    1.422   .     S
C337   C966    1.435   .     S
C338   C342    1.420   .     A
C338   C345    1.413   .     A
C339   C343    1.399   .     A
C339   C940    1.422   1_554 S
C339   C943    1.423   1_554 S
C340   C341    1.413   .     A
C340   C942    1.423   .     S
C340   C962    1.411   .     S
C341   C342    1.407   .     A
C341   C392    1.487   .     S
C342   C400    1.485   .     S
C343   C360    1.391   .     A
C343   H370    1.080   .     S
C344   C359    1.394   .     A
C344   C360    1.408   .     A
C344   C385    1.441   .     S
C345   C361    1.396   .     A
C345   C347    1.467   .     S
C346   H372    1.084   .     S
C346   C352    1.392   .     A
C346   C549    1.370   .     S
C347   O378    1.296   .     A
C347   O377    1.293   .     A
C348   C349    1.399   .     A
C348   H364    1.084   .     S
C349   C357    1.424   .     S
C349   C350    1.415   .     A
C350   C387    1.490   .     S
C351   H365    1.078   .     S
C351   C352    1.391   .     A
C351   C551    1.377   .     S
C353   N374    1.366   .     A
C353   H366    1.078   .     S
C353   C220    1.417   1_655 S
C354   N373    1.366   .     A
C354   H367    1.081   .     S
C355   N373    1.373   .     A
C355   C390    1.435   .     S
C356   N374    1.362   .     A
C356   H368    1.083   .     S
C356   C221    1.416   1_655 S
C357   O379    1.280   .     A
C357   O380    1.289   .     A
C358   C360    1.468   .     S
C358   O381    1.297   .     A
C358   O382    1.295   .     A
C359   C943    1.411   1_554 S
C359   H972    1.082   1_554 S
C361   C362    1.390   .     A
C361   H371    1.082   .     S
C362   C966    1.416   .     S
C362   C1001   1.446   .     S
C363   C395    1.488   .     S
C363   C965    1.416   1_554 S
C363   C940    1.435   1_554 S
H369   C962    1.082   .     S
N373   Zn383   2.012   .     S
N374   Zn384   2.012   .     S
O375   Zn383   2.003   .     S
O376   Zn384   1.997   .     S
O377   Zn383   1.950   .     S
O378   Zn384   1.892   .     S
O379   Zn383   1.997   .     S
O380   Zn384   2.003   .     S
O381   Zn383   1.892   .     S
O382   Zn384   1.950   .     S
C385   N386    1.156   .     T
C387   O389    1.222   .     D
C387   H388    1.084   .     S
C390   N391    1.157   .     T
C392   H393    1.085   .     S
C392   O394    1.221   .     D
C395   H396    1.084   .     S
C395   O397    1.221   .     D
C398   C965    1.446   1_554 S
N399   C264    1.157   1_655 S
C400   H401    1.084   .     S
C400   O402    1.220   .     D
C403   O443    1.283   .     A
C403   C419    1.418   .     S
C403   O442    1.285   .     A
C404   C405    1.407   .     A
C404   C1009   1.422   .     S
C404   C1033   1.435   .     S
C405   C409    1.420   .     A
C405   C412    1.413   .     A
C406   C410    1.399   .     A
C406   C1007   1.422   1_554 S
C406   C1010   1.423   1_554 S
C407   C408    1.413   .     A
C407   C1009   1.423   .     S
C407   C1029   1.411   .     S
C408   C409    1.407   .     A
C408   C459    1.487   .     S
C409   C467    1.485   .     S
C410   C427    1.391   .     A
C410   H437    1.080   .     S
C411   C426    1.394   .     A
C411   C427    1.408   .     A
C411   C452    1.441   .     S
C412   C428    1.396   .     A
C412   C414    1.467   .     S
C413   H439    1.084   .     S
C413   C419    1.392   .     A
C413   C13     1.370   1_565 S
C414   O445    1.296   .     A
C414   O444    1.293   .     A
C415   C416    1.399   .     A
C415   H431    1.084   .     S
C416   C424    1.424   .     S
C416   C417    1.415   .     A
C417   C454    1.490   .     S
C418   H432    1.078   .     S
C418   C419    1.391   .     A
C418   C15     1.377   1_565 S
C420   N441    1.366   .     A
C420   H433    1.078   .     S
C420   C488    1.417   .     S
C421   N440    1.366   .     A
C421   H434    1.081   .     S
C421   C554    1.417   1_455 S
C422   N440    1.373   .     A
C422   C457    1.435   .     S
C422   C557    1.416   1_455 S
C423   N441    1.362   .     A
C423   H435    1.083   .     S
C423   C489    1.416   .     S
C424   O446    1.280   .     A
C424   O447    1.289   .     A
C425   C427    1.468   .     S
C425   O448    1.297   .     A
C425   O449    1.295   .     A
C426   C1010   1.411   1_554 S
C426   H1039   1.082   1_554 S
C428   C429    1.390   .     A
C428   H438    1.082   .     S
C429   C1033   1.416   .     S
C429   C1068   1.446   .     S
C430   C462    1.488   .     S
C430   C1032   1.416   1_554 S
C430   C1007   1.435   1_554 S
H436   C1029   1.082   .     S
N440   Zn450   2.012   .     S
N441   Zn451   2.012   .     S
O442   Zn450   2.003   .     S
O443   Zn451   1.997   .     S
O444   Zn450   1.950   .     S
O445   Zn451   1.892   .     S
O446   Zn450   1.997   .     S
O447   Zn451   2.003   .     S
O448   Zn450   1.892   .     S
O449   Zn451   1.950   .     S
C452   N453    1.156   .     T
C454   O456    1.222   .     D
C454   H455    1.084   .     S
C457   N458    1.157   .     T
C459   H460    1.085   .     S
C459   O461    1.221   .     D
C462   H463    1.084   .     S
C462   O464    1.221   .     D
C465   C1032   1.446   1_554 S
C465   N600    1.157   1_455 S
N466   C532    1.157   .     S
C467   H468    1.084   .     S
C467   O469    1.220   .     D
C470   O510    1.283   .     A
C470   C486    1.418   .     S
C470   O509    1.285   .     A
C471   C472    1.407   .     A
C471   C1076   1.422   .     S
C471   C1100   1.435   .     S
C472   C476    1.420   .     A
C472   C479    1.413   .     A
C473   C477    1.399   .     A
C473   C1074   1.422   1_554 S
C473   C1077   1.423   1_554 S
C474   C475    1.413   .     A
C474   C1076   1.423   .     S
C474   C1096   1.411   .     S
C475   C476    1.407   .     A
C475   C526    1.487   .     S
C476   C534    1.485   .     S
C477   C494    1.391   .     A
C477   H504    1.080   .     S
C478   C493    1.394   .     A
C478   C494    1.408   .     A
C478   C519    1.441   .     S
C479   C495    1.396   .     A
C479   C481    1.467   .     S
C480   H506    1.084   .     S
C480   C486    1.392   .     A
C480   C80     1.370   1_565 S
C481   O512    1.296   .     A
C481   O511    1.293   .     A
C482   C483    1.399   .     A
C482   H498    1.084   .     S
C483   C491    1.424   .     S
C483   C484    1.415   .     A
C484   C521    1.490   .     S
C485   H499    1.078   .     S
C485   C486    1.391   .     A
C485   C82     1.377   1_565 S
C487   N508    1.366   .     A
C487   H500    1.078   .     S
C487   C555    1.417   .     S
C488   N507    1.366   .     A
C488   H501    1.081   .     S
C489   N507    1.373   .     A
C489   C524    1.435   .     S
C490   N508    1.362   .     A
C490   H502    1.083   .     S
C490   C556    1.416   .     S
C491   O513    1.280   .     A
C491   O514    1.289   .     A
C492   C494    1.468   .     S
C492   O515    1.297   .     A
C492   O516    1.295   .     A
C493   C1077   1.411   1_554 S
C493   H1106   1.082   1_554 S
C495   C496    1.390   .     A
C495   H505    1.082   .     S
C496   C1100   1.416   .     S
C496   C1135   1.446   .     S
C497   C529    1.488   .     S
C497   C1099   1.416   1_554 S
C497   C1074   1.435   1_554 S
H503   C1096   1.082   .     S
N507   Zn517   2.012   .     S
N508   Zn518   2.012   .     S
O509   Zn517   2.003   .     S
O510   Zn518   1.997   .     S
O511   Zn517   1.950   .     S
O512   Zn518   1.892   .     S
O513   Zn517   1.997   .     S
O514   Zn518   2.003   .     S
O515   Zn517   1.892   .     S
O516   Zn518   1.950   .     S
C519   N520    1.156   .     T
C521   O523    1.222   .     D
C521   H522    1.084   .     S
C524   N525    1.157   .     T
C526   H527    1.085   .     S
C526   O528    1.221   .     D
C529   H530    1.084   .     S
C529   O531    1.221   .     D
C532   C1099   1.446   1_554 S
N533   C599    1.157   .     S
C534   H535    1.084   .     S
C534   O536    1.220   .     D
C537   O577    1.283   .     A
C537   C553    1.418   .     S
C537   O576    1.285   .     A
C538   C539    1.407   .     A
C538   C1143   1.422   .     S
C538   C1167   1.435   .     S
C539   C543    1.420   .     A
C539   C546    1.413   .     A
C540   C544    1.399   .     A
C540   C1141   1.422   1_554 S
C540   C1144   1.423   1_554 S
C541   C542    1.413   .     A
C541   C1143   1.423   .     S
C541   C1163   1.411   .     S
C542   C543    1.407   .     A
C542   C593    1.487   .     S
C543   C601    1.485   .     S
C544   C561    1.391   .     A
C544   H571    1.080   .     S
C545   C560    1.394   .     A
C545   C561    1.408   .     A
C545   C586    1.441   .     S
C546   C562    1.396   .     A
C546   C548    1.467   .     S
C547   H573    1.084   .     S
C547   C553    1.392   .     A
C547   C147    1.370   1_565 S
C548   O579    1.296   .     A
C548   O578    1.293   .     A
C549   C550    1.399   .     A
C549   H565    1.084   .     S
C550   C558    1.424   .     S
C550   C551    1.415   .     A
C551   C588    1.490   .     S
C552   H566    1.078   .     S
C552   C553    1.391   .     A
C552   C149    1.377   1_565 S
C554   N575    1.366   .     A
C554   H567    1.078   .     S
C554   C421    1.417   1_655 S
C555   N574    1.366   .     A
C555   H568    1.081   .     S
C556   N574    1.373   .     A
C556   C591    1.435   .     S
C557   N575    1.362   .     A
C557   H569    1.083   .     S
C557   C422    1.416   1_655 S
C558   O580    1.280   .     A
C558   O581    1.289   .     A
C559   C561    1.468   .     S
C559   O582    1.297   .     A
C559   O583    1.295   .     A
C560   C1144   1.411   1_554 S
C560   H1173   1.082   1_554 S
C562   C563    1.390   .     A
C562   H572    1.082   .     S
C563   C1167   1.416   .     S
C563   C1202   1.446   .     S
C564   C596    1.488   .     S
C564   C1166   1.416   1_554 S
C564   C1141   1.435   1_554 S
H570   C1163   1.082   .     S
N574   Zn584   2.012   .     S
N575   Zn585   2.012   .     S
O576   Zn584   2.003   .     S
O577   Zn585   1.997   .     S
O578   Zn584   1.950   .     S
O579   Zn585   1.892   .     S
O580   Zn584   1.997   .     S
O581   Zn585   2.003   .     S
O582   Zn584   1.892   .     S
O583   Zn585   1.950   .     S
C586   N587    1.156   .     T
C588   O590    1.222   .     D
C588   H589    1.084   .     S
C591   N592    1.157   .     T
C593   H594    1.085   .     S
C593   O595    1.221   .     D
C596   H597    1.084   .     S
C596   O598    1.221   .     D
C599   C1166   1.446   1_554 S
N600   C465    1.157   1_655 S
C601   H602    1.084   .     S
C601   O603    1.220   .     D
C604   O644    1.283   .     A
C604   C620    1.418   .     S
C604   O643    1.285   .     A
C605   C606    1.407   .     A
C605   C4      1.422   1_556 S
C605   C28     1.435   1_556 S
C606   C610    1.420   .     A
C606   C613    1.413   .     A
C607   C611    1.399   .     A
C608   C609    1.413   .     A
C608   C4      1.423   1_556 S
C608   C24     1.411   1_556 S
C609   C610    1.407   .     A
C609   C660    1.487   .     S
C610   C668    1.485   .     S
C611   C628    1.391   .     A
C611   H638    1.080   .     S
C612   C627    1.394   .     A
C612   C628    1.408   .     A
C612   C653    1.441   .     S
C613   C629    1.396   .     A
C613   C615    1.467   .     S
C614   H640    1.084   .     S
C614   C620    1.392   .     A
C614   C817    1.370   .     S
C615   O646    1.296   .     A
C615   O645    1.293   .     A
C616   C617    1.399   .     A
C616   H632    1.084   .     S
C616   C1016   1.370   1_545 S
C617   C625    1.424   .     S
C617   C618    1.415   .     A
C618   C655    1.490   .     S
C618   C1021   1.377   1_545 S
C619   H633    1.078   .     S
C619   C620    1.391   .     A
C619   C819    1.377   .     S
C621   N642    1.366   .     A
C621   H634    1.078   .     S
C621   C689    1.417   .     S
C622   N641    1.366   .     A
C622   H635    1.081   .     S
C622   C755    1.417   1_455 S
C623   N641    1.373   .     A
C623   C658    1.435   .     S
C623   C758    1.416   1_455 S
C624   N642    1.362   .     A
C624   H636    1.083   .     S
C624   C690    1.416   .     S
C625   O647    1.280   .     A
C625   O648    1.289   .     A
C626   C628    1.468   .     S
C626   O649    1.297   .     A
C626   O650    1.295   .     A
C629   C630    1.390   .     A
C629   H639    1.082   .     S
C630   C28     1.416   1_556 S
C630   C63     1.446   1_556 S
C631   C663    1.488   .     S
H637   C24     1.082   1_556 S
N641   Zn651   2.012   .     S
N642   Zn652   2.012   .     S
O643   Zn651   2.003   .     S
O644   Zn652   1.997   .     S
O645   Zn651   1.950   .     S
O646   Zn652   1.892   .     S
O647   Zn651   1.997   .     S
O648   Zn652   2.003   .     S
O649   Zn651   1.892   .     S
O650   Zn652   1.950   .     S
C653   N654    1.156   .     T
C655   O657    1.222   .     D
C655   H656    1.084   .     S
C658   N659    1.157   .     T
C660   H661    1.085   .     S
C660   O662    1.221   .     D
C663   H664    1.084   .     S
C663   O665    1.221   .     D
C666   N801    1.157   1_455 S
N667   C733    1.157   .     S
C668   H669    1.084   .     S
C668   O670    1.220   .     D
C671   O711    1.283   .     A
C671   C687    1.418   .     S
C671   O710    1.285   .     A
C672   C673    1.407   .     A
C672   C71     1.422   1_556 S
C672   C95     1.435   1_556 S
C673   C677    1.420   .     A
C673   C680    1.413   .     A
C674   C678    1.399   .     A
C675   C676    1.413   .     A
C675   C71     1.423   1_556 S
C675   C91     1.411   1_556 S
C676   C677    1.407   .     A
C676   C727    1.487   .     S
C677   C735    1.485   .     S
C678   C695    1.391   .     A
C678   H705    1.080   .     S
C679   C694    1.394   .     A
C679   C695    1.408   .     A
C679   C720    1.441   .     S
C680   C696    1.396   .     A
C680   C682    1.467   .     S
C681   H707    1.084   .     S
C681   C687    1.392   .     A
C681   C884    1.370   .     S
C682   O713    1.296   .     A
C682   O712    1.293   .     A
C683   C684    1.399   .     A
C683   H699    1.084   .     S
C683   C1083   1.370   1_545 S
C684   C692    1.424   .     S
C684   C685    1.415   .     A
C685   C722    1.490   .     S
C685   C1088   1.377   1_545 S
C686   H700    1.078   .     S
C686   C687    1.391   .     A
C686   C886    1.377   .     S
C688   N709    1.366   .     A
C688   H701    1.078   .     S
C688   C756    1.417   .     S
C689   N708    1.366   .     A
C689   H702    1.081   .     S
C690   N708    1.373   .     A
C690   C725    1.435   .     S
C691   N709    1.362   .     A
C691   H703    1.083   .     S
C691   C757    1.416   .     S
C692   O714    1.280   .     A
C692   O715    1.289   .     A
C693   C695    1.468   .     S
C693   O716    1.297   .     A
C693   O717    1.295   .     A
C696   C697    1.390   .     A
C696   H706    1.082   .     S
C697   C95     1.416   1_556 S
C697   C130    1.446   1_556 S
C698   C730    1.488   .     S
H704   C91     1.082   1_556 S
N708   Zn718   2.012   .     S
N709   Zn719   2.012   .     S
O710   Zn718   2.003   .     S
O711   Zn719   1.997   .     S
O712   Zn718   1.950   .     S
O713   Zn719   1.892   .     S
O714   Zn718   1.997   .     S
O715   Zn719   2.003   .     S
O716   Zn718   1.892   .     S
O717   Zn719   1.950   .     S
C720   N721    1.156   .     T
C722   O724    1.222   .     D
C722   H723    1.084   .     S
C725   N726    1.157   .     T
C727   H728    1.085   .     S
C727   O729    1.221   .     D
C730   H731    1.084   .     S
C730   O732    1.221   .     D
N734   C800    1.157   .     S
C735   H736    1.084   .     S
C735   O737    1.220   .     D
C738   O778    1.283   .     A
C738   C754    1.418   .     S
C738   O777    1.285   .     A
C739   C740    1.407   .     A
C739   C138    1.422   1_556 S
C739   C162    1.435   1_556 S
C740   C744    1.420   .     A
C740   C747    1.413   .     A
C741   C745    1.399   .     A
C742   C743    1.413   .     A
C742   C138    1.423   1_556 S
C742   C158    1.411   1_556 S
C743   C744    1.407   .     A
C743   C794    1.487   .     S
C744   C802    1.485   .     S
C745   C762    1.391   .     A
C745   H772    1.080   .     S
C746   C761    1.394   .     A
C746   C762    1.408   .     A
C746   C787    1.441   .     S
C747   C763    1.396   .     A
C747   C749    1.467   .     S
C748   H774    1.084   .     S
C748   C754    1.392   .     A
C748   C951    1.370   .     S
C749   O780    1.296   .     A
C749   O779    1.293   .     A
C750   C751    1.399   .     A
C750   H766    1.084   .     S
C750   C1150   1.370   1_545 S
C751   C759    1.424   .     S
C751   C752    1.415   .     A
C752   C789    1.490   .     S
C752   C1155   1.377   1_545 S
C753   H767    1.078   .     S
C753   C754    1.391   .     A
C753   C953    1.377   .     S
C755   N776    1.366   .     A
C755   H768    1.078   .     S
C755   C622    1.417   1_655 S
C756   N775    1.366   .     A
C756   H769    1.081   .     S
C757   N775    1.373   .     A
C757   C792    1.435   .     S
C758   N776    1.362   .     A
C758   H770    1.083   .     S
C758   C623    1.416   1_655 S
C759   O781    1.280   .     A
C759   O782    1.289   .     A
C760   C762    1.468   .     S
C760   O783    1.297   .     A
C760   O784    1.295   .     A
C763   C764    1.390   .     A
C763   H773    1.082   .     S
C764   C162    1.416   1_556 S
C764   C197    1.446   1_556 S
C765   C797    1.488   .     S
H771   C158    1.082   1_556 S
N775   Zn785   2.012   .     S
N776   Zn786   2.012   .     S
O777   Zn785   2.003   .     S
O778   Zn786   1.997   .     S
O779   Zn785   1.950   .     S
O780   Zn786   1.892   .     S
O781   Zn785   1.997   .     S
O782   Zn786   2.003   .     S
O783   Zn785   1.892   .     S
O784   Zn786   1.950   .     S
C787   N788    1.156   .     T
C789   O791    1.222   .     D
C789   H790    1.084   .     S
C792   N793    1.157   .     T
C794   H795    1.085   .     S
C794   O796    1.221   .     D
C797   H798    1.084   .     S
C797   O799    1.221   .     D
N801   C666    1.157   1_655 S
C802   H803    1.084   .     S
C802   O804    1.220   .     D
C805   O845    1.283   .     A
C805   C821    1.418   .     S
C805   O844    1.285   .     A
C806   C807    1.407   .     A
C806   C205    1.422   1_556 S
C806   C229    1.435   1_556 S
C807   C811    1.420   .     A
C807   C814    1.413   .     A
C808   C812    1.399   .     A
C809   C810    1.413   .     A
C809   C205    1.423   1_556 S
C809   C225    1.411   1_556 S
C810   C811    1.407   .     A
C810   C861    1.487   .     S
C811   C869    1.485   .     S
C812   C829    1.391   .     A
C812   H839    1.080   .     S
C813   C828    1.394   .     A
C813   C829    1.408   .     A
C813   C854    1.441   .     S
C814   C830    1.396   .     A
C814   C816    1.467   .     S
C815   H841    1.084   .     S
C815   C821    1.392   .     A
C815   C1018   1.370   .     S
C816   O847    1.296   .     A
C816   O846    1.293   .     A
C817   C818    1.399   .     A
C817   H833    1.084   .     S
C818   C826    1.424   .     S
C818   C819    1.415   .     A
C819   C856    1.490   .     S
C820   H834    1.078   .     S
C820   C821    1.391   .     A
C820   C1020   1.377   .     S
C822   N843    1.366   .     A
C822   H835    1.078   .     S
C822   C890    1.417   .     S
C823   N842    1.366   .     A
C823   H836    1.081   .     S
C823   C956    1.417   1_455 S
C824   N842    1.373   .     A
C824   C859    1.435   .     S
C824   C959    1.416   1_455 S
C825   N843    1.362   .     A
C825   H837    1.083   .     S
C825   C891    1.416   .     S
C826   O848    1.280   .     A
C826   O849    1.289   .     A
C827   C829    1.468   .     S
C827   O850    1.297   .     A
C827   O851    1.295   .     A
C830   C831    1.390   .     A
C830   H840    1.082   .     S
C831   C229    1.416   1_556 S
C831   C264    1.446   1_556 S
C832   C864    1.488   .     S
H838   C225    1.082   1_556 S
N842   Zn852   2.012   .     S
N843   Zn853   2.012   .     S
O844   Zn852   2.003   .     S
O845   Zn853   1.997   .     S
O846   Zn852   1.950   .     S
O847   Zn853   1.892   .     S
O848   Zn852   1.997   .     S
O849   Zn853   2.003   .     S
O850   Zn852   1.892   .     S
O851   Zn853   1.950   .     S
C854   N855    1.156   .     T
C856   O858    1.222   .     D
C856   H857    1.084   .     S
C859   N860    1.157   .     T
C861   H862    1.085   .     S
C861   O863    1.221   .     D
C864   H865    1.084   .     S
C864   O866    1.221   .     D
C867   N1002   1.157   1_455 S
N868   C934    1.157   .     S
C869   H870    1.084   .     S
C869   O871    1.220   .     D
C872   O912    1.283   .     A
C872   C888    1.418   .     S
C872   O911    1.285   .     A
C873   C874    1.407   .     A
C873   C272    1.422   1_556 S
C873   C296    1.435   1_556 S
C874   C878    1.420   .     A
C874   C881    1.413   .     A
C875   C879    1.399   .     A
C876   C877    1.413   .     A
C876   C272    1.423   1_556 S
C876   C292    1.411   1_556 S
C877   C878    1.407   .     A
C877   C928    1.487   .     S
C878   C936    1.485   .     S
C879   C896    1.391   .     A
C879   H906    1.080   .     S
C880   C895    1.394   .     A
C880   C896    1.408   .     A
C880   C921    1.441   .     S
C881   C897    1.396   .     A
C881   C883    1.467   .     S
C882   H908    1.084   .     S
C882   C888    1.392   .     A
C882   C1085   1.370   .     S
C883   O914    1.296   .     A
C883   O913    1.293   .     A
C884   C885    1.399   .     A
C884   H900    1.084   .     S
C885   C893    1.424   .     S
C885   C886    1.415   .     A
C886   C923    1.490   .     S
C887   H901    1.078   .     S
C887   C888    1.391   .     A
C887   C1087   1.377   .     S
C889   N910    1.366   .     A
C889   H902    1.078   .     S
C889   C957    1.417   .     S
C890   N909    1.366   .     A
C890   H903    1.081   .     S
C891   N909    1.373   .     A
C891   C926    1.435   .     S
C892   N910    1.362   .     A
C892   H904    1.083   .     S
C892   C958    1.416   .     S
C893   O915    1.280   .     A
C893   O916    1.289   .     A
C894   C896    1.468   .     S
C894   O917    1.297   .     A
C894   O918    1.295   .     A
C897   C898    1.390   .     A
C897   H907    1.082   .     S
C898   C296    1.416   1_556 S
C898   C331    1.446   1_556 S
C899   C931    1.488   .     S
H905   C292    1.082   1_556 S
N909   Zn919   2.012   .     S
N910   Zn920   2.012   .     S
O911   Zn919   2.003   .     S
O912   Zn920   1.997   .     S
O913   Zn919   1.950   .     S
O914   Zn920   1.892   .     S
O915   Zn919   1.997   .     S
O916   Zn920   2.003   .     S
O917   Zn919   1.892   .     S
O918   Zn920   1.950   .     S
C921   N922    1.156   .     T
C923   O925    1.222   .     D
C923   H924    1.084   .     S
C926   N927    1.157   .     T
C928   H929    1.085   .     S
C928   O930    1.221   .     D
C931   H932    1.084   .     S
C931   O933    1.221   .     D
N935   C1001   1.157   .     S
C936   H937    1.084   .     S
C936   O938    1.220   .     D
C939   O979    1.283   .     A
C939   C955    1.418   .     S
C939   O978    1.285   .     A
C940   C941    1.407   .     A
C940   C339    1.422   1_556 S
C940   C363    1.435   1_556 S
C941   C945    1.420   .     A
C941   C948    1.413   .     A
C942   C946    1.399   .     A
C943   C944    1.413   .     A
C943   C339    1.423   1_556 S
C943   C359    1.411   1_556 S
C944   C945    1.407   .     A
C944   C995    1.487   .     S
C945   C1003   1.485   .     S
C946   C963    1.391   .     A
C946   H973    1.080   .     S
C947   C962    1.394   .     A
C947   C963    1.408   .     A
C947   C988    1.441   .     S
C948   C964    1.396   .     A
C948   C950    1.467   .     S
C949   H975    1.084   .     S
C949   C955    1.392   .     A
C949   C1152   1.370   .     S
C950   O981    1.296   .     A
C950   O980    1.293   .     A
C951   C952    1.399   .     A
C951   H967    1.084   .     S
C952   C960    1.424   .     S
C952   C953    1.415   .     A
C953   C990    1.490   .     S
C954   H968    1.078   .     S
C954   C955    1.391   .     A
C954   C1154   1.377   .     S
C956   N977    1.366   .     A
C956   H969    1.078   .     S
C956   C823    1.417   1_655 S
C957   N976    1.366   .     A
C957   H970    1.081   .     S
C958   N976    1.373   .     A
C958   C993    1.435   .     S
C959   N977    1.362   .     A
C959   H971    1.083   .     S
C959   C824    1.416   1_655 S
C960   O982    1.280   .     A
C960   O983    1.289   .     A
C961   C963    1.468   .     S
C961   O984    1.297   .     A
C961   O985    1.295   .     A
C964   C965    1.390   .     A
C964   H974    1.082   .     S
C965   C363    1.416   1_556 S
C965   C398    1.446   1_556 S
C966   C998    1.488   .     S
H972   C359    1.082   1_556 S
N976   Zn986   2.012   .     S
N977   Zn987   2.012   .     S
O978   Zn986   2.003   .     S
O979   Zn987   1.997   .     S
O980   Zn986   1.950   .     S
O981   Zn987   1.892   .     S
O982   Zn986   1.997   .     S
O983   Zn987   2.003   .     S
O984   Zn986   1.892   .     S
O985   Zn987   1.950   .     S
C988   N989    1.156   .     T
C990   O992    1.222   .     D
C990   H991    1.084   .     S
C993   N994    1.157   .     T
C995   H996    1.085   .     S
C995   O997    1.221   .     D
C998   H999    1.084   .     S
C998   O1000   1.221   .     D
N1002  C867    1.157   1_655 S
C1003  H1004   1.084   .     S
C1003  O1005   1.220   .     D
C1006  O1046   1.283   .     A
C1006  C1022   1.418   .     S
C1006  O1045   1.285   .     A
C1007  C1008   1.407   .     A
C1007  C406    1.422   1_556 S
C1007  C430    1.435   1_556 S
C1008  C1012   1.420   .     A
C1008  C1015   1.413   .     A
C1009  C1013   1.399   .     A
C1010  C1011   1.413   .     A
C1010  C406    1.423   1_556 S
C1010  C426    1.411   1_556 S
C1011  C1012   1.407   .     A
C1011  C1062   1.487   .     S
C1012  C1070   1.485   .     S
C1013  C1030   1.391   .     A
C1013  H1040   1.080   .     S
C1014  C1029   1.394   .     A
C1014  C1030   1.408   .     A
C1014  C1055   1.441   .     S
C1015  C1031   1.396   .     A
C1015  C1017   1.467   .     S
C1016  H1042   1.084   .     S
C1016  C1022   1.392   .     A
C1016  C616    1.370   1_565 S
C1017  O1048   1.296   .     A
C1017  O1047   1.293   .     A
C1018  C1019   1.399   .     A
C1018  H1034   1.084   .     S
C1019  C1027   1.424   .     S
C1019  C1020   1.415   .     A
C1020  C1057   1.490   .     S
C1021  H1035   1.078   .     S
C1021  C1022   1.391   .     A
C1021  C618    1.377   1_565 S
C1023  N1044   1.366   .     A
C1023  H1036   1.078   .     S
C1023  C1091   1.417   .     S
C1024  N1043   1.366   .     A
C1024  H1037   1.081   .     S
C1024  C1157   1.417   1_455 S
C1025  N1043   1.373   .     A
C1025  C1060   1.435   .     S
C1025  C1160   1.416   1_455 S
C1026  N1044   1.362   .     A
C1026  H1038   1.083   .     S
C1026  C1092   1.416   .     S
C1027  O1049   1.280   .     A
C1027  O1050   1.289   .     A
C1028  C1030   1.468   .     S
C1028  O1051   1.297   .     A
C1028  O1052   1.295   .     A
C1031  C1032   1.390   .     A
C1031  H1041   1.082   .     S
C1032  C430    1.416   1_556 S
C1032  C465    1.446   1_556 S
C1033  C1065   1.488   .     S
H1039  C426    1.082   1_556 S
N1043  Zn1053  2.012   .     S
N1044  Zn1054  2.012   .     S
O1045  Zn1053  2.003   .     S
O1046  Zn1054  1.997   .     S
O1047  Zn1053  1.950   .     S
O1048  Zn1054  1.892   .     S
O1049  Zn1053  1.997   .     S
O1050  Zn1054  2.003   .     S
O1051  Zn1053  1.892   .     S
O1052  Zn1054  1.950   .     S
C1055  N1056   1.156   .     T
C1057  O1059   1.222   .     D
C1057  H1058   1.084   .     S
C1060  N1061   1.157   .     T
C1062  H1063   1.085   .     S
C1062  O1064   1.221   .     D
C1065  H1066   1.084   .     S
C1065  O1067   1.221   .     D
C1068  N1203   1.157   1_455 S
N1069  C1135   1.157   .     S
C1070  H1071   1.084   .     S
C1070  O1072   1.220   .     D
C1073  O1113   1.283   .     A
C1073  C1089   1.418   .     S
C1073  O1112   1.285   .     A
C1074  C1075   1.407   .     A
C1074  C473    1.422   1_556 S
C1074  C497    1.435   1_556 S
C1075  C1079   1.420   .     A
C1075  C1082   1.413   .     A
C1076  C1080   1.399   .     A
C1077  C1078   1.413   .     A
C1077  C473    1.423   1_556 S
C1077  C493    1.411   1_556 S
C1078  C1079   1.407   .     A
C1078  C1129   1.487   .     S
C1079  C1137   1.485   .     S
C1080  C1097   1.391   .     A
C1080  H1107   1.080   .     S
C1081  C1096   1.394   .     A
C1081  C1097   1.408   .     A
C1081  C1122   1.441   .     S
C1082  C1098   1.396   .     A
C1082  C1084   1.467   .     S
C1083  H1109   1.084   .     S
C1083  C1089   1.392   .     A
C1083  C683    1.370   1_565 S
C1084  O1115   1.296   .     A
C1084  O1114   1.293   .     A
C1085  C1086   1.399   .     A
C1085  H1101   1.084   .     S
C1086  C1094   1.424   .     S
C1086  C1087   1.415   .     A
C1087  C1124   1.490   .     S
C1088  H1102   1.078   .     S
C1088  C1089   1.391   .     A
C1088  C685    1.377   1_565 S
C1090  N1111   1.366   .     A
C1090  H1103   1.078   .     S
C1090  C1158   1.417   .     S
C1091  N1110   1.366   .     A
C1091  H1104   1.081   .     S
C1092  N1110   1.373   .     A
C1092  C1127   1.435   .     S
C1093  N1111   1.362   .     A
C1093  H1105   1.083   .     S
C1093  C1159   1.416   .     S
C1094  O1116   1.280   .     A
C1094  O1117   1.289   .     A
C1095  C1097   1.468   .     S
C1095  O1118   1.297   .     A
C1095  O1119   1.295   .     A
C1098  C1099   1.390   .     A
C1098  H1108   1.082   .     S
C1099  C497    1.416   1_556 S
C1099  C532    1.446   1_556 S
C1100  C1132   1.488   .     S
H1106  C493    1.082   1_556 S
N1110  Zn1120  2.012   .     S
N1111  Zn1121  2.012   .     S
O1112  Zn1120  2.003   .     S
O1113  Zn1121  1.997   .     S
O1114  Zn1120  1.950   .     S
O1115  Zn1121  1.892   .     S
O1116  Zn1120  1.997   .     S
O1117  Zn1121  2.003   .     S
O1118  Zn1120  1.892   .     S
O1119  Zn1121  1.950   .     S
C1122  N1123   1.156   .     T
C1124  O1126   1.222   .     D
C1124  H1125   1.084   .     S
C1127  N1128   1.157   .     T
C1129  H1130   1.085   .     S
C1129  O1131   1.221   .     D
C1132  H1133   1.084   .     S
C1132  O1134   1.221   .     D
N1136  C1202   1.157   .     S
C1137  H1138   1.084   .     S
C1137  O1139   1.220   .     D
C1140  O1180   1.283   .     A
C1140  C1156   1.418   .     S
C1140  O1179   1.285   .     A
C1141  C1142   1.407   .     A
C1141  C540    1.422   1_556 S
C1141  C564    1.435   1_556 S
C1142  C1146   1.420   .     A
C1142  C1149   1.413   .     A
C1143  C1147   1.399   .     A
C1144  C1145   1.413   .     A
C1144  C540    1.423   1_556 S
C1144  C560    1.411   1_556 S
C1145  C1146   1.407   .     A
C1145  C1196   1.487   .     S
C1146  C1204   1.485   .     S
C1147  C1164   1.391   .     A
C1147  H1174   1.080   .     S
C1148  C1163   1.394   .     A
C1148  C1164   1.408   .     A
C1148  C1189   1.441   .     S
C1149  C1165   1.396   .     A
C1149  C1151   1.467   .     S
C1150  H1176   1.084   .     S
C1150  C1156   1.392   .     A
C1150  C750    1.370   1_565 S
C1151  O1182   1.296   .     A
C1151  O1181   1.293   .     A
C1152  C1153   1.399   .     A
C1152  H1168   1.084   .     S
C1153  C1161   1.424   .     S
C1153  C1154   1.415   .     A
C1154  C1191   1.490   .     S
C1155  H1169   1.078   .     S
C1155  C1156   1.391   .     A
C1155  C752    1.377   1_565 S
C1157  N1178   1.366   .     A
C1157  H1170   1.078   .     S
C1157  C1024   1.417   1_655 S
C1158  N1177   1.366   .     A
C1158  H1171   1.081   .     S
C1159  N1177   1.373   .     A
C1159  C1194   1.435   .     S
C1160  N1178   1.362   .     A
C1160  H1172   1.083   .     S
C1160  C1025   1.416   1_655 S
C1161  O1183   1.280   .     A
C1161  O1184   1.289   .     A
C1162  C1164   1.468   .     S
C1162  O1185   1.297   .     A
C1162  O1186   1.295   .     A
C1165  C1166   1.390   .     A
C1165  H1175   1.082   .     S
C1166  C564    1.416   1_556 S
C1166  C599    1.446   1_556 S
C1167  C1199   1.488   .     S
H1173  C560    1.082   1_556 S
N1177  Zn1187  2.012   .     S
N1178  Zn1188  2.012   .     S
O1179  Zn1187  2.003   .     S
O1180  Zn1188  1.997   .     S
O1181  Zn1187  1.950   .     S
O1182  Zn1188  1.892   .     S
O1183  Zn1187  1.997   .     S
O1184  Zn1188  2.003   .     S
O1185  Zn1187  1.892   .     S
O1186  Zn1188  1.950   .     S
C1189  N1190   1.156   .     T
C1191  O1193   1.222   .     D
C1191  H1192   1.084   .     S
C1194  N1195   1.157   .     T
C1196  H1197   1.085   .     S
C1196  O1198   1.221   .     D
C1199  H1200   1.084   .     S
C1199  O1201   1.221   .     D
N1203  C1068   1.157   1_655 S
C1204  H1205   1.084   .     S
C1204  O1206   1.220   .     D
