data_str_m3_o1_o18_pcu_sym.183
_audit_creation_date              2020-01-03
_audit_creation_method            'Materials Studio'
_symmetry_space_group_name_H-M    'P1'
_symmetry_Int_Tables_number       1
_symmetry_cell_setting            triclinic
loop_
_symmetry_equiv_pos_as_xyz
  x,y,z
_cell_length_a                    29.6084
_cell_length_b                    32.0110
_cell_length_c                    31.0618
_cell_angle_alpha                 90.2576
_cell_angle_beta                  67.6544
_cell_angle_gamma                 90.0547
loop_
_atom_site_label
_atom_site_type_symbol
_atom_site_fract_x
_atom_site_fract_y
_atom_site_fract_z
_atom_site_U_iso_or_equiv
_atom_site_adp_type
_atom_site_occupancy
C1     C     0.16668   0.24661   0.25004   0.00000  Uiso   1.00
C2     C     0.16666   0.08672   0.24995   0.00000  Uiso   1.00
C3     C     0.10679   0.16648   0.05342   0.00000  Uiso   1.00
C4     C     0.21386   0.20848   0.45518   0.00000  Uiso   1.00
C5     C     0.07269   0.16119   0.03317   0.00000  Uiso   1.00
C6     C     0.24774   0.21410   0.47572   0.00000  Uiso   1.00
C7     C     0.18686   0.31205   0.27780   0.00000  Uiso   1.00
C8     C     0.14648   0.02127   0.22218   0.00000  Uiso   1.00
C9     C     0.18686   0.02160   0.27776   0.00000  Uiso   1.00
C10    C     0.14651   0.31172   0.22220   0.00000  Uiso   1.00
C11    C     0.16664   0.04260   0.24998   0.00000  Uiso   1.00
C12    C     0.16671   0.29073   0.25000   0.00000  Uiso   1.00
C13    C     0.32119   0.14142   0.22021   0.00000  Uiso   1.00
C14    C     0.01216   0.19195   0.27975   0.00000  Uiso   1.00
C15    C     0.03574   0.14139   0.22024   0.00000  Uiso   1.00
C16    C     0.29762   0.19201   0.27969   0.00000  Uiso   1.00
C17    C     0.13610   0.16724   0.33798   0.00000  Uiso   1.00
C18    C     0.19721   0.16696   0.16204   0.00000  Uiso   1.00
C19    C     0.11676   0.16957   0.38867   0.00000  Uiso   1.00
C20    C     0.21578   0.17279   0.11185   0.00000  Uiso   1.00
C21    C     0.05325   0.15761   0.46404   0.00000  Uiso   1.00
C22    C     0.27160   0.20541   0.04191   0.00000  Uiso   1.00
C23    C     0.06838   0.15919   0.41578   0.00000  Uiso   1.00
C24    C     0.26019   0.19284   0.08778   0.00000  Uiso   1.00
C25    C     0.14872   0.18109   0.40992   0.00000  Uiso   1.00
C26    C     0.18386   0.16438   0.08972   0.00000  Uiso   1.00
C27    C     0.13443   0.18024   0.45819   0.00000  Uiso   1.00
C28    C     0.19182   0.18081   0.04594   0.00000  Uiso   1.00
C29    C     0.08636   0.16669   0.48540   0.00000  Uiso   1.00
C30    C     0.23746   0.19999   0.02087   0.00000  Uiso   1.00
C31    C     0.16809   0.18922   0.47949   0.00000  Uiso   1.00
C32    C     0.15553   0.17839   0.02667   0.00000  Uiso   1.00
H33    H     0.15205   0.14574   0.10814   0.00000  Uiso   1.00
H34    H     0.18583   0.18819   0.38783   0.00000  Uiso   1.00
H35    H     0.28509   0.20006   0.10483   0.00000  Uiso   1.00
H36    H     0.04299   0.15068   0.39969   0.00000  Uiso   1.00
H37    H     0.01625   0.14778   0.48438   0.00000  Uiso   1.00
H38    H     0.30622   0.22076   0.02365   0.00000  Uiso   1.00
H39    H     0.09347   0.16203   0.09057   0.00000  Uiso   1.00
H40    H     0.22385   0.22108   0.42066   0.00000  Uiso   1.00
N41    N     0.04759   0.16668   0.25001   0.00000  Uiso   1.00
N42    N     0.28574   0.16666   0.24999   0.00000  Uiso   1.00
O43    O     0.12846   0.22775   0.25001   0.00000  Uiso   1.00
O44    O     0.20488   0.10558   0.25000   0.00000  Uiso   1.00
O45    O     0.20490   0.22774   0.25000   0.00000  Uiso   1.00
O46    O     0.12843   0.10559   0.25000   0.00000  Uiso   1.00
O47    O     0.10661   0.16667   0.31613   0.00000  Uiso   1.00
O48    O     0.22672   0.16666   0.18388   0.00000  Uiso   1.00
O49    O     0.18305   0.16666   0.31612   0.00000  Uiso   1.00
O50    O     0.15028   0.16667   0.18388   0.00000  Uiso   1.00
Zn51   Zn    0.11562   0.16667   0.25000   0.00000  Uiso   1.00
Zn52   Zn    0.21771   0.16666   0.25000   0.00000  Uiso   1.00
F53    F     0.02691   0.14848   0.06016   0.00000  Uiso   1.00
F54    F     0.29087   0.23310   0.45108   0.00000  Uiso   1.00
F55    F     0.20510   0.29141   0.30578   0.00000  Uiso   1.00
F56    F     0.12821   0.04191   0.19423   0.00000  Uiso   1.00
F57    F     0.20523   0.04259   0.30561   0.00000  Uiso   1.00
F58    F     0.12817   0.29073   0.19433   0.00000  Uiso   1.00
F59    F     0.31046   0.11616   0.19027   0.00000  Uiso   1.00
F60    F     0.02291   0.21725   0.30965   0.00000  Uiso   1.00
F61    F     0.07009   0.11593   0.19041   0.00000  Uiso   1.00
F62    F     0.26334   0.21760   0.30938   0.00000  Uiso   1.00
C63    C     0.50002   0.24661   0.25004   0.00000  Uiso   1.00
C64    C     0.49999   0.08672   0.24995   0.00000  Uiso   1.00
C65    C     0.44012   0.16648   0.05342   0.00000  Uiso   1.00
C66    C     0.54719   0.20848   0.45518   0.00000  Uiso   1.00
C67    C     0.40602   0.16119   0.03317   0.00000  Uiso   1.00
C68    C     0.58108   0.21410   0.47572   0.00000  Uiso   1.00
C69    C     0.52019   0.31205   0.27780   0.00000  Uiso   1.00
C70    C     0.47982   0.02127   0.22218   0.00000  Uiso   1.00
C71    C     0.52019   0.02160   0.27776   0.00000  Uiso   1.00
C72    C     0.47984   0.31172   0.22220   0.00000  Uiso   1.00
C73    C     0.49998   0.04260   0.24998   0.00000  Uiso   1.00
C74    C     0.50004   0.29073   0.25000   0.00000  Uiso   1.00
C75    C     0.65453   0.14142   0.22021   0.00000  Uiso   1.00
C76    C     0.34549   0.19195   0.27975   0.00000  Uiso   1.00
C77    C     0.36907   0.14139   0.22024   0.00000  Uiso   1.00
C78    C     0.63096   0.19201   0.27969   0.00000  Uiso   1.00
C79    C     0.46943   0.16724   0.33798   0.00000  Uiso   1.00
C80    C     0.53054   0.16696   0.16204   0.00000  Uiso   1.00
C81    C     0.45009   0.16957   0.38867   0.00000  Uiso   1.00
C82    C     0.54912   0.17279   0.11185   0.00000  Uiso   1.00
C83    C     0.38658   0.15761   0.46404   0.00000  Uiso   1.00
C84    C     0.60493   0.20541   0.04191   0.00000  Uiso   1.00
C85    C     0.40171   0.15919   0.41578   0.00000  Uiso   1.00
C86    C     0.59352   0.19284   0.08778   0.00000  Uiso   1.00
C87    C     0.48205   0.18109   0.40992   0.00000  Uiso   1.00
C88    C     0.51720   0.16438   0.08972   0.00000  Uiso   1.00
C89    C     0.46776   0.18024   0.45819   0.00000  Uiso   1.00
C90    C     0.52516   0.18081   0.04594   0.00000  Uiso   1.00
C91    C     0.41969   0.16669   0.48540   0.00000  Uiso   1.00
C92    C     0.57079   0.19999   0.02087   0.00000  Uiso   1.00
C93    C     0.50142   0.18922   0.47949   0.00000  Uiso   1.00
C94    C     0.48887   0.17839   0.02667   0.00000  Uiso   1.00
H95    H     0.48538   0.14574   0.10814   0.00000  Uiso   1.00
H96    H     0.51916   0.18819   0.38783   0.00000  Uiso   1.00
H97    H     0.61842   0.20006   0.10483   0.00000  Uiso   1.00
H98    H     0.37632   0.15068   0.39969   0.00000  Uiso   1.00
H99    H     0.34958   0.14778   0.48438   0.00000  Uiso   1.00
H100   H     0.63956   0.22076   0.02365   0.00000  Uiso   1.00
H101   H     0.42681   0.16203   0.09057   0.00000  Uiso   1.00
H102   H     0.55718   0.22108   0.42066   0.00000  Uiso   1.00
N103   N     0.38093   0.16668   0.25001   0.00000  Uiso   1.00
N104   N     0.61907   0.16666   0.24999   0.00000  Uiso   1.00
O105   O     0.46179   0.22775   0.25001   0.00000  Uiso   1.00
O106   O     0.53821   0.10558   0.25000   0.00000  Uiso   1.00
O107   O     0.53823   0.22774   0.25000   0.00000  Uiso   1.00
O108   O     0.46177   0.10559   0.25000   0.00000  Uiso   1.00
O109   O     0.43994   0.16667   0.31613   0.00000  Uiso   1.00
O110   O     0.56006   0.16666   0.18388   0.00000  Uiso   1.00
O111   O     0.51639   0.16666   0.31612   0.00000  Uiso   1.00
O112   O     0.48361   0.16667   0.18388   0.00000  Uiso   1.00
Zn113  Zn    0.44896   0.16667   0.25000   0.00000  Uiso   1.00
Zn114  Zn    0.55104   0.16666   0.25000   0.00000  Uiso   1.00
F115   F     0.36025   0.14848   0.06016   0.00000  Uiso   1.00
F116   F     0.62420   0.23310   0.45108   0.00000  Uiso   1.00
F117   F     0.53843   0.29141   0.30578   0.00000  Uiso   1.00
F118   F     0.46155   0.04191   0.19423   0.00000  Uiso   1.00
F119   F     0.53856   0.04259   0.30561   0.00000  Uiso   1.00
F120   F     0.46150   0.29073   0.19433   0.00000  Uiso   1.00
F121   F     0.64379   0.11616   0.19027   0.00000  Uiso   1.00
F122   F     0.35624   0.21725   0.30965   0.00000  Uiso   1.00
F123   F     0.40342   0.11593   0.19041   0.00000  Uiso   1.00
F124   F     0.59667   0.21760   0.30938   0.00000  Uiso   1.00
C125   C     0.83335   0.24661   0.25004   0.00000  Uiso   1.00
C126   C     0.83332   0.08672   0.24995   0.00000  Uiso   1.00
C127   C     0.77346   0.16648   0.05342   0.00000  Uiso   1.00
C128   C     0.88053   0.20848   0.45518   0.00000  Uiso   1.00
C129   C     0.73935   0.16119   0.03317   0.00000  Uiso   1.00
C130   C     0.91441   0.21410   0.47572   0.00000  Uiso   1.00
C131   C     0.85353   0.31205   0.27780   0.00000  Uiso   1.00
C132   C     0.81315   0.02127   0.22218   0.00000  Uiso   1.00
C133   C     0.85353   0.02160   0.27776   0.00000  Uiso   1.00
C134   C     0.81317   0.31172   0.22220   0.00000  Uiso   1.00
C135   C     0.83331   0.04260   0.24998   0.00000  Uiso   1.00
C136   C     0.83337   0.29073   0.25000   0.00000  Uiso   1.00
C137   C     0.98786   0.14142   0.22021   0.00000  Uiso   1.00
C138   C     0.67882   0.19195   0.27975   0.00000  Uiso   1.00
C139   C     0.70240   0.14139   0.22024   0.00000  Uiso   1.00
C140   C     0.96429   0.19201   0.27969   0.00000  Uiso   1.00
C141   C     0.80277   0.16724   0.33798   0.00000  Uiso   1.00
C142   C     0.86387   0.16696   0.16204   0.00000  Uiso   1.00
C143   C     0.78342   0.16957   0.38867   0.00000  Uiso   1.00
C144   C     0.88245   0.17279   0.11185   0.00000  Uiso   1.00
C145   C     0.71992   0.15761   0.46404   0.00000  Uiso   1.00
C146   C     0.93826   0.20541   0.04191   0.00000  Uiso   1.00
C147   C     0.73505   0.15919   0.41578   0.00000  Uiso   1.00
C148   C     0.92686   0.19284   0.08778   0.00000  Uiso   1.00
C149   C     0.81538   0.18109   0.40992   0.00000  Uiso   1.00
C150   C     0.85053   0.16438   0.08972   0.00000  Uiso   1.00
C151   C     0.80109   0.18024   0.45819   0.00000  Uiso   1.00
C152   C     0.85849   0.18081   0.04594   0.00000  Uiso   1.00
C153   C     0.75303   0.16669   0.48540   0.00000  Uiso   1.00
C154   C     0.90413   0.19999   0.02087   0.00000  Uiso   1.00
C155   C     0.83476   0.18922   0.47949   0.00000  Uiso   1.00
C156   C     0.82220   0.17839   0.02667   0.00000  Uiso   1.00
H157   H     0.81871   0.14574   0.10814   0.00000  Uiso   1.00
H158   H     0.85249   0.18819   0.38783   0.00000  Uiso   1.00
H159   H     0.95175   0.20006   0.10483   0.00000  Uiso   1.00
H160   H     0.70966   0.15068   0.39969   0.00000  Uiso   1.00
H161   H     0.68292   0.14778   0.48438   0.00000  Uiso   1.00
H162   H     0.97289   0.22076   0.02365   0.00000  Uiso   1.00
H163   H     0.76014   0.16203   0.09057   0.00000  Uiso   1.00
H164   H     0.89052   0.22108   0.42066   0.00000  Uiso   1.00
N165   N     0.71426   0.16668   0.25001   0.00000  Uiso   1.00
N166   N     0.95241   0.16666   0.24999   0.00000  Uiso   1.00
O167   O     0.79512   0.22775   0.25001   0.00000  Uiso   1.00
O168   O     0.87154   0.10558   0.25000   0.00000  Uiso   1.00
O169   O     0.87157   0.22774   0.25000   0.00000  Uiso   1.00
O170   O     0.79510   0.10559   0.25000   0.00000  Uiso   1.00
O171   O     0.77328   0.16667   0.31613   0.00000  Uiso   1.00
O172   O     0.89339   0.16666   0.18388   0.00000  Uiso   1.00
O173   O     0.84972   0.16666   0.31612   0.00000  Uiso   1.00
O174   O     0.81695   0.16667   0.18388   0.00000  Uiso   1.00
Zn175  Zn    0.78229   0.16667   0.25000   0.00000  Uiso   1.00
Zn176  Zn    0.88438   0.16666   0.25000   0.00000  Uiso   1.00
F177   F     0.69358   0.14848   0.06016   0.00000  Uiso   1.00
F178   F     0.95754   0.23310   0.45108   0.00000  Uiso   1.00
F179   F     0.87177   0.29141   0.30578   0.00000  Uiso   1.00
F180   F     0.79488   0.04191   0.19423   0.00000  Uiso   1.00
F181   F     0.87190   0.04259   0.30561   0.00000  Uiso   1.00
F182   F     0.79483   0.29073   0.19433   0.00000  Uiso   1.00
F183   F     0.97712   0.11616   0.19027   0.00000  Uiso   1.00
F184   F     0.68958   0.21725   0.30965   0.00000  Uiso   1.00
F185   F     0.73676   0.11593   0.19041   0.00000  Uiso   1.00
F186   F     0.93000   0.21760   0.30938   0.00000  Uiso   1.00
C187   C     0.16668   0.57994   0.25004   0.00000  Uiso   1.00
C188   C     0.16666   0.42005   0.24995   0.00000  Uiso   1.00
C189   C     0.10679   0.49981   0.05342   0.00000  Uiso   1.00
C190   C     0.21386   0.54181   0.45518   0.00000  Uiso   1.00
C191   C     0.07269   0.49453   0.03317   0.00000  Uiso   1.00
C192   C     0.24774   0.54743   0.47572   0.00000  Uiso   1.00
C193   C     0.18686   0.64539   0.27780   0.00000  Uiso   1.00
C194   C     0.14648   0.35460   0.22218   0.00000  Uiso   1.00
C195   C     0.18686   0.35494   0.27776   0.00000  Uiso   1.00
C196   C     0.14651   0.64505   0.22220   0.00000  Uiso   1.00
C197   C     0.16664   0.37593   0.24998   0.00000  Uiso   1.00
C198   C     0.16671   0.62406   0.25000   0.00000  Uiso   1.00
C199   C     0.32119   0.47475   0.22021   0.00000  Uiso   1.00
C200   C     0.01216   0.52529   0.27975   0.00000  Uiso   1.00
C201   C     0.03574   0.47472   0.22024   0.00000  Uiso   1.00
C202   C     0.29762   0.52534   0.27969   0.00000  Uiso   1.00
C203   C     0.13610   0.50058   0.33798   0.00000  Uiso   1.00
C204   C     0.19721   0.50029   0.16204   0.00000  Uiso   1.00
C205   C     0.11676   0.50291   0.38867   0.00000  Uiso   1.00
C206   C     0.21578   0.50612   0.11185   0.00000  Uiso   1.00
C207   C     0.05325   0.49094   0.46404   0.00000  Uiso   1.00
C208   C     0.27160   0.53875   0.04191   0.00000  Uiso   1.00
C209   C     0.06838   0.49252   0.41578   0.00000  Uiso   1.00
C210   C     0.26019   0.52618   0.08778   0.00000  Uiso   1.00
C211   C     0.14872   0.51442   0.40992   0.00000  Uiso   1.00
C212   C     0.18386   0.49772   0.08972   0.00000  Uiso   1.00
C213   C     0.13443   0.51357   0.45819   0.00000  Uiso   1.00
C214   C     0.19182   0.51414   0.04594   0.00000  Uiso   1.00
C215   C     0.08636   0.50002   0.48540   0.00000  Uiso   1.00
C216   C     0.23746   0.53332   0.02087   0.00000  Uiso   1.00
C217   C     0.16809   0.52256   0.47949   0.00000  Uiso   1.00
C218   C     0.15553   0.51172   0.02667   0.00000  Uiso   1.00
H219   H     0.15205   0.47908   0.10814   0.00000  Uiso   1.00
H220   H     0.18583   0.52152   0.38783   0.00000  Uiso   1.00
H221   H     0.28509   0.53339   0.10483   0.00000  Uiso   1.00
H222   H     0.04299   0.48402   0.39969   0.00000  Uiso   1.00
H223   H     0.01625   0.48112   0.48438   0.00000  Uiso   1.00
H224   H     0.30622   0.55409   0.02365   0.00000  Uiso   1.00
H225   H     0.09347   0.49536   0.09057   0.00000  Uiso   1.00
H226   H     0.22385   0.55442   0.42066   0.00000  Uiso   1.00
N227   N     0.04759   0.50001   0.25001   0.00000  Uiso   1.00
N228   N     0.28574   0.49999   0.24999   0.00000  Uiso   1.00
O229   O     0.12846   0.56108   0.25001   0.00000  Uiso   1.00
O230   O     0.20488   0.43892   0.25000   0.00000  Uiso   1.00
O231   O     0.20490   0.56107   0.25000   0.00000  Uiso   1.00
O232   O     0.12843   0.43893   0.25000   0.00000  Uiso   1.00
O233   O     0.10661   0.50001   0.31613   0.00000  Uiso   1.00
O234   O     0.22672   0.49999   0.18388   0.00000  Uiso   1.00
O235   O     0.18305   0.50000   0.31612   0.00000  Uiso   1.00
O236   O     0.15028   0.50000   0.18388   0.00000  Uiso   1.00
Zn237  Zn    0.11562   0.50001   0.25000   0.00000  Uiso   1.00
Zn238  Zn    0.21771   0.49999   0.25000   0.00000  Uiso   1.00
F239   F     0.02691   0.48181   0.06016   0.00000  Uiso   1.00
F240   F     0.29087   0.56643   0.45108   0.00000  Uiso   1.00
F241   F     0.20510   0.62474   0.30578   0.00000  Uiso   1.00
F242   F     0.12821   0.37524   0.19423   0.00000  Uiso   1.00
F243   F     0.20523   0.37592   0.30561   0.00000  Uiso   1.00
F244   F     0.12817   0.62406   0.19433   0.00000  Uiso   1.00
F245   F     0.31046   0.44950   0.19027   0.00000  Uiso   1.00
F246   F     0.02291   0.55058   0.30965   0.00000  Uiso   1.00
F247   F     0.07009   0.44926   0.19041   0.00000  Uiso   1.00
F248   F     0.26334   0.55093   0.30938   0.00000  Uiso   1.00
C249   C     0.50002   0.57994   0.25004   0.00000  Uiso   1.00
C250   C     0.49999   0.42005   0.24995   0.00000  Uiso   1.00
C251   C     0.44012   0.49981   0.05342   0.00000  Uiso   1.00
C252   C     0.54719   0.54181   0.45518   0.00000  Uiso   1.00
C253   C     0.40602   0.49453   0.03317   0.00000  Uiso   1.00
C254   C     0.58108   0.54743   0.47572   0.00000  Uiso   1.00
C255   C     0.52019   0.64539   0.27780   0.00000  Uiso   1.00
C256   C     0.47982   0.35460   0.22218   0.00000  Uiso   1.00
C257   C     0.52019   0.35494   0.27776   0.00000  Uiso   1.00
C258   C     0.47984   0.64505   0.22220   0.00000  Uiso   1.00
C259   C     0.49998   0.37593   0.24998   0.00000  Uiso   1.00
C260   C     0.50004   0.62406   0.25000   0.00000  Uiso   1.00
C261   C     0.65453   0.47475   0.22021   0.00000  Uiso   1.00
C262   C     0.34549   0.52529   0.27975   0.00000  Uiso   1.00
C263   C     0.36907   0.47472   0.22024   0.00000  Uiso   1.00
C264   C     0.63096   0.52534   0.27969   0.00000  Uiso   1.00
C265   C     0.46943   0.50058   0.33798   0.00000  Uiso   1.00
C266   C     0.53054   0.50029   0.16204   0.00000  Uiso   1.00
C267   C     0.45009   0.50291   0.38867   0.00000  Uiso   1.00
C268   C     0.54912   0.50612   0.11185   0.00000  Uiso   1.00
C269   C     0.38658   0.49094   0.46404   0.00000  Uiso   1.00
C270   C     0.60493   0.53875   0.04191   0.00000  Uiso   1.00
C271   C     0.40171   0.49252   0.41578   0.00000  Uiso   1.00
C272   C     0.59352   0.52618   0.08778   0.00000  Uiso   1.00
C273   C     0.48205   0.51442   0.40992   0.00000  Uiso   1.00
C274   C     0.51720   0.49772   0.08972   0.00000  Uiso   1.00
C275   C     0.46776   0.51357   0.45819   0.00000  Uiso   1.00
C276   C     0.52516   0.51414   0.04594   0.00000  Uiso   1.00
C277   C     0.41969   0.50002   0.48540   0.00000  Uiso   1.00
C278   C     0.57079   0.53332   0.02087   0.00000  Uiso   1.00
C279   C     0.50142   0.52256   0.47949   0.00000  Uiso   1.00
C280   C     0.48887   0.51172   0.02667   0.00000  Uiso   1.00
H281   H     0.48538   0.47908   0.10814   0.00000  Uiso   1.00
H282   H     0.51916   0.52152   0.38783   0.00000  Uiso   1.00
H283   H     0.61842   0.53339   0.10483   0.00000  Uiso   1.00
H284   H     0.37632   0.48402   0.39969   0.00000  Uiso   1.00
H285   H     0.34958   0.48112   0.48438   0.00000  Uiso   1.00
H286   H     0.63956   0.55409   0.02365   0.00000  Uiso   1.00
H287   H     0.42681   0.49536   0.09057   0.00000  Uiso   1.00
H288   H     0.55718   0.55442   0.42066   0.00000  Uiso   1.00
N289   N     0.38093   0.50001   0.25001   0.00000  Uiso   1.00
N290   N     0.61907   0.49999   0.24999   0.00000  Uiso   1.00
O291   O     0.46179   0.56108   0.25001   0.00000  Uiso   1.00
O292   O     0.53821   0.43892   0.25000   0.00000  Uiso   1.00
O293   O     0.53823   0.56107   0.25000   0.00000  Uiso   1.00
O294   O     0.46177   0.43893   0.25000   0.00000  Uiso   1.00
O295   O     0.43994   0.50001   0.31613   0.00000  Uiso   1.00
O296   O     0.56006   0.49999   0.18388   0.00000  Uiso   1.00
O297   O     0.51639   0.50000   0.31612   0.00000  Uiso   1.00
O298   O     0.48361   0.50000   0.18388   0.00000  Uiso   1.00
Zn299  Zn    0.44896   0.50001   0.25000   0.00000  Uiso   1.00
Zn300  Zn    0.55104   0.49999   0.25000   0.00000  Uiso   1.00
F301   F     0.36025   0.48181   0.06016   0.00000  Uiso   1.00
F302   F     0.62420   0.56643   0.45108   0.00000  Uiso   1.00
F303   F     0.53843   0.62474   0.30578   0.00000  Uiso   1.00
F304   F     0.46155   0.37524   0.19423   0.00000  Uiso   1.00
F305   F     0.53856   0.37592   0.30561   0.00000  Uiso   1.00
F306   F     0.46150   0.62406   0.19433   0.00000  Uiso   1.00
F307   F     0.64379   0.44950   0.19027   0.00000  Uiso   1.00
F308   F     0.35624   0.55058   0.30965   0.00000  Uiso   1.00
F309   F     0.40342   0.44926   0.19041   0.00000  Uiso   1.00
F310   F     0.59667   0.55093   0.30938   0.00000  Uiso   1.00
C311   C     0.83335   0.57994   0.25004   0.00000  Uiso   1.00
C312   C     0.83332   0.42005   0.24995   0.00000  Uiso   1.00
C313   C     0.77346   0.49981   0.05342   0.00000  Uiso   1.00
C314   C     0.88053   0.54181   0.45518   0.00000  Uiso   1.00
C315   C     0.73935   0.49453   0.03317   0.00000  Uiso   1.00
C316   C     0.91441   0.54743   0.47572   0.00000  Uiso   1.00
C317   C     0.85353   0.64539   0.27780   0.00000  Uiso   1.00
C318   C     0.81315   0.35460   0.22218   0.00000  Uiso   1.00
C319   C     0.85353   0.35494   0.27776   0.00000  Uiso   1.00
C320   C     0.81317   0.64505   0.22220   0.00000  Uiso   1.00
C321   C     0.83331   0.37593   0.24998   0.00000  Uiso   1.00
C322   C     0.83337   0.62406   0.25000   0.00000  Uiso   1.00
C323   C     0.98786   0.47475   0.22021   0.00000  Uiso   1.00
C324   C     0.67882   0.52529   0.27975   0.00000  Uiso   1.00
C325   C     0.70240   0.47472   0.22024   0.00000  Uiso   1.00
C326   C     0.96429   0.52534   0.27969   0.00000  Uiso   1.00
C327   C     0.80277   0.50058   0.33798   0.00000  Uiso   1.00
C328   C     0.86387   0.50029   0.16204   0.00000  Uiso   1.00
C329   C     0.78342   0.50291   0.38867   0.00000  Uiso   1.00
C330   C     0.88245   0.50612   0.11185   0.00000  Uiso   1.00
C331   C     0.71992   0.49094   0.46404   0.00000  Uiso   1.00
C332   C     0.93826   0.53875   0.04191   0.00000  Uiso   1.00
C333   C     0.73505   0.49252   0.41578   0.00000  Uiso   1.00
C334   C     0.92686   0.52618   0.08778   0.00000  Uiso   1.00
C335   C     0.81538   0.51442   0.40992   0.00000  Uiso   1.00
C336   C     0.85053   0.49772   0.08972   0.00000  Uiso   1.00
C337   C     0.80109   0.51357   0.45819   0.00000  Uiso   1.00
C338   C     0.85849   0.51414   0.04594   0.00000  Uiso   1.00
C339   C     0.75303   0.50002   0.48540   0.00000  Uiso   1.00
C340   C     0.90413   0.53332   0.02087   0.00000  Uiso   1.00
C341   C     0.83476   0.52256   0.47949   0.00000  Uiso   1.00
C342   C     0.82220   0.51172   0.02667   0.00000  Uiso   1.00
H343   H     0.81871   0.47908   0.10814   0.00000  Uiso   1.00
H344   H     0.85249   0.52152   0.38783   0.00000  Uiso   1.00
H345   H     0.95175   0.53339   0.10483   0.00000  Uiso   1.00
H346   H     0.70966   0.48402   0.39969   0.00000  Uiso   1.00
H347   H     0.68292   0.48112   0.48438   0.00000  Uiso   1.00
H348   H     0.97289   0.55409   0.02365   0.00000  Uiso   1.00
H349   H     0.76014   0.49536   0.09057   0.00000  Uiso   1.00
H350   H     0.89052   0.55442   0.42066   0.00000  Uiso   1.00
N351   N     0.71426   0.50001   0.25001   0.00000  Uiso   1.00
N352   N     0.95241   0.49999   0.24999   0.00000  Uiso   1.00
O353   O     0.79512   0.56108   0.25001   0.00000  Uiso   1.00
O354   O     0.87154   0.43892   0.25000   0.00000  Uiso   1.00
O355   O     0.87157   0.56107   0.25000   0.00000  Uiso   1.00
O356   O     0.79510   0.43893   0.25000   0.00000  Uiso   1.00
O357   O     0.77328   0.50001   0.31613   0.00000  Uiso   1.00
O358   O     0.89339   0.49999   0.18388   0.00000  Uiso   1.00
O359   O     0.84972   0.50000   0.31612   0.00000  Uiso   1.00
O360   O     0.81695   0.50000   0.18388   0.00000  Uiso   1.00
Zn361  Zn    0.78229   0.50001   0.25000   0.00000  Uiso   1.00
Zn362  Zn    0.88438   0.49999   0.25000   0.00000  Uiso   1.00
F363   F     0.69358   0.48181   0.06016   0.00000  Uiso   1.00
F364   F     0.95754   0.56643   0.45108   0.00000  Uiso   1.00
F365   F     0.87177   0.62474   0.30578   0.00000  Uiso   1.00
F366   F     0.79488   0.37524   0.19423   0.00000  Uiso   1.00
F367   F     0.87190   0.37592   0.30561   0.00000  Uiso   1.00
F368   F     0.79483   0.62406   0.19433   0.00000  Uiso   1.00
F369   F     0.97712   0.44950   0.19027   0.00000  Uiso   1.00
F370   F     0.68958   0.55058   0.30965   0.00000  Uiso   1.00
F371   F     0.73676   0.44926   0.19041   0.00000  Uiso   1.00
F372   F     0.93000   0.55093   0.30938   0.00000  Uiso   1.00
C373   C     0.16668   0.91328   0.25004   0.00000  Uiso   1.00
C374   C     0.16666   0.75339   0.24995   0.00000  Uiso   1.00
C375   C     0.10679   0.83314   0.05342   0.00000  Uiso   1.00
C376   C     0.21386   0.87515   0.45518   0.00000  Uiso   1.00
C377   C     0.07269   0.82786   0.03317   0.00000  Uiso   1.00
C378   C     0.24774   0.88076   0.47572   0.00000  Uiso   1.00
C379   C     0.18686   0.97872   0.27780   0.00000  Uiso   1.00
C380   C     0.14648   0.68794   0.22218   0.00000  Uiso   1.00
C381   C     0.18686   0.68827   0.27776   0.00000  Uiso   1.00
C382   C     0.14651   0.97838   0.22220   0.00000  Uiso   1.00
C383   C     0.16664   0.70927   0.24998   0.00000  Uiso   1.00
C384   C     0.16671   0.95739   0.25000   0.00000  Uiso   1.00
C385   C     0.32119   0.80808   0.22021   0.00000  Uiso   1.00
C386   C     0.01216   0.85862   0.27975   0.00000  Uiso   1.00
C387   C     0.03574   0.80805   0.22024   0.00000  Uiso   1.00
C388   C     0.29762   0.85868   0.27969   0.00000  Uiso   1.00
C389   C     0.13610   0.83391   0.33798   0.00000  Uiso   1.00
C390   C     0.19721   0.83363   0.16204   0.00000  Uiso   1.00
C391   C     0.11676   0.83624   0.38867   0.00000  Uiso   1.00
C392   C     0.21578   0.83945   0.11185   0.00000  Uiso   1.00
C393   C     0.05325   0.82427   0.46404   0.00000  Uiso   1.00
C394   C     0.27160   0.87208   0.04191   0.00000  Uiso   1.00
C395   C     0.06838   0.82586   0.41578   0.00000  Uiso   1.00
C396   C     0.26019   0.85951   0.08778   0.00000  Uiso   1.00
C397   C     0.14872   0.84776   0.40992   0.00000  Uiso   1.00
C398   C     0.18386   0.83105   0.08972   0.00000  Uiso   1.00
C399   C     0.13443   0.84690   0.45819   0.00000  Uiso   1.00
C400   C     0.19182   0.84748   0.04594   0.00000  Uiso   1.00
C401   C     0.08636   0.83336   0.48540   0.00000  Uiso   1.00
C402   C     0.23746   0.86666   0.02087   0.00000  Uiso   1.00
C403   C     0.16809   0.85589   0.47949   0.00000  Uiso   1.00
C404   C     0.15553   0.84505   0.02667   0.00000  Uiso   1.00
H405   H     0.15205   0.81241   0.10814   0.00000  Uiso   1.00
H406   H     0.18583   0.85485   0.38783   0.00000  Uiso   1.00
H407   H     0.28509   0.86672   0.10483   0.00000  Uiso   1.00
H408   H     0.04299   0.81735   0.39969   0.00000  Uiso   1.00
H409   H     0.01625   0.81445   0.48438   0.00000  Uiso   1.00
H410   H     0.30622   0.88743   0.02365   0.00000  Uiso   1.00
H411   H     0.09347   0.82869   0.09057   0.00000  Uiso   1.00
H412   H     0.22385   0.88775   0.42066   0.00000  Uiso   1.00
N413   N     0.04759   0.83334   0.25001   0.00000  Uiso   1.00
N414   N     0.28574   0.83332   0.24999   0.00000  Uiso   1.00
O415   O     0.12846   0.89442   0.25001   0.00000  Uiso   1.00
O416   O     0.20488   0.77225   0.25000   0.00000  Uiso   1.00
O417   O     0.20490   0.89441   0.25000   0.00000  Uiso   1.00
O418   O     0.12843   0.77226   0.25000   0.00000  Uiso   1.00
O419   O     0.10661   0.83334   0.31613   0.00000  Uiso   1.00
O420   O     0.22672   0.83333   0.18388   0.00000  Uiso   1.00
O421   O     0.18305   0.83333   0.31612   0.00000  Uiso   1.00
O422   O     0.15028   0.83334   0.18388   0.00000  Uiso   1.00
Zn423  Zn    0.11562   0.83334   0.25000   0.00000  Uiso   1.00
Zn424  Zn    0.21771   0.83333   0.25000   0.00000  Uiso   1.00
F425   F     0.02691   0.81514   0.06016   0.00000  Uiso   1.00
F426   F     0.29087   0.89977   0.45108   0.00000  Uiso   1.00
F427   F     0.20510   0.95808   0.30578   0.00000  Uiso   1.00
F428   F     0.12821   0.70858   0.19423   0.00000  Uiso   1.00
F429   F     0.20523   0.70926   0.30561   0.00000  Uiso   1.00
F430   F     0.12817   0.95739   0.19433   0.00000  Uiso   1.00
F431   F     0.31046   0.78283   0.19027   0.00000  Uiso   1.00
F432   F     0.02291   0.88391   0.30965   0.00000  Uiso   1.00
F433   F     0.07009   0.78260   0.19041   0.00000  Uiso   1.00
F434   F     0.26334   0.88427   0.30938   0.00000  Uiso   1.00
C435   C     0.50002   0.91328   0.25004   0.00000  Uiso   1.00
C436   C     0.49999   0.75339   0.24995   0.00000  Uiso   1.00
C437   C     0.44012   0.83314   0.05342   0.00000  Uiso   1.00
C438   C     0.54719   0.87515   0.45518   0.00000  Uiso   1.00
C439   C     0.40602   0.82786   0.03317   0.00000  Uiso   1.00
C440   C     0.58108   0.88076   0.47572   0.00000  Uiso   1.00
C441   C     0.52019   0.97872   0.27780   0.00000  Uiso   1.00
C442   C     0.47982   0.68794   0.22218   0.00000  Uiso   1.00
C443   C     0.52019   0.68827   0.27776   0.00000  Uiso   1.00
C444   C     0.47984   0.97838   0.22220   0.00000  Uiso   1.00
C445   C     0.49998   0.70927   0.24998   0.00000  Uiso   1.00
C446   C     0.50004   0.95739   0.25000   0.00000  Uiso   1.00
C447   C     0.65453   0.80808   0.22021   0.00000  Uiso   1.00
C448   C     0.34549   0.85862   0.27975   0.00000  Uiso   1.00
C449   C     0.36907   0.80805   0.22024   0.00000  Uiso   1.00
C450   C     0.63096   0.85868   0.27969   0.00000  Uiso   1.00
C451   C     0.46943   0.83391   0.33798   0.00000  Uiso   1.00
C452   C     0.53054   0.83363   0.16204   0.00000  Uiso   1.00
C453   C     0.45009   0.83624   0.38867   0.00000  Uiso   1.00
C454   C     0.54912   0.83945   0.11185   0.00000  Uiso   1.00
C455   C     0.38658   0.82427   0.46404   0.00000  Uiso   1.00
C456   C     0.60493   0.87208   0.04191   0.00000  Uiso   1.00
C457   C     0.40171   0.82586   0.41578   0.00000  Uiso   1.00
C458   C     0.59352   0.85951   0.08778   0.00000  Uiso   1.00
C459   C     0.48205   0.84776   0.40992   0.00000  Uiso   1.00
C460   C     0.51720   0.83105   0.08972   0.00000  Uiso   1.00
C461   C     0.46776   0.84690   0.45819   0.00000  Uiso   1.00
C462   C     0.52516   0.84748   0.04594   0.00000  Uiso   1.00
C463   C     0.41969   0.83336   0.48540   0.00000  Uiso   1.00
C464   C     0.57079   0.86666   0.02087   0.00000  Uiso   1.00
C465   C     0.50142   0.85589   0.47949   0.00000  Uiso   1.00
C466   C     0.48887   0.84505   0.02667   0.00000  Uiso   1.00
H467   H     0.48538   0.81241   0.10814   0.00000  Uiso   1.00
H468   H     0.51916   0.85485   0.38783   0.00000  Uiso   1.00
H469   H     0.61842   0.86672   0.10483   0.00000  Uiso   1.00
H470   H     0.37632   0.81735   0.39969   0.00000  Uiso   1.00
H471   H     0.34958   0.81445   0.48438   0.00000  Uiso   1.00
H472   H     0.63956   0.88743   0.02365   0.00000  Uiso   1.00
H473   H     0.42681   0.82869   0.09057   0.00000  Uiso   1.00
H474   H     0.55718   0.88775   0.42066   0.00000  Uiso   1.00
N475   N     0.38093   0.83334   0.25001   0.00000  Uiso   1.00
N476   N     0.61907   0.83332   0.24999   0.00000  Uiso   1.00
O477   O     0.46179   0.89442   0.25001   0.00000  Uiso   1.00
O478   O     0.53821   0.77225   0.25000   0.00000  Uiso   1.00
O479   O     0.53823   0.89441   0.25000   0.00000  Uiso   1.00
O480   O     0.46177   0.77226   0.25000   0.00000  Uiso   1.00
O481   O     0.43994   0.83334   0.31613   0.00000  Uiso   1.00
O482   O     0.56006   0.83333   0.18388   0.00000  Uiso   1.00
O483   O     0.51639   0.83333   0.31612   0.00000  Uiso   1.00
O484   O     0.48361   0.83334   0.18388   0.00000  Uiso   1.00
Zn485  Zn    0.44896   0.83334   0.25000   0.00000  Uiso   1.00
Zn486  Zn    0.55104   0.83333   0.25000   0.00000  Uiso   1.00
F487   F     0.36025   0.81514   0.06016   0.00000  Uiso   1.00
F488   F     0.62420   0.89977   0.45108   0.00000  Uiso   1.00
F489   F     0.53843   0.95808   0.30578   0.00000  Uiso   1.00
F490   F     0.46155   0.70858   0.19423   0.00000  Uiso   1.00
F491   F     0.53856   0.70926   0.30561   0.00000  Uiso   1.00
F492   F     0.46150   0.95739   0.19433   0.00000  Uiso   1.00
F493   F     0.64379   0.78283   0.19027   0.00000  Uiso   1.00
F494   F     0.35624   0.88391   0.30965   0.00000  Uiso   1.00
F495   F     0.40342   0.78260   0.19041   0.00000  Uiso   1.00
F496   F     0.59667   0.88427   0.30938   0.00000  Uiso   1.00
C497   C     0.83335   0.91328   0.25004   0.00000  Uiso   1.00
C498   C     0.83332   0.75339   0.24995   0.00000  Uiso   1.00
C499   C     0.77346   0.83314   0.05342   0.00000  Uiso   1.00
C500   C     0.88053   0.87515   0.45518   0.00000  Uiso   1.00
C501   C     0.73935   0.82786   0.03317   0.00000  Uiso   1.00
C502   C     0.91441   0.88076   0.47572   0.00000  Uiso   1.00
C503   C     0.85353   0.97872   0.27780   0.00000  Uiso   1.00
C504   C     0.81315   0.68794   0.22218   0.00000  Uiso   1.00
C505   C     0.85353   0.68827   0.27776   0.00000  Uiso   1.00
C506   C     0.81317   0.97838   0.22220   0.00000  Uiso   1.00
C507   C     0.83331   0.70927   0.24998   0.00000  Uiso   1.00
C508   C     0.83337   0.95739   0.25000   0.00000  Uiso   1.00
C509   C     0.98786   0.80808   0.22021   0.00000  Uiso   1.00
C510   C     0.67882   0.85862   0.27975   0.00000  Uiso   1.00
C511   C     0.70240   0.80805   0.22024   0.00000  Uiso   1.00
C512   C     0.96429   0.85868   0.27969   0.00000  Uiso   1.00
C513   C     0.80277   0.83391   0.33798   0.00000  Uiso   1.00
C514   C     0.86387   0.83363   0.16204   0.00000  Uiso   1.00
C515   C     0.78342   0.83624   0.38867   0.00000  Uiso   1.00
C516   C     0.88245   0.83945   0.11185   0.00000  Uiso   1.00
C517   C     0.71992   0.82427   0.46404   0.00000  Uiso   1.00
C518   C     0.93826   0.87208   0.04191   0.00000  Uiso   1.00
C519   C     0.73505   0.82586   0.41578   0.00000  Uiso   1.00
C520   C     0.92686   0.85951   0.08778   0.00000  Uiso   1.00
C521   C     0.81538   0.84776   0.40992   0.00000  Uiso   1.00
C522   C     0.85053   0.83105   0.08972   0.00000  Uiso   1.00
C523   C     0.80109   0.84690   0.45819   0.00000  Uiso   1.00
C524   C     0.85849   0.84748   0.04594   0.00000  Uiso   1.00
C525   C     0.75303   0.83336   0.48540   0.00000  Uiso   1.00
C526   C     0.90413   0.86666   0.02087   0.00000  Uiso   1.00
C527   C     0.83476   0.85589   0.47949   0.00000  Uiso   1.00
C528   C     0.82220   0.84505   0.02667   0.00000  Uiso   1.00
H529   H     0.81871   0.81241   0.10814   0.00000  Uiso   1.00
H530   H     0.85249   0.85485   0.38783   0.00000  Uiso   1.00
H531   H     0.95175   0.86672   0.10483   0.00000  Uiso   1.00
H532   H     0.70966   0.81735   0.39969   0.00000  Uiso   1.00
H533   H     0.68292   0.81445   0.48438   0.00000  Uiso   1.00
H534   H     0.97289   0.88743   0.02365   0.00000  Uiso   1.00
H535   H     0.76014   0.82869   0.09057   0.00000  Uiso   1.00
H536   H     0.89052   0.88775   0.42066   0.00000  Uiso   1.00
N537   N     0.71426   0.83334   0.25001   0.00000  Uiso   1.00
N538   N     0.95241   0.83332   0.24999   0.00000  Uiso   1.00
O539   O     0.79512   0.89442   0.25001   0.00000  Uiso   1.00
O540   O     0.87154   0.77225   0.25000   0.00000  Uiso   1.00
O541   O     0.87157   0.89441   0.25000   0.00000  Uiso   1.00
O542   O     0.79510   0.77226   0.25000   0.00000  Uiso   1.00
O543   O     0.77328   0.83334   0.31613   0.00000  Uiso   1.00
O544   O     0.89339   0.83333   0.18388   0.00000  Uiso   1.00
O545   O     0.84972   0.83333   0.31612   0.00000  Uiso   1.00
O546   O     0.81695   0.83334   0.18388   0.00000  Uiso   1.00
Zn547  Zn    0.78229   0.83334   0.25000   0.00000  Uiso   1.00
Zn548  Zn    0.88438   0.83333   0.25000   0.00000  Uiso   1.00
F549   F     0.69358   0.81514   0.06016   0.00000  Uiso   1.00
F550   F     0.95754   0.89977   0.45108   0.00000  Uiso   1.00
F551   F     0.87177   0.95808   0.30578   0.00000  Uiso   1.00
F552   F     0.79488   0.70858   0.19423   0.00000  Uiso   1.00
F553   F     0.87190   0.70926   0.30561   0.00000  Uiso   1.00
F554   F     0.79483   0.95739   0.19433   0.00000  Uiso   1.00
F555   F     0.97712   0.78283   0.19027   0.00000  Uiso   1.00
F556   F     0.68958   0.88391   0.30965   0.00000  Uiso   1.00
F557   F     0.73676   0.78260   0.19041   0.00000  Uiso   1.00
F558   F     0.93000   0.88427   0.30938   0.00000  Uiso   1.00
C559   C     0.16668   0.24661   0.75004   0.00000  Uiso   1.00
C560   C     0.16666   0.08672   0.74995   0.00000  Uiso   1.00
C561   C     0.10679   0.16648   0.55342   0.00000  Uiso   1.00
C562   C     0.21386   0.20848   0.95518   0.00000  Uiso   1.00
C563   C     0.07269   0.16119   0.53317   0.00000  Uiso   1.00
C564   C     0.24774   0.21410   0.97572   0.00000  Uiso   1.00
C565   C     0.18686   0.31205   0.77780   0.00000  Uiso   1.00
C566   C     0.14648   0.02127   0.72218   0.00000  Uiso   1.00
C567   C     0.18686   0.02160   0.77776   0.00000  Uiso   1.00
C568   C     0.14651   0.31172   0.72220   0.00000  Uiso   1.00
C569   C     0.16664   0.04260   0.74998   0.00000  Uiso   1.00
C570   C     0.16671   0.29073   0.75000   0.00000  Uiso   1.00
C571   C     0.32119   0.14142   0.72021   0.00000  Uiso   1.00
C572   C     0.01216   0.19195   0.77975   0.00000  Uiso   1.00
C573   C     0.03574   0.14139   0.72024   0.00000  Uiso   1.00
C574   C     0.29762   0.19201   0.77969   0.00000  Uiso   1.00
C575   C     0.13610   0.16724   0.83798   0.00000  Uiso   1.00
C576   C     0.19721   0.16696   0.66204   0.00000  Uiso   1.00
C577   C     0.11676   0.16957   0.88867   0.00000  Uiso   1.00
C578   C     0.21578   0.17279   0.61185   0.00000  Uiso   1.00
C579   C     0.05325   0.15761   0.96404   0.00000  Uiso   1.00
C580   C     0.27160   0.20541   0.54191   0.00000  Uiso   1.00
C581   C     0.06838   0.15919   0.91578   0.00000  Uiso   1.00
C582   C     0.26019   0.19284   0.58778   0.00000  Uiso   1.00
C583   C     0.14872   0.18109   0.90992   0.00000  Uiso   1.00
C584   C     0.18386   0.16438   0.58972   0.00000  Uiso   1.00
C585   C     0.13443   0.18024   0.95819   0.00000  Uiso   1.00
C586   C     0.19182   0.18081   0.54594   0.00000  Uiso   1.00
C587   C     0.08636   0.16669   0.98540   0.00000  Uiso   1.00
C588   C     0.23746   0.19999   0.52087   0.00000  Uiso   1.00
C589   C     0.16809   0.18922   0.97949   0.00000  Uiso   1.00
C590   C     0.15553   0.17839   0.52667   0.00000  Uiso   1.00
H591   H     0.15205   0.14574   0.60814   0.00000  Uiso   1.00
H592   H     0.18583   0.18819   0.88783   0.00000  Uiso   1.00
H593   H     0.28509   0.20006   0.60483   0.00000  Uiso   1.00
H594   H     0.04299   0.15068   0.89969   0.00000  Uiso   1.00
H595   H     0.01625   0.14778   0.98438   0.00000  Uiso   1.00
H596   H     0.30622   0.22076   0.52365   0.00000  Uiso   1.00
H597   H     0.09347   0.16203   0.59057   0.00000  Uiso   1.00
H598   H     0.22385   0.22108   0.92066   0.00000  Uiso   1.00
N599   N     0.04759   0.16668   0.75001   0.00000  Uiso   1.00
N600   N     0.28574   0.16666   0.74999   0.00000  Uiso   1.00
O601   O     0.12846   0.22775   0.75001   0.00000  Uiso   1.00
O602   O     0.20488   0.10558   0.75000   0.00000  Uiso   1.00
O603   O     0.20490   0.22774   0.75000   0.00000  Uiso   1.00
O604   O     0.12843   0.10559   0.75000   0.00000  Uiso   1.00
O605   O     0.10661   0.16667   0.81613   0.00000  Uiso   1.00
O606   O     0.22672   0.16666   0.68388   0.00000  Uiso   1.00
O607   O     0.18305   0.16666   0.81612   0.00000  Uiso   1.00
O608   O     0.15028   0.16667   0.68388   0.00000  Uiso   1.00
Zn609  Zn    0.11562   0.16667   0.75000   0.00000  Uiso   1.00
Zn610  Zn    0.21771   0.16666   0.75000   0.00000  Uiso   1.00
F611   F     0.02691   0.14848   0.56016   0.00000  Uiso   1.00
F612   F     0.29087   0.23310   0.95108   0.00000  Uiso   1.00
F613   F     0.20510   0.29141   0.80578   0.00000  Uiso   1.00
F614   F     0.12821   0.04191   0.69423   0.00000  Uiso   1.00
F615   F     0.20523   0.04259   0.80561   0.00000  Uiso   1.00
F616   F     0.12817   0.29073   0.69433   0.00000  Uiso   1.00
F617   F     0.31046   0.11616   0.69027   0.00000  Uiso   1.00
F618   F     0.02291   0.21725   0.80965   0.00000  Uiso   1.00
F619   F     0.07009   0.11593   0.69041   0.00000  Uiso   1.00
F620   F     0.26334   0.21760   0.80938   0.00000  Uiso   1.00
C621   C     0.50002   0.24661   0.75004   0.00000  Uiso   1.00
C622   C     0.49999   0.08672   0.74995   0.00000  Uiso   1.00
C623   C     0.44012   0.16648   0.55342   0.00000  Uiso   1.00
C624   C     0.54719   0.20848   0.95518   0.00000  Uiso   1.00
C625   C     0.40602   0.16119   0.53317   0.00000  Uiso   1.00
C626   C     0.58108   0.21410   0.97572   0.00000  Uiso   1.00
C627   C     0.52019   0.31205   0.77780   0.00000  Uiso   1.00
C628   C     0.47982   0.02127   0.72218   0.00000  Uiso   1.00
C629   C     0.52019   0.02160   0.77776   0.00000  Uiso   1.00
C630   C     0.47984   0.31172   0.72220   0.00000  Uiso   1.00
C631   C     0.49998   0.04260   0.74998   0.00000  Uiso   1.00
C632   C     0.50004   0.29073   0.75000   0.00000  Uiso   1.00
C633   C     0.65453   0.14142   0.72021   0.00000  Uiso   1.00
C634   C     0.34549   0.19195   0.77975   0.00000  Uiso   1.00
C635   C     0.36907   0.14139   0.72024   0.00000  Uiso   1.00
C636   C     0.63096   0.19201   0.77969   0.00000  Uiso   1.00
C637   C     0.46943   0.16724   0.83798   0.00000  Uiso   1.00
C638   C     0.53054   0.16696   0.66204   0.00000  Uiso   1.00
C639   C     0.45009   0.16957   0.88867   0.00000  Uiso   1.00
C640   C     0.54912   0.17279   0.61185   0.00000  Uiso   1.00
C641   C     0.38658   0.15761   0.96404   0.00000  Uiso   1.00
C642   C     0.60493   0.20541   0.54191   0.00000  Uiso   1.00
C643   C     0.40171   0.15919   0.91578   0.00000  Uiso   1.00
C644   C     0.59352   0.19284   0.58778   0.00000  Uiso   1.00
C645   C     0.48205   0.18109   0.90992   0.00000  Uiso   1.00
C646   C     0.51720   0.16438   0.58972   0.00000  Uiso   1.00
C647   C     0.46776   0.18024   0.95819   0.00000  Uiso   1.00
C648   C     0.52516   0.18081   0.54594   0.00000  Uiso   1.00
C649   C     0.41969   0.16669   0.98540   0.00000  Uiso   1.00
C650   C     0.57079   0.19999   0.52087   0.00000  Uiso   1.00
C651   C     0.50142   0.18922   0.97949   0.00000  Uiso   1.00
C652   C     0.48887   0.17839   0.52667   0.00000  Uiso   1.00
H653   H     0.48538   0.14574   0.60814   0.00000  Uiso   1.00
H654   H     0.51916   0.18819   0.88783   0.00000  Uiso   1.00
H655   H     0.61842   0.20006   0.60483   0.00000  Uiso   1.00
H656   H     0.37632   0.15068   0.89969   0.00000  Uiso   1.00
H657   H     0.34958   0.14778   0.98438   0.00000  Uiso   1.00
H658   H     0.63956   0.22076   0.52365   0.00000  Uiso   1.00
H659   H     0.42681   0.16203   0.59057   0.00000  Uiso   1.00
H660   H     0.55718   0.22108   0.92066   0.00000  Uiso   1.00
N661   N     0.38093   0.16668   0.75001   0.00000  Uiso   1.00
N662   N     0.61907   0.16666   0.74999   0.00000  Uiso   1.00
O663   O     0.46179   0.22775   0.75001   0.00000  Uiso   1.00
O664   O     0.53821   0.10558   0.75000   0.00000  Uiso   1.00
O665   O     0.53823   0.22774   0.75000   0.00000  Uiso   1.00
O666   O     0.46177   0.10559   0.75000   0.00000  Uiso   1.00
O667   O     0.43994   0.16667   0.81613   0.00000  Uiso   1.00
O668   O     0.56006   0.16666   0.68388   0.00000  Uiso   1.00
O669   O     0.51639   0.16666   0.81612   0.00000  Uiso   1.00
O670   O     0.48361   0.16667   0.68388   0.00000  Uiso   1.00
Zn671  Zn    0.44896   0.16667   0.75000   0.00000  Uiso   1.00
Zn672  Zn    0.55104   0.16666   0.75000   0.00000  Uiso   1.00
F673   F     0.36025   0.14848   0.56016   0.00000  Uiso   1.00
F674   F     0.62420   0.23310   0.95108   0.00000  Uiso   1.00
F675   F     0.53843   0.29141   0.80578   0.00000  Uiso   1.00
F676   F     0.46155   0.04191   0.69423   0.00000  Uiso   1.00
F677   F     0.53856   0.04259   0.80561   0.00000  Uiso   1.00
F678   F     0.46150   0.29073   0.69433   0.00000  Uiso   1.00
F679   F     0.64379   0.11616   0.69027   0.00000  Uiso   1.00
F680   F     0.35624   0.21725   0.80965   0.00000  Uiso   1.00
F681   F     0.40342   0.11593   0.69041   0.00000  Uiso   1.00
F682   F     0.59667   0.21760   0.80938   0.00000  Uiso   1.00
C683   C     0.83335   0.24661   0.75004   0.00000  Uiso   1.00
C684   C     0.83332   0.08672   0.74995   0.00000  Uiso   1.00
C685   C     0.77346   0.16648   0.55342   0.00000  Uiso   1.00
C686   C     0.88053   0.20848   0.95518   0.00000  Uiso   1.00
C687   C     0.73935   0.16119   0.53317   0.00000  Uiso   1.00
C688   C     0.91441   0.21410   0.97572   0.00000  Uiso   1.00
C689   C     0.85353   0.31205   0.77780   0.00000  Uiso   1.00
C690   C     0.81315   0.02127   0.72218   0.00000  Uiso   1.00
C691   C     0.85353   0.02160   0.77776   0.00000  Uiso   1.00
C692   C     0.81317   0.31172   0.72220   0.00000  Uiso   1.00
C693   C     0.83331   0.04260   0.74998   0.00000  Uiso   1.00
C694   C     0.83337   0.29073   0.75000   0.00000  Uiso   1.00
C695   C     0.98786   0.14142   0.72021   0.00000  Uiso   1.00
C696   C     0.67882   0.19195   0.77975   0.00000  Uiso   1.00
C697   C     0.70240   0.14139   0.72024   0.00000  Uiso   1.00
C698   C     0.96429   0.19201   0.77969   0.00000  Uiso   1.00
C699   C     0.80277   0.16724   0.83798   0.00000  Uiso   1.00
C700   C     0.86387   0.16696   0.66204   0.00000  Uiso   1.00
C701   C     0.78342   0.16957   0.88867   0.00000  Uiso   1.00
C702   C     0.88245   0.17279   0.61185   0.00000  Uiso   1.00
C703   C     0.71992   0.15761   0.96404   0.00000  Uiso   1.00
C704   C     0.93826   0.20541   0.54191   0.00000  Uiso   1.00
C705   C     0.73505   0.15919   0.91578   0.00000  Uiso   1.00
C706   C     0.92686   0.19284   0.58778   0.00000  Uiso   1.00
C707   C     0.81538   0.18109   0.90992   0.00000  Uiso   1.00
C708   C     0.85053   0.16438   0.58972   0.00000  Uiso   1.00
C709   C     0.80109   0.18024   0.95819   0.00000  Uiso   1.00
C710   C     0.85849   0.18081   0.54594   0.00000  Uiso   1.00
C711   C     0.75303   0.16669   0.98540   0.00000  Uiso   1.00
C712   C     0.90413   0.19999   0.52087   0.00000  Uiso   1.00
C713   C     0.83476   0.18922   0.97949   0.00000  Uiso   1.00
C714   C     0.82220   0.17839   0.52667   0.00000  Uiso   1.00
H715   H     0.81871   0.14574   0.60814   0.00000  Uiso   1.00
H716   H     0.85249   0.18819   0.88783   0.00000  Uiso   1.00
H717   H     0.95175   0.20006   0.60483   0.00000  Uiso   1.00
H718   H     0.70966   0.15068   0.89969   0.00000  Uiso   1.00
H719   H     0.68292   0.14778   0.98438   0.00000  Uiso   1.00
H720   H     0.97289   0.22076   0.52365   0.00000  Uiso   1.00
H721   H     0.76014   0.16203   0.59057   0.00000  Uiso   1.00
H722   H     0.89052   0.22108   0.92066   0.00000  Uiso   1.00
N723   N     0.71426   0.16668   0.75001   0.00000  Uiso   1.00
N724   N     0.95241   0.16666   0.74999   0.00000  Uiso   1.00
O725   O     0.79512   0.22775   0.75001   0.00000  Uiso   1.00
O726   O     0.87154   0.10558   0.75000   0.00000  Uiso   1.00
O727   O     0.87157   0.22774   0.75000   0.00000  Uiso   1.00
O728   O     0.79510   0.10559   0.75000   0.00000  Uiso   1.00
O729   O     0.77328   0.16667   0.81613   0.00000  Uiso   1.00
O730   O     0.89339   0.16666   0.68388   0.00000  Uiso   1.00
O731   O     0.84972   0.16666   0.81612   0.00000  Uiso   1.00
O732   O     0.81695   0.16667   0.68388   0.00000  Uiso   1.00
Zn733  Zn    0.78229   0.16667   0.75000   0.00000  Uiso   1.00
Zn734  Zn    0.88438   0.16666   0.75000   0.00000  Uiso   1.00
F735   F     0.69358   0.14848   0.56016   0.00000  Uiso   1.00
F736   F     0.95754   0.23310   0.95108   0.00000  Uiso   1.00
F737   F     0.87177   0.29141   0.80578   0.00000  Uiso   1.00
F738   F     0.79488   0.04191   0.69423   0.00000  Uiso   1.00
F739   F     0.87190   0.04259   0.80561   0.00000  Uiso   1.00
F740   F     0.79483   0.29073   0.69433   0.00000  Uiso   1.00
F741   F     0.97712   0.11616   0.69027   0.00000  Uiso   1.00
F742   F     0.68958   0.21725   0.80965   0.00000  Uiso   1.00
F743   F     0.73676   0.11593   0.69041   0.00000  Uiso   1.00
F744   F     0.93000   0.21760   0.80938   0.00000  Uiso   1.00
C745   C     0.16668   0.57994   0.75004   0.00000  Uiso   1.00
C746   C     0.16666   0.42005   0.74995   0.00000  Uiso   1.00
C747   C     0.10679   0.49981   0.55342   0.00000  Uiso   1.00
C748   C     0.21386   0.54181   0.95518   0.00000  Uiso   1.00
C749   C     0.07269   0.49453   0.53317   0.00000  Uiso   1.00
C750   C     0.24774   0.54743   0.97572   0.00000  Uiso   1.00
C751   C     0.18686   0.64539   0.77780   0.00000  Uiso   1.00
C752   C     0.14648   0.35460   0.72218   0.00000  Uiso   1.00
C753   C     0.18686   0.35494   0.77776   0.00000  Uiso   1.00
C754   C     0.14651   0.64505   0.72220   0.00000  Uiso   1.00
C755   C     0.16664   0.37593   0.74998   0.00000  Uiso   1.00
C756   C     0.16671   0.62406   0.75000   0.00000  Uiso   1.00
C757   C     0.32119   0.47475   0.72021   0.00000  Uiso   1.00
C758   C     0.01216   0.52529   0.77975   0.00000  Uiso   1.00
C759   C     0.03574   0.47472   0.72024   0.00000  Uiso   1.00
C760   C     0.29762   0.52534   0.77969   0.00000  Uiso   1.00
C761   C     0.13610   0.50058   0.83798   0.00000  Uiso   1.00
C762   C     0.19721   0.50029   0.66204   0.00000  Uiso   1.00
C763   C     0.11676   0.50291   0.88867   0.00000  Uiso   1.00
C764   C     0.21578   0.50612   0.61185   0.00000  Uiso   1.00
C765   C     0.05325   0.49094   0.96404   0.00000  Uiso   1.00
C766   C     0.27160   0.53875   0.54191   0.00000  Uiso   1.00
C767   C     0.06838   0.49252   0.91578   0.00000  Uiso   1.00
C768   C     0.26019   0.52618   0.58778   0.00000  Uiso   1.00
C769   C     0.14872   0.51442   0.90992   0.00000  Uiso   1.00
C770   C     0.18386   0.49772   0.58972   0.00000  Uiso   1.00
C771   C     0.13443   0.51357   0.95819   0.00000  Uiso   1.00
C772   C     0.19182   0.51414   0.54594   0.00000  Uiso   1.00
C773   C     0.08636   0.50002   0.98540   0.00000  Uiso   1.00
C774   C     0.23746   0.53332   0.52087   0.00000  Uiso   1.00
C775   C     0.16809   0.52256   0.97949   0.00000  Uiso   1.00
C776   C     0.15553   0.51172   0.52667   0.00000  Uiso   1.00
H777   H     0.15205   0.47908   0.60814   0.00000  Uiso   1.00
H778   H     0.18583   0.52152   0.88783   0.00000  Uiso   1.00
H779   H     0.28509   0.53339   0.60483   0.00000  Uiso   1.00
H780   H     0.04299   0.48402   0.89969   0.00000  Uiso   1.00
H781   H     0.01625   0.48112   0.98438   0.00000  Uiso   1.00
H782   H     0.30622   0.55409   0.52365   0.00000  Uiso   1.00
H783   H     0.09347   0.49536   0.59057   0.00000  Uiso   1.00
H784   H     0.22385   0.55442   0.92066   0.00000  Uiso   1.00
N785   N     0.04759   0.50001   0.75001   0.00000  Uiso   1.00
N786   N     0.28574   0.49999   0.74999   0.00000  Uiso   1.00
O787   O     0.12846   0.56108   0.75001   0.00000  Uiso   1.00
O788   O     0.20488   0.43892   0.75000   0.00000  Uiso   1.00
O789   O     0.20490   0.56107   0.75000   0.00000  Uiso   1.00
O790   O     0.12843   0.43893   0.75000   0.00000  Uiso   1.00
O791   O     0.10661   0.50001   0.81613   0.00000  Uiso   1.00
O792   O     0.22672   0.49999   0.68388   0.00000  Uiso   1.00
O793   O     0.18305   0.50000   0.81612   0.00000  Uiso   1.00
O794   O     0.15028   0.50000   0.68388   0.00000  Uiso   1.00
Zn795  Zn    0.11562   0.50001   0.75000   0.00000  Uiso   1.00
Zn796  Zn    0.21771   0.49999   0.75000   0.00000  Uiso   1.00
F797   F     0.02691   0.48181   0.56016   0.00000  Uiso   1.00
F798   F     0.29087   0.56643   0.95108   0.00000  Uiso   1.00
F799   F     0.20510   0.62474   0.80578   0.00000  Uiso   1.00
F800   F     0.12821   0.37524   0.69423   0.00000  Uiso   1.00
F801   F     0.20523   0.37592   0.80561   0.00000  Uiso   1.00
F802   F     0.12817   0.62406   0.69433   0.00000  Uiso   1.00
F803   F     0.31046   0.44950   0.69027   0.00000  Uiso   1.00
F804   F     0.02291   0.55058   0.80965   0.00000  Uiso   1.00
F805   F     0.07009   0.44926   0.69041   0.00000  Uiso   1.00
F806   F     0.26334   0.55093   0.80938   0.00000  Uiso   1.00
C807   C     0.50002   0.57994   0.75004   0.00000  Uiso   1.00
C808   C     0.49999   0.42005   0.74995   0.00000  Uiso   1.00
C809   C     0.44012   0.49981   0.55342   0.00000  Uiso   1.00
C810   C     0.54719   0.54181   0.95518   0.00000  Uiso   1.00
C811   C     0.40602   0.49453   0.53317   0.00000  Uiso   1.00
C812   C     0.58108   0.54743   0.97572   0.00000  Uiso   1.00
C813   C     0.52019   0.64539   0.77780   0.00000  Uiso   1.00
C814   C     0.47982   0.35460   0.72218   0.00000  Uiso   1.00
C815   C     0.52019   0.35494   0.77776   0.00000  Uiso   1.00
C816   C     0.47984   0.64505   0.72220   0.00000  Uiso   1.00
C817   C     0.49998   0.37593   0.74998   0.00000  Uiso   1.00
C818   C     0.50004   0.62406   0.75000   0.00000  Uiso   1.00
C819   C     0.65453   0.47475   0.72021   0.00000  Uiso   1.00
C820   C     0.34549   0.52529   0.77975   0.00000  Uiso   1.00
C821   C     0.36907   0.47472   0.72024   0.00000  Uiso   1.00
C822   C     0.63096   0.52534   0.77969   0.00000  Uiso   1.00
C823   C     0.46943   0.50058   0.83798   0.00000  Uiso   1.00
C824   C     0.53054   0.50029   0.66204   0.00000  Uiso   1.00
C825   C     0.45009   0.50291   0.88867   0.00000  Uiso   1.00
C826   C     0.54912   0.50612   0.61185   0.00000  Uiso   1.00
C827   C     0.38658   0.49094   0.96404   0.00000  Uiso   1.00
C828   C     0.60493   0.53875   0.54191   0.00000  Uiso   1.00
C829   C     0.40171   0.49252   0.91578   0.00000  Uiso   1.00
C830   C     0.59352   0.52618   0.58778   0.00000  Uiso   1.00
C831   C     0.48205   0.51442   0.90992   0.00000  Uiso   1.00
C832   C     0.51720   0.49772   0.58972   0.00000  Uiso   1.00
C833   C     0.46776   0.51357   0.95819   0.00000  Uiso   1.00
C834   C     0.52516   0.51414   0.54594   0.00000  Uiso   1.00
C835   C     0.41969   0.50002   0.98540   0.00000  Uiso   1.00
C836   C     0.57079   0.53332   0.52087   0.00000  Uiso   1.00
C837   C     0.50142   0.52256   0.97949   0.00000  Uiso   1.00
C838   C     0.48887   0.51172   0.52667   0.00000  Uiso   1.00
H839   H     0.48538   0.47908   0.60814   0.00000  Uiso   1.00
H840   H     0.51916   0.52152   0.88783   0.00000  Uiso   1.00
H841   H     0.61842   0.53339   0.60483   0.00000  Uiso   1.00
H842   H     0.37632   0.48402   0.89969   0.00000  Uiso   1.00
H843   H     0.34958   0.48112   0.98438   0.00000  Uiso   1.00
H844   H     0.63956   0.55409   0.52365   0.00000  Uiso   1.00
H845   H     0.42681   0.49536   0.59057   0.00000  Uiso   1.00
H846   H     0.55718   0.55442   0.92066   0.00000  Uiso   1.00
N847   N     0.38093   0.50001   0.75001   0.00000  Uiso   1.00
N848   N     0.61907   0.49999   0.74999   0.00000  Uiso   1.00
O849   O     0.46179   0.56108   0.75001   0.00000  Uiso   1.00
O850   O     0.53821   0.43892   0.75000   0.00000  Uiso   1.00
O851   O     0.53823   0.56107   0.75000   0.00000  Uiso   1.00
O852   O     0.46177   0.43893   0.75000   0.00000  Uiso   1.00
O853   O     0.43994   0.50001   0.81613   0.00000  Uiso   1.00
O854   O     0.56006   0.49999   0.68388   0.00000  Uiso   1.00
O855   O     0.51639   0.50000   0.81612   0.00000  Uiso   1.00
O856   O     0.48361   0.50000   0.68388   0.00000  Uiso   1.00
Zn857  Zn    0.44896   0.50001   0.75000   0.00000  Uiso   1.00
Zn858  Zn    0.55104   0.49999   0.75000   0.00000  Uiso   1.00
F859   F     0.36025   0.48181   0.56016   0.00000  Uiso   1.00
F860   F     0.62420   0.56643   0.95108   0.00000  Uiso   1.00
F861   F     0.53843   0.62474   0.80578   0.00000  Uiso   1.00
F862   F     0.46155   0.37524   0.69423   0.00000  Uiso   1.00
F863   F     0.53856   0.37592   0.80561   0.00000  Uiso   1.00
F864   F     0.46150   0.62406   0.69433   0.00000  Uiso   1.00
F865   F     0.64379   0.44950   0.69027   0.00000  Uiso   1.00
F866   F     0.35624   0.55058   0.80965   0.00000  Uiso   1.00
F867   F     0.40342   0.44926   0.69041   0.00000  Uiso   1.00
F868   F     0.59667   0.55093   0.80938   0.00000  Uiso   1.00
C869   C     0.83335   0.57994   0.75004   0.00000  Uiso   1.00
C870   C     0.83332   0.42005   0.74995   0.00000  Uiso   1.00
C871   C     0.77346   0.49981   0.55342   0.00000  Uiso   1.00
C872   C     0.88053   0.54181   0.95518   0.00000  Uiso   1.00
C873   C     0.73935   0.49453   0.53317   0.00000  Uiso   1.00
C874   C     0.91441   0.54743   0.97572   0.00000  Uiso   1.00
C875   C     0.85353   0.64539   0.77780   0.00000  Uiso   1.00
C876   C     0.81315   0.35460   0.72218   0.00000  Uiso   1.00
C877   C     0.85353   0.35494   0.77776   0.00000  Uiso   1.00
C878   C     0.81317   0.64505   0.72220   0.00000  Uiso   1.00
C879   C     0.83331   0.37593   0.74998   0.00000  Uiso   1.00
C880   C     0.83337   0.62406   0.75000   0.00000  Uiso   1.00
C881   C     0.98786   0.47475   0.72021   0.00000  Uiso   1.00
C882   C     0.67882   0.52529   0.77975   0.00000  Uiso   1.00
C883   C     0.70240   0.47472   0.72024   0.00000  Uiso   1.00
C884   C     0.96429   0.52534   0.77969   0.00000  Uiso   1.00
C885   C     0.80277   0.50058   0.83798   0.00000  Uiso   1.00
C886   C     0.86387   0.50029   0.66204   0.00000  Uiso   1.00
C887   C     0.78342   0.50291   0.88867   0.00000  Uiso   1.00
C888   C     0.88245   0.50612   0.61185   0.00000  Uiso   1.00
C889   C     0.71992   0.49094   0.96404   0.00000  Uiso   1.00
C890   C     0.93826   0.53875   0.54191   0.00000  Uiso   1.00
C891   C     0.73505   0.49252   0.91578   0.00000  Uiso   1.00
C892   C     0.92686   0.52618   0.58778   0.00000  Uiso   1.00
C893   C     0.81538   0.51442   0.90992   0.00000  Uiso   1.00
C894   C     0.85053   0.49772   0.58972   0.00000  Uiso   1.00
C895   C     0.80109   0.51357   0.95819   0.00000  Uiso   1.00
C896   C     0.85849   0.51414   0.54594   0.00000  Uiso   1.00
C897   C     0.75303   0.50002   0.98540   0.00000  Uiso   1.00
C898   C     0.90413   0.53332   0.52087   0.00000  Uiso   1.00
C899   C     0.83476   0.52256   0.97949   0.00000  Uiso   1.00
C900   C     0.82220   0.51172   0.52667   0.00000  Uiso   1.00
H901   H     0.81871   0.47908   0.60814   0.00000  Uiso   1.00
H902   H     0.85249   0.52152   0.88783   0.00000  Uiso   1.00
H903   H     0.95175   0.53339   0.60483   0.00000  Uiso   1.00
H904   H     0.70966   0.48402   0.89969   0.00000  Uiso   1.00
H905   H     0.68292   0.48112   0.98438   0.00000  Uiso   1.00
H906   H     0.97289   0.55409   0.52365   0.00000  Uiso   1.00
H907   H     0.76014   0.49536   0.59057   0.00000  Uiso   1.00
H908   H     0.89052   0.55442   0.92066   0.00000  Uiso   1.00
N909   N     0.71426   0.50001   0.75001   0.00000  Uiso   1.00
N910   N     0.95241   0.49999   0.74999   0.00000  Uiso   1.00
O911   O     0.79512   0.56108   0.75001   0.00000  Uiso   1.00
O912   O     0.87154   0.43892   0.75000   0.00000  Uiso   1.00
O913   O     0.87157   0.56107   0.75000   0.00000  Uiso   1.00
O914   O     0.79510   0.43893   0.75000   0.00000  Uiso   1.00
O915   O     0.77328   0.50001   0.81613   0.00000  Uiso   1.00
O916   O     0.89339   0.49999   0.68388   0.00000  Uiso   1.00
O917   O     0.84972   0.50000   0.81612   0.00000  Uiso   1.00
O918   O     0.81695   0.50000   0.68388   0.00000  Uiso   1.00
Zn919  Zn    0.78229   0.50001   0.75000   0.00000  Uiso   1.00
Zn920  Zn    0.88438   0.49999   0.75000   0.00000  Uiso   1.00
F921   F     0.69358   0.48181   0.56016   0.00000  Uiso   1.00
F922   F     0.95754   0.56643   0.95108   0.00000  Uiso   1.00
F923   F     0.87177   0.62474   0.80578   0.00000  Uiso   1.00
F924   F     0.79488   0.37524   0.69423   0.00000  Uiso   1.00
F925   F     0.87190   0.37592   0.80561   0.00000  Uiso   1.00
F926   F     0.79483   0.62406   0.69433   0.00000  Uiso   1.00
F927   F     0.97712   0.44950   0.69027   0.00000  Uiso   1.00
F928   F     0.68958   0.55058   0.80965   0.00000  Uiso   1.00
F929   F     0.73676   0.44926   0.69041   0.00000  Uiso   1.00
F930   F     0.93000   0.55093   0.80938   0.00000  Uiso   1.00
C931   C     0.16668   0.91328   0.75004   0.00000  Uiso   1.00
C932   C     0.16666   0.75339   0.74995   0.00000  Uiso   1.00
C933   C     0.10679   0.83314   0.55342   0.00000  Uiso   1.00
C934   C     0.21386   0.87515   0.95518   0.00000  Uiso   1.00
C935   C     0.07269   0.82786   0.53317   0.00000  Uiso   1.00
C936   C     0.24774   0.88076   0.97572   0.00000  Uiso   1.00
C937   C     0.18686   0.97872   0.77780   0.00000  Uiso   1.00
C938   C     0.14648   0.68794   0.72218   0.00000  Uiso   1.00
C939   C     0.18686   0.68827   0.77776   0.00000  Uiso   1.00
C940   C     0.14651   0.97838   0.72220   0.00000  Uiso   1.00
C941   C     0.16664   0.70927   0.74998   0.00000  Uiso   1.00
C942   C     0.16671   0.95739   0.75000   0.00000  Uiso   1.00
C943   C     0.32119   0.80808   0.72021   0.00000  Uiso   1.00
C944   C     0.01216   0.85862   0.77975   0.00000  Uiso   1.00
C945   C     0.03574   0.80805   0.72024   0.00000  Uiso   1.00
C946   C     0.29762   0.85868   0.77969   0.00000  Uiso   1.00
C947   C     0.13610   0.83391   0.83798   0.00000  Uiso   1.00
C948   C     0.19721   0.83363   0.66204   0.00000  Uiso   1.00
C949   C     0.11676   0.83624   0.88867   0.00000  Uiso   1.00
C950   C     0.21578   0.83945   0.61185   0.00000  Uiso   1.00
C951   C     0.05325   0.82427   0.96404   0.00000  Uiso   1.00
C952   C     0.27160   0.87208   0.54191   0.00000  Uiso   1.00
C953   C     0.06838   0.82586   0.91578   0.00000  Uiso   1.00
C954   C     0.26019   0.85951   0.58778   0.00000  Uiso   1.00
C955   C     0.14872   0.84776   0.90992   0.00000  Uiso   1.00
C956   C     0.18386   0.83105   0.58972   0.00000  Uiso   1.00
C957   C     0.13443   0.84690   0.95819   0.00000  Uiso   1.00
C958   C     0.19182   0.84748   0.54594   0.00000  Uiso   1.00
C959   C     0.08636   0.83336   0.98540   0.00000  Uiso   1.00
C960   C     0.23746   0.86666   0.52087   0.00000  Uiso   1.00
C961   C     0.16809   0.85589   0.97949   0.00000  Uiso   1.00
C962   C     0.15553   0.84505   0.52667   0.00000  Uiso   1.00
H963   H     0.15205   0.81241   0.60814   0.00000  Uiso   1.00
H964   H     0.18583   0.85485   0.88783   0.00000  Uiso   1.00
H965   H     0.28509   0.86672   0.60483   0.00000  Uiso   1.00
H966   H     0.04299   0.81735   0.89969   0.00000  Uiso   1.00
H967   H     0.01625   0.81445   0.98438   0.00000  Uiso   1.00
H968   H     0.30622   0.88743   0.52365   0.00000  Uiso   1.00
H969   H     0.09347   0.82869   0.59057   0.00000  Uiso   1.00
H970   H     0.22385   0.88775   0.92066   0.00000  Uiso   1.00
N971   N     0.04759   0.83334   0.75001   0.00000  Uiso   1.00
N972   N     0.28574   0.83332   0.74999   0.00000  Uiso   1.00
O973   O     0.12846   0.89442   0.75001   0.00000  Uiso   1.00
O974   O     0.20488   0.77225   0.75000   0.00000  Uiso   1.00
O975   O     0.20490   0.89441   0.75000   0.00000  Uiso   1.00
O976   O     0.12843   0.77226   0.75000   0.00000  Uiso   1.00
O977   O     0.10661   0.83334   0.81613   0.00000  Uiso   1.00
O978   O     0.22672   0.83333   0.68388   0.00000  Uiso   1.00
O979   O     0.18305   0.83333   0.81612   0.00000  Uiso   1.00
O980   O     0.15028   0.83334   0.68388   0.00000  Uiso   1.00
Zn981  Zn    0.11562   0.83334   0.75000   0.00000  Uiso   1.00
Zn982  Zn    0.21771   0.83333   0.75000   0.00000  Uiso   1.00
F983   F     0.02691   0.81514   0.56016   0.00000  Uiso   1.00
F984   F     0.29087   0.89977   0.95108   0.00000  Uiso   1.00
F985   F     0.20510   0.95808   0.80578   0.00000  Uiso   1.00
F986   F     0.12821   0.70858   0.69423   0.00000  Uiso   1.00
F987   F     0.20523   0.70926   0.80561   0.00000  Uiso   1.00
F988   F     0.12817   0.95739   0.69433   0.00000  Uiso   1.00
F989   F     0.31046   0.78283   0.69027   0.00000  Uiso   1.00
F990   F     0.02291   0.88391   0.80965   0.00000  Uiso   1.00
F991   F     0.07009   0.78260   0.69041   0.00000  Uiso   1.00
F992   F     0.26334   0.88427   0.80938   0.00000  Uiso   1.00
C993   C     0.50002   0.91328   0.75004   0.00000  Uiso   1.00
C994   C     0.49999   0.75339   0.74995   0.00000  Uiso   1.00
C995   C     0.44012   0.83314   0.55342   0.00000  Uiso   1.00
C996   C     0.54719   0.87515   0.95518   0.00000  Uiso   1.00
C997   C     0.40602   0.82786   0.53317   0.00000  Uiso   1.00
C998   C     0.58108   0.88076   0.97572   0.00000  Uiso   1.00
C999   C     0.52019   0.97872   0.77780   0.00000  Uiso   1.00
C1000  C     0.47982   0.68794   0.72218   0.00000  Uiso   1.00
C1001  C     0.52019   0.68827   0.77776   0.00000  Uiso   1.00
C1002  C     0.47984   0.97838   0.72220   0.00000  Uiso   1.00
C1003  C     0.49998   0.70927   0.74998   0.00000  Uiso   1.00
C1004  C     0.50004   0.95739   0.75000   0.00000  Uiso   1.00
C1005  C     0.65453   0.80808   0.72021   0.00000  Uiso   1.00
C1006  C     0.34549   0.85862   0.77975   0.00000  Uiso   1.00
C1007  C     0.36907   0.80805   0.72024   0.00000  Uiso   1.00
C1008  C     0.63096   0.85868   0.77969   0.00000  Uiso   1.00
C1009  C     0.46943   0.83391   0.83798   0.00000  Uiso   1.00
C1010  C     0.53054   0.83363   0.66204   0.00000  Uiso   1.00
C1011  C     0.45009   0.83624   0.88867   0.00000  Uiso   1.00
C1012  C     0.54912   0.83945   0.61185   0.00000  Uiso   1.00
C1013  C     0.38658   0.82427   0.96404   0.00000  Uiso   1.00
C1014  C     0.60493   0.87208   0.54191   0.00000  Uiso   1.00
C1015  C     0.40171   0.82586   0.91578   0.00000  Uiso   1.00
C1016  C     0.59352   0.85951   0.58778   0.00000  Uiso   1.00
C1017  C     0.48205   0.84776   0.90992   0.00000  Uiso   1.00
C1018  C     0.51720   0.83105   0.58972   0.00000  Uiso   1.00
C1019  C     0.46776   0.84690   0.95819   0.00000  Uiso   1.00
C1020  C     0.52516   0.84748   0.54594   0.00000  Uiso   1.00
C1021  C     0.41969   0.83336   0.98540   0.00000  Uiso   1.00
C1022  C     0.57079   0.86666   0.52087   0.00000  Uiso   1.00
C1023  C     0.50142   0.85589   0.97949   0.00000  Uiso   1.00
C1024  C     0.48887   0.84505   0.52667   0.00000  Uiso   1.00
H1025  H     0.48538   0.81241   0.60814   0.00000  Uiso   1.00
H1026  H     0.51916   0.85485   0.88783   0.00000  Uiso   1.00
H1027  H     0.61842   0.86672   0.60483   0.00000  Uiso   1.00
H1028  H     0.37632   0.81735   0.89969   0.00000  Uiso   1.00
H1029  H     0.34958   0.81445   0.98438   0.00000  Uiso   1.00
H1030  H     0.63956   0.88743   0.52365   0.00000  Uiso   1.00
H1031  H     0.42681   0.82869   0.59057   0.00000  Uiso   1.00
H1032  H     0.55718   0.88775   0.92066   0.00000  Uiso   1.00
N1033  N     0.38093   0.83334   0.75001   0.00000  Uiso   1.00
N1034  N     0.61907   0.83332   0.74999   0.00000  Uiso   1.00
O1035  O     0.46179   0.89442   0.75001   0.00000  Uiso   1.00
O1036  O     0.53821   0.77225   0.75000   0.00000  Uiso   1.00
O1037  O     0.53823   0.89441   0.75000   0.00000  Uiso   1.00
O1038  O     0.46177   0.77226   0.75000   0.00000  Uiso   1.00
O1039  O     0.43994   0.83334   0.81613   0.00000  Uiso   1.00
O1040  O     0.56006   0.83333   0.68388   0.00000  Uiso   1.00
O1041  O     0.51639   0.83333   0.81612   0.00000  Uiso   1.00
O1042  O     0.48361   0.83334   0.68388   0.00000  Uiso   1.00
Zn1043 Zn    0.44896   0.83334   0.75000   0.00000  Uiso   1.00
Zn1044 Zn    0.55104   0.83333   0.75000   0.00000  Uiso   1.00
F1045  F     0.36025   0.81514   0.56016   0.00000  Uiso   1.00
F1046  F     0.62420   0.89977   0.95108   0.00000  Uiso   1.00
F1047  F     0.53843   0.95808   0.80578   0.00000  Uiso   1.00
F1048  F     0.46155   0.70858   0.69423   0.00000  Uiso   1.00
F1049  F     0.53856   0.70926   0.80561   0.00000  Uiso   1.00
F1050  F     0.46150   0.95739   0.69433   0.00000  Uiso   1.00
F1051  F     0.64379   0.78283   0.69027   0.00000  Uiso   1.00
F1052  F     0.35624   0.88391   0.80965   0.00000  Uiso   1.00
F1053  F     0.40342   0.78260   0.69041   0.00000  Uiso   1.00
F1054  F     0.59667   0.88427   0.80938   0.00000  Uiso   1.00
C1055  C     0.83335   0.91328   0.75004   0.00000  Uiso   1.00
C1056  C     0.83332   0.75339   0.74995   0.00000  Uiso   1.00
C1057  C     0.77346   0.83314   0.55342   0.00000  Uiso   1.00
C1058  C     0.88053   0.87515   0.95518   0.00000  Uiso   1.00
C1059  C     0.73935   0.82786   0.53317   0.00000  Uiso   1.00
C1060  C     0.91441   0.88076   0.97572   0.00000  Uiso   1.00
C1061  C     0.85353   0.97872   0.77780   0.00000  Uiso   1.00
C1062  C     0.81315   0.68794   0.72218   0.00000  Uiso   1.00
C1063  C     0.85353   0.68827   0.77776   0.00000  Uiso   1.00
C1064  C     0.81317   0.97838   0.72220   0.00000  Uiso   1.00
C1065  C     0.83331   0.70927   0.74998   0.00000  Uiso   1.00
C1066  C     0.83337   0.95739   0.75000   0.00000  Uiso   1.00
C1067  C     0.98786   0.80808   0.72021   0.00000  Uiso   1.00
C1068  C     0.67882   0.85862   0.77975   0.00000  Uiso   1.00
C1069  C     0.70240   0.80805   0.72024   0.00000  Uiso   1.00
C1070  C     0.96429   0.85868   0.77969   0.00000  Uiso   1.00
C1071  C     0.80277   0.83391   0.83798   0.00000  Uiso   1.00
C1072  C     0.86387   0.83363   0.66204   0.00000  Uiso   1.00
C1073  C     0.78342   0.83624   0.88867   0.00000  Uiso   1.00
C1074  C     0.88245   0.83945   0.61185   0.00000  Uiso   1.00
C1075  C     0.71992   0.82427   0.96404   0.00000  Uiso   1.00
C1076  C     0.93826   0.87208   0.54191   0.00000  Uiso   1.00
C1077  C     0.73505   0.82586   0.91578   0.00000  Uiso   1.00
C1078  C     0.92686   0.85951   0.58778   0.00000  Uiso   1.00
C1079  C     0.81538   0.84776   0.90992   0.00000  Uiso   1.00
C1080  C     0.85053   0.83105   0.58972   0.00000  Uiso   1.00
C1081  C     0.80109   0.84690   0.95819   0.00000  Uiso   1.00
C1082  C     0.85849   0.84748   0.54594   0.00000  Uiso   1.00
C1083  C     0.75303   0.83336   0.98540   0.00000  Uiso   1.00
C1084  C     0.90413   0.86666   0.52087   0.00000  Uiso   1.00
C1085  C     0.83476   0.85589   0.97949   0.00000  Uiso   1.00
C1086  C     0.82220   0.84505   0.52667   0.00000  Uiso   1.00
H1087  H     0.81871   0.81241   0.60814   0.00000  Uiso   1.00
H1088  H     0.85249   0.85485   0.88783   0.00000  Uiso   1.00
H1089  H     0.95175   0.86672   0.60483   0.00000  Uiso   1.00
H1090  H     0.70966   0.81735   0.89969   0.00000  Uiso   1.00
H1091  H     0.68292   0.81445   0.98438   0.00000  Uiso   1.00
H1092  H     0.97289   0.88743   0.52365   0.00000  Uiso   1.00
H1093  H     0.76014   0.82869   0.59057   0.00000  Uiso   1.00
H1094  H     0.89052   0.88775   0.92066   0.00000  Uiso   1.00
N1095  N     0.71426   0.83334   0.75001   0.00000  Uiso   1.00
N1096  N     0.95241   0.83332   0.74999   0.00000  Uiso   1.00
O1097  O     0.79512   0.89442   0.75001   0.00000  Uiso   1.00
O1098  O     0.87154   0.77225   0.75000   0.00000  Uiso   1.00
O1099  O     0.87157   0.89441   0.75000   0.00000  Uiso   1.00
O1100  O     0.79510   0.77226   0.75000   0.00000  Uiso   1.00
O1101  O     0.77328   0.83334   0.81613   0.00000  Uiso   1.00
O1102  O     0.89339   0.83333   0.68388   0.00000  Uiso   1.00
O1103  O     0.84972   0.83333   0.81612   0.00000  Uiso   1.00
O1104  O     0.81695   0.83334   0.68388   0.00000  Uiso   1.00
Zn1105 Zn    0.78229   0.83334   0.75000   0.00000  Uiso   1.00
Zn1106 Zn    0.88438   0.83333   0.75000   0.00000  Uiso   1.00
F1107  F     0.69358   0.81514   0.56016   0.00000  Uiso   1.00
F1108  F     0.95754   0.89977   0.95108   0.00000  Uiso   1.00
F1109  F     0.87177   0.95808   0.80578   0.00000  Uiso   1.00
F1110  F     0.79488   0.70858   0.69423   0.00000  Uiso   1.00
F1111  F     0.87190   0.70926   0.80561   0.00000  Uiso   1.00
F1112  F     0.79483   0.95739   0.69433   0.00000  Uiso   1.00
F1113  F     0.97712   0.78283   0.69027   0.00000  Uiso   1.00
F1114  F     0.68958   0.88391   0.80965   0.00000  Uiso   1.00
F1115  F     0.73676   0.78260   0.69041   0.00000  Uiso   1.00
F1116  F     0.93000   0.88427   0.80938   0.00000  Uiso   1.00
loop_
_geom_bond_atom_site_label_1
_geom_bond_atom_site_label_2
_geom_bond_distance
_geom_bond_site_symmetry_2
_ccdc_geom_bond_type
C1     O45     1.283   .     A
C1     C12     1.412   .     S
C1     O43     1.283   .     A
C2     O46     1.283   .     A
C2     C11     1.412   .     S
C2     O44     1.283   .     A
C3     C5      1.388   .     A
C3     H39     1.078   .     S
C3     C32     1.417   .     A
C4     C31     1.418   .     A
C4     C6      1.390   .     A
C4     H40     1.078   .     S
C5     F53     1.358   .     S
C5     C587    1.394   1_554 S
C6     F54     1.359   .     S
C6     C588    1.394   .     S
C7     F55     1.359   .     S
C7     C12     1.398   .     A
C7     C195    1.373   .     S
C8     F56     1.359   .     S
C8     C11     1.398   .     A
C8     C382    1.373   1_545 S
C9     C11     1.398   .     A
C9     F57     1.359   .     S
C9     C379    1.373   1_545 S
C10    C12     1.398   .     A
C10    F58     1.359   .     S
C10    C194    1.373   .     S
C13    F59     1.355   .     S
C13    N42     1.366   .     A
C13    C77     1.418   .     S
C14    F60     1.355   .     S
C14    N41     1.366   .     A
C14    C140    1.418   1_455 S
C15    F61     1.355   .     S
C15    N41     1.369   .     A
C15    C137    1.418   1_455 S
C16    N42     1.369   .     A
C16    F62     1.355   .     S
C16    C76     1.418   .     S
C17    C19     1.458   .     S
C17    O49     1.295   .     A
C17    O47     1.294   .     A
C18    C20     1.456   .     S
C18    O50     1.294   .     A
C18    O48     1.294   .     A
C19    C23     1.399   .     A
C19    C25     1.393   .     A
C20    C26     1.389   .     A
C20    C24     1.398   .     A
C21    C23     1.393   .     A
C21    H37     1.083   .     S
C21    C29     1.406   .     A
C22    C24     1.395   .     A
C22    H38     1.083   .     S
C22    C30     1.407   .     A
C23    H36     1.083   .     S
C24    H35     1.083   .     S
C25    H34     1.076   .     S
C25    C27     1.395   .     A
C26    H33     1.078   .     S
C26    C28     1.394   .     A
C27    C29     1.420   .     A
C27    C31     1.419   .     A
C28    C30     1.418   .     A
C28    C32     1.417   .     A
C29    C563    1.394   .     S
C30    C564    1.394   1_554 S
C31    C590    1.413   .     S
C32    C589    1.413   1_554 S
N41    Zn51    2.014   .     S
N42    Zn52    2.014   .     S
O43    Zn51    1.991   .     S
O44    Zn52    1.991   .     S
O45    Zn52    1.992   .     S
O46    Zn51    1.992   .     S
O47    Zn51    1.968   .     S
O48    Zn52    1.968   .     S
O49    Zn52    1.915   .     S
O50    Zn51    1.915   .     S
C63    O107    1.283   .     A
C63    C74     1.412   .     S
C63    O105    1.283   .     A
C64    O108    1.283   .     A
C64    C73     1.412   .     S
C64    O106    1.283   .     A
C65    C67     1.388   .     A
C65    H101    1.078   .     S
C65    C94     1.417   .     A
C66    C93     1.418   .     A
C66    C68     1.390   .     A
C66    H102    1.078   .     S
C67    F115    1.358   .     S
C67    C649    1.394   1_554 S
C68    F116    1.359   .     S
C68    C650    1.394   .     S
C69    F117    1.359   .     S
C69    C74     1.398   .     A
C69    C257    1.373   .     S
C70    F118    1.359   .     S
C70    C73     1.398   .     A
C70    C444    1.373   1_545 S
C71    C73     1.398   .     A
C71    F119    1.359   .     S
C71    C441    1.373   1_545 S
C72    C74     1.398   .     A
C72    F120    1.359   .     S
C72    C256    1.373   .     S
C75    F121    1.355   .     S
C75    N104    1.366   .     A
C75    C139    1.418   .     S
C76    F122    1.355   .     S
C76    N103    1.366   .     A
C77    F123    1.355   .     S
C77    N103    1.369   .     A
C78    N104    1.369   .     A
C78    F124    1.355   .     S
C78    C138    1.418   .     S
C79    C81     1.458   .     S
C79    O111    1.295   .     A
C79    O109    1.294   .     A
C80    C82     1.456   .     S
C80    O112    1.294   .     A
C80    O110    1.294   .     A
C81    C85     1.399   .     A
C81    C87     1.393   .     A
C82    C88     1.389   .     A
C82    C86     1.398   .     A
C83    C85     1.393   .     A
C83    H99     1.083   .     S
C83    C91     1.406   .     A
C84    C86     1.395   .     A
C84    H100    1.083   .     S
C84    C92     1.407   .     A
C85    H98     1.083   .     S
C86    H97     1.083   .     S
C87    H96     1.076   .     S
C87    C89     1.395   .     A
C88    H95     1.078   .     S
C88    C90     1.394   .     A
C89    C91     1.420   .     A
C89    C93     1.419   .     A
C90    C92     1.418   .     A
C90    C94     1.417   .     A
C91    C625    1.394   .     S
C92    C626    1.394   1_554 S
C93    C652    1.413   .     S
C94    C651    1.413   1_554 S
N103   Zn113   2.014   .     S
N104   Zn114   2.014   .     S
O105   Zn113   1.991   .     S
O106   Zn114   1.991   .     S
O107   Zn114   1.992   .     S
O108   Zn113   1.992   .     S
O109   Zn113   1.968   .     S
O110   Zn114   1.968   .     S
O111   Zn114   1.915   .     S
O112   Zn113   1.915   .     S
C125   O169    1.283   .     A
C125   C136    1.412   .     S
C125   O167    1.283   .     A
C126   O170    1.283   .     A
C126   C135    1.412   .     S
C126   O168    1.283   .     A
C127   C129    1.388   .     A
C127   H163    1.078   .     S
C127   C156    1.417   .     A
C128   C155    1.418   .     A
C128   C130    1.390   .     A
C128   H164    1.078   .     S
C129   F177    1.358   .     S
C129   C711    1.394   1_554 S
C130   F178    1.359   .     S
C130   C712    1.394   .     S
C131   F179    1.359   .     S
C131   C136    1.398   .     A
C131   C319    1.373   .     S
C132   F180    1.359   .     S
C132   C135    1.398   .     A
C132   C506    1.373   1_545 S
C133   C135    1.398   .     A
C133   F181    1.359   .     S
C133   C503    1.373   1_545 S
C134   C136    1.398   .     A
C134   F182    1.359   .     S
C134   C318    1.373   .     S
C137   F183    1.355   .     S
C137   N166    1.366   .     A
C137   C15     1.418   1_655 S
C138   F184    1.355   .     S
C138   N165    1.366   .     A
C139   F185    1.355   .     S
C139   N165    1.369   .     A
C140   N166    1.369   .     A
C140   F186    1.355   .     S
C140   C14     1.418   1_655 S
C141   C143    1.458   .     S
C141   O173    1.295   .     A
C141   O171    1.294   .     A
C142   C144    1.456   .     S
C142   O174    1.294   .     A
C142   O172    1.294   .     A
C143   C147    1.399   .     A
C143   C149    1.393   .     A
C144   C150    1.389   .     A
C144   C148    1.398   .     A
C145   C147    1.393   .     A
C145   H161    1.083   .     S
C145   C153    1.406   .     A
C146   C148    1.395   .     A
C146   H162    1.083   .     S
C146   C154    1.407   .     A
C147   H160    1.083   .     S
C148   H159    1.083   .     S
C149   H158    1.076   .     S
C149   C151    1.395   .     A
C150   H157    1.078   .     S
C150   C152    1.394   .     A
C151   C153    1.420   .     A
C151   C155    1.419   .     A
C152   C154    1.418   .     A
C152   C156    1.417   .     A
C153   C687    1.394   .     S
C154   C688    1.394   1_554 S
C155   C714    1.413   .     S
C156   C713    1.413   1_554 S
N165   Zn175   2.014   .     S
N166   Zn176   2.014   .     S
O167   Zn175   1.991   .     S
O168   Zn176   1.991   .     S
O169   Zn176   1.992   .     S
O170   Zn175   1.992   .     S
O171   Zn175   1.968   .     S
O172   Zn176   1.968   .     S
O173   Zn176   1.915   .     S
O174   Zn175   1.915   .     S
C187   O231    1.283   .     A
C187   C198    1.412   .     S
C187   O229    1.283   .     A
C188   O232    1.283   .     A
C188   C197    1.412   .     S
C188   O230    1.283   .     A
C189   C191    1.388   .     A
C189   H225    1.078   .     S
C189   C218    1.417   .     A
C190   C217    1.418   .     A
C190   C192    1.390   .     A
C190   H226    1.078   .     S
C191   F239    1.358   .     S
C191   C773    1.394   1_554 S
C192   F240    1.359   .     S
C192   C774    1.394   .     S
C193   F241    1.359   .     S
C193   C198    1.398   .     A
C193   C381    1.373   .     S
C194   F242    1.359   .     S
C194   C197    1.398   .     A
C195   C197    1.398   .     A
C195   F243    1.359   .     S
C196   C198    1.398   .     A
C196   F244    1.359   .     S
C196   C380    1.373   .     S
C199   F245    1.355   .     S
C199   N228    1.366   .     A
C199   C263    1.418   .     S
C200   F246    1.355   .     S
C200   N227    1.366   .     A
C200   C326    1.418   1_455 S
C201   F247    1.355   .     S
C201   N227    1.369   .     A
C201   C323    1.418   1_455 S
C202   N228    1.369   .     A
C202   F248    1.355   .     S
C202   C262    1.418   .     S
C203   C205    1.458   .     S
C203   O235    1.295   .     A
C203   O233    1.294   .     A
C204   C206    1.456   .     S
C204   O236    1.294   .     A
C204   O234    1.294   .     A
C205   C209    1.399   .     A
C205   C211    1.393   .     A
C206   C212    1.389   .     A
C206   C210    1.398   .     A
C207   C209    1.393   .     A
C207   H223    1.083   .     S
C207   C215    1.406   .     A
C208   C210    1.395   .     A
C208   H224    1.083   .     S
C208   C216    1.407   .     A
C209   H222    1.083   .     S
C210   H221    1.083   .     S
C211   H220    1.076   .     S
C211   C213    1.395   .     A
C212   H219    1.078   .     S
C212   C214    1.394   .     A
C213   C215    1.420   .     A
C213   C217    1.419   .     A
C214   C216    1.418   .     A
C214   C218    1.417   .     A
C215   C749    1.394   .     S
C216   C750    1.394   1_554 S
C217   C776    1.413   .     S
C218   C775    1.413   1_554 S
N227   Zn237   2.014   .     S
N228   Zn238   2.014   .     S
O229   Zn237   1.991   .     S
O230   Zn238   1.991   .     S
O231   Zn238   1.992   .     S
O232   Zn237   1.992   .     S
O233   Zn237   1.968   .     S
O234   Zn238   1.968   .     S
O235   Zn238   1.915   .     S
O236   Zn237   1.915   .     S
C249   O293    1.283   .     A
C249   C260    1.412   .     S
C249   O291    1.283   .     A
C250   O294    1.283   .     A
C250   C259    1.412   .     S
C250   O292    1.283   .     A
C251   C253    1.388   .     A
C251   H287    1.078   .     S
C251   C280    1.417   .     A
C252   C279    1.418   .     A
C252   C254    1.390   .     A
C252   H288    1.078   .     S
C253   F301    1.358   .     S
C253   C835    1.394   1_554 S
C254   F302    1.359   .     S
C254   C836    1.394   .     S
C255   F303    1.359   .     S
C255   C260    1.398   .     A
C255   C443    1.373   .     S
C256   F304    1.359   .     S
C256   C259    1.398   .     A
C257   C259    1.398   .     A
C257   F305    1.359   .     S
C258   C260    1.398   .     A
C258   F306    1.359   .     S
C258   C442    1.373   .     S
C261   F307    1.355   .     S
C261   N290    1.366   .     A
C261   C325    1.418   .     S
C262   F308    1.355   .     S
C262   N289    1.366   .     A
C263   F309    1.355   .     S
C263   N289    1.369   .     A
C264   N290    1.369   .     A
C264   F310    1.355   .     S
C264   C324    1.418   .     S
C265   C267    1.458   .     S
C265   O297    1.295   .     A
C265   O295    1.294   .     A
C266   C268    1.456   .     S
C266   O298    1.294   .     A
C266   O296    1.294   .     A
C267   C271    1.399   .     A
C267   C273    1.393   .     A
C268   C274    1.389   .     A
C268   C272    1.398   .     A
C269   C271    1.393   .     A
C269   H285    1.083   .     S
C269   C277    1.406   .     A
C270   C272    1.395   .     A
C270   H286    1.083   .     S
C270   C278    1.407   .     A
C271   H284    1.083   .     S
C272   H283    1.083   .     S
C273   H282    1.076   .     S
C273   C275    1.395   .     A
C274   H281    1.078   .     S
C274   C276    1.394   .     A
C275   C277    1.420   .     A
C275   C279    1.419   .     A
C276   C278    1.418   .     A
C276   C280    1.417   .     A
C277   C811    1.394   .     S
C278   C812    1.394   1_554 S
C279   C838    1.413   .     S
C280   C837    1.413   1_554 S
N289   Zn299   2.014   .     S
N290   Zn300   2.014   .     S
O291   Zn299   1.991   .     S
O292   Zn300   1.991   .     S
O293   Zn300   1.992   .     S
O294   Zn299   1.992   .     S
O295   Zn299   1.968   .     S
O296   Zn300   1.968   .     S
O297   Zn300   1.915   .     S
O298   Zn299   1.915   .     S
C311   O355    1.283   .     A
C311   C322    1.412   .     S
C311   O353    1.283   .     A
C312   O356    1.283   .     A
C312   C321    1.412   .     S
C312   O354    1.283   .     A
C313   C315    1.388   .     A
C313   H349    1.078   .     S
C313   C342    1.417   .     A
C314   C341    1.418   .     A
C314   C316    1.390   .     A
C314   H350    1.078   .     S
C315   F363    1.358   .     S
C315   C897    1.394   1_554 S
C316   F364    1.359   .     S
C316   C898    1.394   .     S
C317   F365    1.359   .     S
C317   C322    1.398   .     A
C317   C505    1.373   .     S
C318   F366    1.359   .     S
C318   C321    1.398   .     A
C319   C321    1.398   .     A
C319   F367    1.359   .     S
C320   C322    1.398   .     A
C320   F368    1.359   .     S
C320   C504    1.373   .     S
C323   F369    1.355   .     S
C323   N352    1.366   .     A
C323   C201    1.418   1_655 S
C324   F370    1.355   .     S
C324   N351    1.366   .     A
C325   F371    1.355   .     S
C325   N351    1.369   .     A
C326   N352    1.369   .     A
C326   F372    1.355   .     S
C326   C200    1.418   1_655 S
C327   C329    1.458   .     S
C327   O359    1.295   .     A
C327   O357    1.294   .     A
C328   C330    1.456   .     S
C328   O360    1.294   .     A
C328   O358    1.294   .     A
C329   C333    1.399   .     A
C329   C335    1.393   .     A
C330   C336    1.389   .     A
C330   C334    1.398   .     A
C331   C333    1.393   .     A
C331   H347    1.083   .     S
C331   C339    1.406   .     A
C332   C334    1.395   .     A
C332   H348    1.083   .     S
C332   C340    1.407   .     A
C333   H346    1.083   .     S
C334   H345    1.083   .     S
C335   H344    1.076   .     S
C335   C337    1.395   .     A
C336   H343    1.078   .     S
C336   C338    1.394   .     A
C337   C339    1.420   .     A
C337   C341    1.419   .     A
C338   C340    1.418   .     A
C338   C342    1.417   .     A
C339   C873    1.394   .     S
C340   C874    1.394   1_554 S
C341   C900    1.413   .     S
C342   C899    1.413   1_554 S
N351   Zn361   2.014   .     S
N352   Zn362   2.014   .     S
O353   Zn361   1.991   .     S
O354   Zn362   1.991   .     S
O355   Zn362   1.992   .     S
O356   Zn361   1.992   .     S
O357   Zn361   1.968   .     S
O358   Zn362   1.968   .     S
O359   Zn362   1.915   .     S
O360   Zn361   1.915   .     S
C373   O417    1.283   .     A
C373   C384    1.412   .     S
C373   O415    1.283   .     A
C374   O418    1.283   .     A
C374   C383    1.412   .     S
C374   O416    1.283   .     A
C375   C377    1.388   .     A
C375   H411    1.078   .     S
C375   C404    1.417   .     A
C376   C403    1.418   .     A
C376   C378    1.390   .     A
C376   H412    1.078   .     S
C377   F425    1.358   .     S
C377   C959    1.394   1_554 S
C378   F426    1.359   .     S
C378   C960    1.394   .     S
C379   F427    1.359   .     S
C379   C384    1.398   .     A
C379   C9      1.373   1_565 S
C380   F428    1.359   .     S
C380   C383    1.398   .     A
C381   C383    1.398   .     A
C381   F429    1.359   .     S
C382   C384    1.398   .     A
C382   F430    1.359   .     S
C382   C8      1.373   1_565 S
C385   F431    1.355   .     S
C385   N414    1.366   .     A
C385   C449    1.418   .     S
C386   F432    1.355   .     S
C386   N413    1.366   .     A
C386   C512    1.418   1_455 S
C387   F433    1.355   .     S
C387   N413    1.369   .     A
C387   C509    1.418   1_455 S
C388   N414    1.369   .     A
C388   F434    1.355   .     S
C388   C448    1.418   .     S
C389   C391    1.458   .     S
C389   O421    1.295   .     A
C389   O419    1.294   .     A
C390   C392    1.456   .     S
C390   O422    1.294   .     A
C390   O420    1.294   .     A
C391   C395    1.399   .     A
C391   C397    1.393   .     A
C392   C398    1.389   .     A
C392   C396    1.398   .     A
C393   C395    1.393   .     A
C393   H409    1.083   .     S
C393   C401    1.406   .     A
C394   C396    1.395   .     A
C394   H410    1.083   .     S
C394   C402    1.407   .     A
C395   H408    1.083   .     S
C396   H407    1.083   .     S
C397   H406    1.076   .     S
C397   C399    1.395   .     A
C398   H405    1.078   .     S
C398   C400    1.394   .     A
C399   C401    1.420   .     A
C399   C403    1.419   .     A
C400   C402    1.418   .     A
C400   C404    1.417   .     A
C401   C935    1.394   .     S
C402   C936    1.394   1_554 S
C403   C962    1.413   .     S
C404   C961    1.413   1_554 S
N413   Zn423   2.014   .     S
N414   Zn424   2.014   .     S
O415   Zn423   1.991   .     S
O416   Zn424   1.991   .     S
O417   Zn424   1.992   .     S
O418   Zn423   1.992   .     S
O419   Zn423   1.968   .     S
O420   Zn424   1.968   .     S
O421   Zn424   1.915   .     S
O422   Zn423   1.915   .     S
C435   O479    1.283   .     A
C435   C446    1.412   .     S
C435   O477    1.283   .     A
C436   O480    1.283   .     A
C436   C445    1.412   .     S
C436   O478    1.283   .     A
C437   C439    1.388   .     A
C437   H473    1.078   .     S
C437   C466    1.417   .     A
C438   C465    1.418   .     A
C438   C440    1.390   .     A
C438   H474    1.078   .     S
C439   F487    1.358   .     S
C439   C1021   1.394   1_554 S
C440   F488    1.359   .     S
C440   C1022   1.394   .     S
C441   F489    1.359   .     S
C441   C446    1.398   .     A
C441   C71     1.373   1_565 S
C442   F490    1.359   .     S
C442   C445    1.398   .     A
C443   C445    1.398   .     A
C443   F491    1.359   .     S
C444   C446    1.398   .     A
C444   F492    1.359   .     S
C444   C70     1.373   1_565 S
C447   F493    1.355   .     S
C447   N476    1.366   .     A
C447   C511    1.418   .     S
C448   F494    1.355   .     S
C448   N475    1.366   .     A
C449   F495    1.355   .     S
C449   N475    1.369   .     A
C450   N476    1.369   .     A
C450   F496    1.355   .     S
C450   C510    1.418   .     S
C451   C453    1.458   .     S
C451   O483    1.295   .     A
C451   O481    1.294   .     A
C452   C454    1.456   .     S
C452   O484    1.294   .     A
C452   O482    1.294   .     A
C453   C457    1.399   .     A
C453   C459    1.393   .     A
C454   C460    1.389   .     A
C454   C458    1.398   .     A
C455   C457    1.393   .     A
C455   H471    1.083   .     S
C455   C463    1.406   .     A
C456   C458    1.395   .     A
C456   H472    1.083   .     S
C456   C464    1.407   .     A
C457   H470    1.083   .     S
C458   H469    1.083   .     S
C459   H468    1.076   .     S
C459   C461    1.395   .     A
C460   H467    1.078   .     S
C460   C462    1.394   .     A
C461   C463    1.420   .     A
C461   C465    1.419   .     A
C462   C464    1.418   .     A
C462   C466    1.417   .     A
C463   C997    1.394   .     S
C464   C998    1.394   1_554 S
C465   C1024   1.413   .     S
C466   C1023   1.413   1_554 S
N475   Zn485   2.014   .     S
N476   Zn486   2.014   .     S
O477   Zn485   1.991   .     S
O478   Zn486   1.991   .     S
O479   Zn486   1.992   .     S
O480   Zn485   1.992   .     S
O481   Zn485   1.968   .     S
O482   Zn486   1.968   .     S
O483   Zn486   1.915   .     S
O484   Zn485   1.915   .     S
C497   O541    1.283   .     A
C497   C508    1.412   .     S
C497   O539    1.283   .     A
C498   O542    1.283   .     A
C498   C507    1.412   .     S
C498   O540    1.283   .     A
C499   C501    1.388   .     A
C499   H535    1.078   .     S
C499   C528    1.417   .     A
C500   C527    1.418   .     A
C500   C502    1.390   .     A
C500   H536    1.078   .     S
C501   F549    1.358   .     S
C501   C1083   1.394   1_554 S
C502   F550    1.359   .     S
C502   C1084   1.394   .     S
C503   F551    1.359   .     S
C503   C508    1.398   .     A
C503   C133    1.373   1_565 S
C504   F552    1.359   .     S
C504   C507    1.398   .     A
C505   C507    1.398   .     A
C505   F553    1.359   .     S
C506   C508    1.398   .     A
C506   F554    1.359   .     S
C506   C132    1.373   1_565 S
C509   F555    1.355   .     S
C509   N538    1.366   .     A
C509   C387    1.418   1_655 S
C510   F556    1.355   .     S
C510   N537    1.366   .     A
C511   F557    1.355   .     S
C511   N537    1.369   .     A
C512   N538    1.369   .     A
C512   F558    1.355   .     S
C512   C386    1.418   1_655 S
C513   C515    1.458   .     S
C513   O545    1.295   .     A
C513   O543    1.294   .     A
C514   C516    1.456   .     S
C514   O546    1.294   .     A
C514   O544    1.294   .     A
C515   C519    1.399   .     A
C515   C521    1.393   .     A
C516   C522    1.389   .     A
C516   C520    1.398   .     A
C517   C519    1.393   .     A
C517   H533    1.083   .     S
C517   C525    1.406   .     A
C518   C520    1.395   .     A
C518   H534    1.083   .     S
C518   C526    1.407   .     A
C519   H532    1.083   .     S
C520   H531    1.083   .     S
C521   H530    1.076   .     S
C521   C523    1.395   .     A
C522   H529    1.078   .     S
C522   C524    1.394   .     A
C523   C525    1.420   .     A
C523   C527    1.419   .     A
C524   C526    1.418   .     A
C524   C528    1.417   .     A
C525   C1059   1.394   .     S
C526   C1060   1.394   1_554 S
C527   C1086   1.413   .     S
C528   C1085   1.413   1_554 S
N537   Zn547   2.014   .     S
N538   Zn548   2.014   .     S
O539   Zn547   1.991   .     S
O540   Zn548   1.991   .     S
O541   Zn548   1.992   .     S
O542   Zn547   1.992   .     S
O543   Zn547   1.968   .     S
O544   Zn548   1.968   .     S
O545   Zn548   1.915   .     S
O546   Zn547   1.915   .     S
C559   O603    1.283   .     A
C559   C570    1.412   .     S
C559   O601    1.283   .     A
C560   O604    1.283   .     A
C560   C569    1.412   .     S
C560   O602    1.283   .     A
C561   C563    1.388   .     A
C561   H597    1.078   .     S
C561   C590    1.417   .     A
C562   C589    1.418   .     A
C562   C564    1.390   .     A
C562   H598    1.078   .     S
C563   F611    1.358   .     S
C564   F612    1.359   .     S
C564   C30     1.394   1_556 S
C565   F613    1.359   .     S
C565   C570    1.398   .     A
C565   C753    1.373   .     S
C566   F614    1.359   .     S
C566   C569    1.398   .     A
C566   C940    1.373   1_545 S
C567   C569    1.398   .     A
C567   F615    1.359   .     S
C567   C937    1.373   1_545 S
C568   C570    1.398   .     A
C568   F616    1.359   .     S
C568   C752    1.373   .     S
C571   F617    1.355   .     S
C571   N600    1.366   .     A
C571   C635    1.418   .     S
C572   F618    1.355   .     S
C572   N599    1.366   .     A
C572   C698    1.418   1_455 S
C573   F619    1.355   .     S
C573   N599    1.369   .     A
C573   C695    1.418   1_455 S
C574   N600    1.369   .     A
C574   F620    1.355   .     S
C574   C634    1.418   .     S
C575   C577    1.458   .     S
C575   O607    1.295   .     A
C575   O605    1.294   .     A
C576   C578    1.456   .     S
C576   O608    1.294   .     A
C576   O606    1.294   .     A
C577   C581    1.399   .     A
C577   C583    1.393   .     A
C578   C584    1.389   .     A
C578   C582    1.398   .     A
C579   C581    1.393   .     A
C579   H595    1.083   .     S
C579   C587    1.406   .     A
C580   C582    1.395   .     A
C580   H596    1.083   .     S
C580   C588    1.407   .     A
C581   H594    1.083   .     S
C582   H593    1.083   .     S
C583   H592    1.076   .     S
C583   C585    1.395   .     A
C584   H591    1.078   .     S
C584   C586    1.394   .     A
C585   C587    1.420   .     A
C585   C589    1.419   .     A
C586   C588    1.418   .     A
C586   C590    1.417   .     A
C587   C5      1.394   1_556 S
C589   C32     1.413   1_556 S
N599   Zn609   2.014   .     S
N600   Zn610   2.014   .     S
O601   Zn609   1.991   .     S
O602   Zn610   1.991   .     S
O603   Zn610   1.992   .     S
O604   Zn609   1.992   .     S
O605   Zn609   1.968   .     S
O606   Zn610   1.968   .     S
O607   Zn610   1.915   .     S
O608   Zn609   1.915   .     S
C621   O665    1.283   .     A
C621   C632    1.412   .     S
C621   O663    1.283   .     A
C622   O666    1.283   .     A
C622   C631    1.412   .     S
C622   O664    1.283   .     A
C623   C625    1.388   .     A
C623   H659    1.078   .     S
C623   C652    1.417   .     A
C624   C651    1.418   .     A
C624   C626    1.390   .     A
C624   H660    1.078   .     S
C625   F673    1.358   .     S
C626   F674    1.359   .     S
C626   C92     1.394   1_556 S
C627   F675    1.359   .     S
C627   C632    1.398   .     A
C627   C815    1.373   .     S
C628   F676    1.359   .     S
C628   C631    1.398   .     A
C628   C1002   1.373   1_545 S
C629   C631    1.398   .     A
C629   F677    1.359   .     S
C629   C999    1.373   1_545 S
C630   C632    1.398   .     A
C630   F678    1.359   .     S
C630   C814    1.373   .     S
C633   F679    1.355   .     S
C633   N662    1.366   .     A
C633   C697    1.418   .     S
C634   F680    1.355   .     S
C634   N661    1.366   .     A
C635   F681    1.355   .     S
C635   N661    1.369   .     A
C636   N662    1.369   .     A
C636   F682    1.355   .     S
C636   C696    1.418   .     S
C637   C639    1.458   .     S
C637   O669    1.295   .     A
C637   O667    1.294   .     A
C638   C640    1.456   .     S
C638   O670    1.294   .     A
C638   O668    1.294   .     A
C639   C643    1.399   .     A
C639   C645    1.393   .     A
C640   C646    1.389   .     A
C640   C644    1.398   .     A
C641   C643    1.393   .     A
C641   H657    1.083   .     S
C641   C649    1.406   .     A
C642   C644    1.395   .     A
C642   H658    1.083   .     S
C642   C650    1.407   .     A
C643   H656    1.083   .     S
C644   H655    1.083   .     S
C645   H654    1.076   .     S
C645   C647    1.395   .     A
C646   H653    1.078   .     S
C646   C648    1.394   .     A
C647   C649    1.420   .     A
C647   C651    1.419   .     A
C648   C650    1.418   .     A
C648   C652    1.417   .     A
C649   C67     1.394   1_556 S
C651   C94     1.413   1_556 S
N661   Zn671   2.014   .     S
N662   Zn672   2.014   .     S
O663   Zn671   1.991   .     S
O664   Zn672   1.991   .     S
O665   Zn672   1.992   .     S
O666   Zn671   1.992   .     S
O667   Zn671   1.968   .     S
O668   Zn672   1.968   .     S
O669   Zn672   1.915   .     S
O670   Zn671   1.915   .     S
C683   O727    1.283   .     A
C683   C694    1.412   .     S
C683   O725    1.283   .     A
C684   O728    1.283   .     A
C684   C693    1.412   .     S
C684   O726    1.283   .     A
C685   C687    1.388   .     A
C685   H721    1.078   .     S
C685   C714    1.417   .     A
C686   C713    1.418   .     A
C686   C688    1.390   .     A
C686   H722    1.078   .     S
C687   F735    1.358   .     S
C688   F736    1.359   .     S
C688   C154    1.394   1_556 S
C689   F737    1.359   .     S
C689   C694    1.398   .     A
C689   C877    1.373   .     S
C690   F738    1.359   .     S
C690   C693    1.398   .     A
C690   C1064   1.373   1_545 S
C691   C693    1.398   .     A
C691   F739    1.359   .     S
C691   C1061   1.373   1_545 S
C692   C694    1.398   .     A
C692   F740    1.359   .     S
C692   C876    1.373   .     S
C695   F741    1.355   .     S
C695   N724    1.366   .     A
C695   C573    1.418   1_655 S
C696   F742    1.355   .     S
C696   N723    1.366   .     A
C697   F743    1.355   .     S
C697   N723    1.369   .     A
C698   N724    1.369   .     A
C698   F744    1.355   .     S
C698   C572    1.418   1_655 S
C699   C701    1.458   .     S
C699   O731    1.295   .     A
C699   O729    1.294   .     A
C700   C702    1.456   .     S
C700   O732    1.294   .     A
C700   O730    1.294   .     A
C701   C705    1.399   .     A
C701   C707    1.393   .     A
C702   C708    1.389   .     A
C702   C706    1.398   .     A
C703   C705    1.393   .     A
C703   H719    1.083   .     S
C703   C711    1.406   .     A
C704   C706    1.395   .     A
C704   H720    1.083   .     S
C704   C712    1.407   .     A
C705   H718    1.083   .     S
C706   H717    1.083   .     S
C707   H716    1.076   .     S
C707   C709    1.395   .     A
C708   H715    1.078   .     S
C708   C710    1.394   .     A
C709   C711    1.420   .     A
C709   C713    1.419   .     A
C710   C712    1.418   .     A
C710   C714    1.417   .     A
C711   C129    1.394   1_556 S
C713   C156    1.413   1_556 S
N723   Zn733   2.014   .     S
N724   Zn734   2.014   .     S
O725   Zn733   1.991   .     S
O726   Zn734   1.991   .     S
O727   Zn734   1.992   .     S
O728   Zn733   1.992   .     S
O729   Zn733   1.968   .     S
O730   Zn734   1.968   .     S
O731   Zn734   1.915   .     S
O732   Zn733   1.915   .     S
C745   O789    1.283   .     A
C745   C756    1.412   .     S
C745   O787    1.283   .     A
C746   O790    1.283   .     A
C746   C755    1.412   .     S
C746   O788    1.283   .     A
C747   C749    1.388   .     A
C747   H783    1.078   .     S
C747   C776    1.417   .     A
C748   C775    1.418   .     A
C748   C750    1.390   .     A
C748   H784    1.078   .     S
C749   F797    1.358   .     S
C750   F798    1.359   .     S
C750   C216    1.394   1_556 S
C751   F799    1.359   .     S
C751   C756    1.398   .     A
C751   C939    1.373   .     S
C752   F800    1.359   .     S
C752   C755    1.398   .     A
C753   C755    1.398   .     A
C753   F801    1.359   .     S
C754   C756    1.398   .     A
C754   F802    1.359   .     S
C754   C938    1.373   .     S
C757   F803    1.355   .     S
C757   N786    1.366   .     A
C757   C821    1.418   .     S
C758   F804    1.355   .     S
C758   N785    1.366   .     A
C758   C884    1.418   1_455 S
C759   F805    1.355   .     S
C759   N785    1.369   .     A
C759   C881    1.418   1_455 S
C760   N786    1.369   .     A
C760   F806    1.355   .     S
C760   C820    1.418   .     S
C761   C763    1.458   .     S
C761   O793    1.295   .     A
C761   O791    1.294   .     A
C762   C764    1.456   .     S
C762   O794    1.294   .     A
C762   O792    1.294   .     A
C763   C767    1.399   .     A
C763   C769    1.393   .     A
C764   C770    1.389   .     A
C764   C768    1.398   .     A
C765   C767    1.393   .     A
C765   H781    1.083   .     S
C765   C773    1.406   .     A
C766   C768    1.395   .     A
C766   H782    1.083   .     S
C766   C774    1.407   .     A
C767   H780    1.083   .     S
C768   H779    1.083   .     S
C769   H778    1.076   .     S
C769   C771    1.395   .     A
C770   H777    1.078   .     S
C770   C772    1.394   .     A
C771   C773    1.420   .     A
C771   C775    1.419   .     A
C772   C774    1.418   .     A
C772   C776    1.417   .     A
C773   C191    1.394   1_556 S
C775   C218    1.413   1_556 S
N785   Zn795   2.014   .     S
N786   Zn796   2.014   .     S
O787   Zn795   1.991   .     S
O788   Zn796   1.991   .     S
O789   Zn796   1.992   .     S
O790   Zn795   1.992   .     S
O791   Zn795   1.968   .     S
O792   Zn796   1.968   .     S
O793   Zn796   1.915   .     S
O794   Zn795   1.915   .     S
C807   O851    1.283   .     A
C807   C818    1.412   .     S
C807   O849    1.283   .     A
C808   O852    1.283   .     A
C808   C817    1.412   .     S
C808   O850    1.283   .     A
C809   C811    1.388   .     A
C809   H845    1.078   .     S
C809   C838    1.417   .     A
C810   C837    1.418   .     A
C810   C812    1.390   .     A
C810   H846    1.078   .     S
C811   F859    1.358   .     S
C812   F860    1.359   .     S
C812   C278    1.394   1_556 S
C813   F861    1.359   .     S
C813   C818    1.398   .     A
C813   C1001   1.373   .     S
C814   F862    1.359   .     S
C814   C817    1.398   .     A
C815   C817    1.398   .     A
C815   F863    1.359   .     S
C816   C818    1.398   .     A
C816   F864    1.359   .     S
C816   C1000   1.373   .     S
C819   F865    1.355   .     S
C819   N848    1.366   .     A
C819   C883    1.418   .     S
C820   F866    1.355   .     S
C820   N847    1.366   .     A
C821   F867    1.355   .     S
C821   N847    1.369   .     A
C822   N848    1.369   .     A
C822   F868    1.355   .     S
C822   C882    1.418   .     S
C823   C825    1.458   .     S
C823   O855    1.295   .     A
C823   O853    1.294   .     A
C824   C826    1.456   .     S
C824   O856    1.294   .     A
C824   O854    1.294   .     A
C825   C829    1.399   .     A
C825   C831    1.393   .     A
C826   C832    1.389   .     A
C826   C830    1.398   .     A
C827   C829    1.393   .     A
C827   H843    1.083   .     S
C827   C835    1.406   .     A
C828   C830    1.395   .     A
C828   H844    1.083   .     S
C828   C836    1.407   .     A
C829   H842    1.083   .     S
C830   H841    1.083   .     S
C831   H840    1.076   .     S
C831   C833    1.395   .     A
C832   H839    1.078   .     S
C832   C834    1.394   .     A
C833   C835    1.420   .     A
C833   C837    1.419   .     A
C834   C836    1.418   .     A
C834   C838    1.417   .     A
C835   C253    1.394   1_556 S
C837   C280    1.413   1_556 S
N847   Zn857   2.014   .     S
N848   Zn858   2.014   .     S
O849   Zn857   1.991   .     S
O850   Zn858   1.991   .     S
O851   Zn858   1.992   .     S
O852   Zn857   1.992   .     S
O853   Zn857   1.968   .     S
O854   Zn858   1.968   .     S
O855   Zn858   1.915   .     S
O856   Zn857   1.915   .     S
C869   O913    1.283   .     A
C869   C880    1.412   .     S
C869   O911    1.283   .     A
C870   O914    1.283   .     A
C870   C879    1.412   .     S
C870   O912    1.283   .     A
C871   C873    1.388   .     A
C871   H907    1.078   .     S
C871   C900    1.417   .     A
C872   C899    1.418   .     A
C872   C874    1.390   .     A
C872   H908    1.078   .     S
C873   F921    1.358   .     S
C874   F922    1.359   .     S
C874   C340    1.394   1_556 S
C875   F923    1.359   .     S
C875   C880    1.398   .     A
C875   C1063   1.373   .     S
C876   F924    1.359   .     S
C876   C879    1.398   .     A
C877   C879    1.398   .     A
C877   F925    1.359   .     S
C878   C880    1.398   .     A
C878   F926    1.359   .     S
C878   C1062   1.373   .     S
C881   F927    1.355   .     S
C881   N910    1.366   .     A
C881   C759    1.418   1_655 S
C882   F928    1.355   .     S
C882   N909    1.366   .     A
C883   F929    1.355   .     S
C883   N909    1.369   .     A
C884   N910    1.369   .     A
C884   F930    1.355   .     S
C884   C758    1.418   1_655 S
C885   C887    1.458   .     S
C885   O917    1.295   .     A
C885   O915    1.294   .     A
C886   C888    1.456   .     S
C886   O918    1.294   .     A
C886   O916    1.294   .     A
C887   C891    1.399   .     A
C887   C893    1.393   .     A
C888   C894    1.389   .     A
C888   C892    1.398   .     A
C889   C891    1.393   .     A
C889   H905    1.083   .     S
C889   C897    1.406   .     A
C890   C892    1.395   .     A
C890   H906    1.083   .     S
C890   C898    1.407   .     A
C891   H904    1.083   .     S
C892   H903    1.083   .     S
C893   H902    1.076   .     S
C893   C895    1.395   .     A
C894   H901    1.078   .     S
C894   C896    1.394   .     A
C895   C897    1.420   .     A
C895   C899    1.419   .     A
C896   C898    1.418   .     A
C896   C900    1.417   .     A
C897   C315    1.394   1_556 S
C899   C342    1.413   1_556 S
N909   Zn919   2.014   .     S
N910   Zn920   2.014   .     S
O911   Zn919   1.991   .     S
O912   Zn920   1.991   .     S
O913   Zn920   1.992   .     S
O914   Zn919   1.992   .     S
O915   Zn919   1.968   .     S
O916   Zn920   1.968   .     S
O917   Zn920   1.915   .     S
O918   Zn919   1.915   .     S
C931   O975    1.283   .     A
C931   C942    1.412   .     S
C931   O973    1.283   .     A
C932   O976    1.283   .     A
C932   C941    1.412   .     S
C932   O974    1.283   .     A
C933   C935    1.388   .     A
C933   H969    1.078   .     S
C933   C962    1.417   .     A
C934   C961    1.418   .     A
C934   C936    1.390   .     A
C934   H970    1.078   .     S
C935   F983    1.358   .     S
C936   F984    1.359   .     S
C936   C402    1.394   1_556 S
C937   F985    1.359   .     S
C937   C942    1.398   .     A
C937   C567    1.373   1_565 S
C938   F986    1.359   .     S
C938   C941    1.398   .     A
C939   C941    1.398   .     A
C939   F987    1.359   .     S
C940   C942    1.398   .     A
C940   F988    1.359   .     S
C940   C566    1.373   1_565 S
C943   F989    1.355   .     S
C943   N972    1.366   .     A
C943   C1007   1.418   .     S
C944   F990    1.355   .     S
C944   N971    1.366   .     A
C944   C1070   1.418   1_455 S
C945   F991    1.355   .     S
C945   N971    1.369   .     A
C945   C1067   1.418   1_455 S
C946   N972    1.369   .     A
C946   F992    1.355   .     S
C946   C1006   1.418   .     S
C947   C949    1.458   .     S
C947   O979    1.295   .     A
C947   O977    1.294   .     A
C948   C950    1.456   .     S
C948   O980    1.294   .     A
C948   O978    1.294   .     A
C949   C953    1.399   .     A
C949   C955    1.393   .     A
C950   C956    1.389   .     A
C950   C954    1.398   .     A
C951   C953    1.393   .     A
C951   H967    1.083   .     S
C951   C959    1.406   .     A
C952   C954    1.395   .     A
C952   H968    1.083   .     S
C952   C960    1.407   .     A
C953   H966    1.083   .     S
C954   H965    1.083   .     S
C955   H964    1.076   .     S
C955   C957    1.395   .     A
C956   H963    1.078   .     S
C956   C958    1.394   .     A
C957   C959    1.420   .     A
C957   C961    1.419   .     A
C958   C960    1.418   .     A
C958   C962    1.417   .     A
C959   C377    1.394   1_556 S
C961   C404    1.413   1_556 S
N971   Zn981   2.014   .     S
N972   Zn982   2.014   .     S
O973   Zn981   1.991   .     S
O974   Zn982   1.991   .     S
O975   Zn982   1.992   .     S
O976   Zn981   1.992   .     S
O977   Zn981   1.968   .     S
O978   Zn982   1.968   .     S
O979   Zn982   1.915   .     S
O980   Zn981   1.915   .     S
C993   O1037   1.283   .     A
C993   C1004   1.412   .     S
C993   O1035   1.283   .     A
C994   O1038   1.283   .     A
C994   C1003   1.412   .     S
C994   O1036   1.283   .     A
C995   C997    1.388   .     A
C995   H1031   1.078   .     S
C995   C1024   1.417   .     A
C996   C1023   1.418   .     A
C996   C998    1.390   .     A
C996   H1032   1.078   .     S
C997   F1045   1.358   .     S
C998   F1046   1.359   .     S
C998   C464    1.394   1_556 S
C999   F1047   1.359   .     S
C999   C1004   1.398   .     A
C999   C629    1.373   1_565 S
C1000  F1048   1.359   .     S
C1000  C1003   1.398   .     A
C1001  C1003   1.398   .     A
C1001  F1049   1.359   .     S
C1002  C1004   1.398   .     A
C1002  F1050   1.359   .     S
C1002  C628    1.373   1_565 S
C1005  F1051   1.355   .     S
C1005  N1034   1.366   .     A
C1005  C1069   1.418   .     S
C1006  F1052   1.355   .     S
C1006  N1033   1.366   .     A
C1007  F1053   1.355   .     S
C1007  N1033   1.369   .     A
C1008  N1034   1.369   .     A
C1008  F1054   1.355   .     S
C1008  C1068   1.418   .     S
C1009  C1011   1.458   .     S
C1009  O1041   1.295   .     A
C1009  O1039   1.294   .     A
C1010  C1012   1.456   .     S
C1010  O1042   1.294   .     A
C1010  O1040   1.294   .     A
C1011  C1015   1.399   .     A
C1011  C1017   1.393   .     A
C1012  C1018   1.389   .     A
C1012  C1016   1.398   .     A
C1013  C1015   1.393   .     A
C1013  H1029   1.083   .     S
C1013  C1021   1.406   .     A
C1014  C1016   1.395   .     A
C1014  H1030   1.083   .     S
C1014  C1022   1.407   .     A
C1015  H1028   1.083   .     S
C1016  H1027   1.083   .     S
C1017  H1026   1.076   .     S
C1017  C1019   1.395   .     A
C1018  H1025   1.078   .     S
C1018  C1020   1.394   .     A
C1019  C1021   1.420   .     A
C1019  C1023   1.419   .     A
C1020  C1022   1.418   .     A
C1020  C1024   1.417   .     A
C1021  C439    1.394   1_556 S
C1023  C466    1.413   1_556 S
N1033  Zn1043  2.014   .     S
N1034  Zn1044  2.014   .     S
O1035  Zn1043  1.991   .     S
O1036  Zn1044  1.991   .     S
O1037  Zn1044  1.992   .     S
O1038  Zn1043  1.992   .     S
O1039  Zn1043  1.968   .     S
O1040  Zn1044  1.968   .     S
O1041  Zn1044  1.915   .     S
O1042  Zn1043  1.915   .     S
C1055  O1099   1.283   .     A
C1055  C1066   1.412   .     S
C1055  O1097   1.283   .     A
C1056  O1100   1.283   .     A
C1056  C1065   1.412   .     S
C1056  O1098   1.283   .     A
C1057  C1059   1.388   .     A
C1057  H1093   1.078   .     S
C1057  C1086   1.417   .     A
C1058  C1085   1.418   .     A
C1058  C1060   1.390   .     A
C1058  H1094   1.078   .     S
C1059  F1107   1.358   .     S
C1060  F1108   1.359   .     S
C1060  C526    1.394   1_556 S
C1061  F1109   1.359   .     S
C1061  C1066   1.398   .     A
C1061  C691    1.373   1_565 S
C1062  F1110   1.359   .     S
C1062  C1065   1.398   .     A
C1063  C1065   1.398   .     A
C1063  F1111   1.359   .     S
C1064  C1066   1.398   .     A
C1064  F1112   1.359   .     S
C1064  C690    1.373   1_565 S
C1067  F1113   1.355   .     S
C1067  N1096   1.366   .     A
C1067  C945    1.418   1_655 S
C1068  F1114   1.355   .     S
C1068  N1095   1.366   .     A
C1069  F1115   1.355   .     S
C1069  N1095   1.369   .     A
C1070  N1096   1.369   .     A
C1070  F1116   1.355   .     S
C1070  C944    1.418   1_655 S
C1071  C1073   1.458   .     S
C1071  O1103   1.295   .     A
C1071  O1101   1.294   .     A
C1072  C1074   1.456   .     S
C1072  O1104   1.294   .     A
C1072  O1102   1.294   .     A
C1073  C1077   1.399   .     A
C1073  C1079   1.393   .     A
C1074  C1080   1.389   .     A
C1074  C1078   1.398   .     A
C1075  C1077   1.393   .     A
C1075  H1091   1.083   .     S
C1075  C1083   1.406   .     A
C1076  C1078   1.395   .     A
C1076  H1092   1.083   .     S
C1076  C1084   1.407   .     A
C1077  H1090   1.083   .     S
C1078  H1089   1.083   .     S
C1079  H1088   1.076   .     S
C1079  C1081   1.395   .     A
C1080  H1087   1.078   .     S
C1080  C1082   1.394   .     A
C1081  C1083   1.420   .     A
C1081  C1085   1.419   .     A
C1082  C1084   1.418   .     A
C1082  C1086   1.417   .     A
C1083  C501    1.394   1_556 S
C1085  C528    1.413   1_556 S
N1095  Zn1105  2.014   .     S
N1096  Zn1106  2.014   .     S
O1097  Zn1105  1.991   .     S
O1098  Zn1106  1.991   .     S
O1099  Zn1106  1.992   .     S
O1100  Zn1105  1.992   .     S
O1101  Zn1105  1.968   .     S
O1102  Zn1106  1.968   .     S
O1103  Zn1106  1.915   .     S
O1104  Zn1105  1.915   .     S
