data_str_m3_o10_o16_pcu_sym.132
_audit_creation_date              2020-01-03
_audit_creation_method            'Materials Studio'
_symmetry_space_group_name_H-M    'P1'
_symmetry_Int_Tables_number       1
_symmetry_cell_setting            triclinic
loop_
_symmetry_equiv_pos_as_xyz
  x,y,z
_cell_length_a                    23.4636
_cell_length_b                    25.7412
_cell_length_c                    24.2135
_cell_angle_alpha                 92.3071
_cell_angle_beta                  101.1484
_cell_angle_gamma                 94.1924
loop_
_atom_site_label
_atom_site_type_symbol
_atom_site_fract_x
_atom_site_fract_y
_atom_site_fract_z
_atom_site_U_iso_or_equiv
_atom_site_adp_type
_atom_site_occupancy
C1     C     0.01393   0.26468   0.24607   0.00000  Uiso   1.00
C2     C     0.05295   0.16800   0.41606   0.00000  Uiso   1.00
C3     C     0.02046   0.31923   0.24379   0.00000  Uiso   1.00
C4     C     0.03532   0.16789   0.35517   0.00000  Uiso   1.00
C5     C     0.30672   0.01383   0.23886   0.00000  Uiso   1.00
C6     C     0.31764   0.06839   0.24880   0.00000  Uiso   1.00
C7     C     0.29745   0.16273   0.14484   0.00000  Uiso   1.00
C8     C     0.26982   0.09542   0.00188   0.00000  Uiso   1.00
C9     C     0.27656   0.15207   0.08511   0.00000  Uiso   1.00
C10    C     0.02430   0.19829   0.44988   0.00000  Uiso   1.00
C11    C     0.04801   0.20828   0.00669   0.00000  Uiso   1.00
C12    C     0.13188   0.16108   0.49511   0.00000  Uiso   1.00
C13    C     0.10193   0.19090   0.02918   0.00000  Uiso   1.00
C14    C     0.23080   0.31405   0.16041   0.00000  Uiso   1.00
C15    C     0.10333   0.14434   0.44012   0.00000  Uiso   1.00
C16    C     0.18934   0.14756   0.01360   0.00000  Uiso   1.00
C17    C     0.21361   0.11054   0.48173   0.00000  Uiso   1.00
C18    C     0.18098   0.08859   0.43090   0.00000  Uiso   1.00
C19    C     0.12647   0.10539   0.41013   0.00000  Uiso   1.00
C20    C     0.22377   0.17082   0.06265   0.00000  Uiso   1.00
C21    C     0.30077   0.11522   0.05441   0.00000  Uiso   1.00
H22    H     0.00862   0.10020   0.07199   0.00000  Uiso   1.00
H23    H     0.10235   0.08720   0.37061   0.00000  Uiso   1.00
H24    H     0.06506   0.00355   0.25263   0.00000  Uiso   1.00
H25    H     0.21725   0.01106   0.23693   0.00000  Uiso   1.00
H26    H     0.18621   0.29399   0.15038   0.00000  Uiso   1.00
H27    H     0.26098   0.28807   0.14523   0.00000  Uiso   1.00
H28    H     0.23087   0.01763   0.13808   0.00000  Uiso   1.00
H29    H     0.15663   0.12500   0.20828   0.00000  Uiso   1.00
H30    H     0.17670   0.20834   0.29172   0.00000  Uiso   1.00
H31    H     0.19801   0.05920   0.40667   0.00000  Uiso   1.00
H32    H     0.28860   0.06683   0.47825   0.00000  Uiso   1.00
H33    H     0.20920   0.20217   0.08598   0.00000  Uiso   1.00
H34    H     0.31801   0.21570   0.43200   0.00000  Uiso   1.00
H35    H     0.11843   0.20023   0.07350   0.00000  Uiso   1.00
H36    H     0.02562   0.23121   0.03294   0.00000  Uiso   1.00
N37    N     0.14493   0.15223   0.23543   0.00000  Uiso   1.00
N38    N     0.18840   0.18110   0.26458   0.00000  Uiso   1.00
N39    N     0.24788   0.32508   0.22067   0.00000  Uiso   1.00
O40    O     0.29769   0.24629   0.25358   0.00000  Uiso   1.00
O41    O     0.05742   0.23704   0.24424   0.00000  Uiso   1.00
O42    O     0.31490   0.17358   0.33380   0.00000  Uiso   1.00
O43    O     0.07463   0.16433   0.32446   0.00000  Uiso   1.00
O44    O     0.27592   0.09629   0.25577   0.00000  Uiso   1.00
O45    O     0.03565   0.08704   0.24643   0.00000  Uiso   1.00
O46    O     0.25870   0.16901   0.17554   0.00000  Uiso   1.00
O47    O     0.01843   0.15976   0.16620   0.00000  Uiso   1.00
Zn48   Zn    0.27119   0.17284   0.25624   0.00000  Uiso   1.00
Zn49   Zn    0.06214   0.16049   0.24377   0.00000  Uiso   1.00
C50    C     0.34727   0.26468   0.24607   0.00000  Uiso   1.00
C51    C     0.38628   0.16800   0.41606   0.00000  Uiso   1.00
C52    C     0.35379   0.31923   0.24379   0.00000  Uiso   1.00
C53    C     0.36865   0.16789   0.35517   0.00000  Uiso   1.00
C54    C     0.64005   0.01383   0.23886   0.00000  Uiso   1.00
C55    C     0.65097   0.06839   0.24880   0.00000  Uiso   1.00
C56    C     0.63079   0.16273   0.14484   0.00000  Uiso   1.00
C57    C     0.60315   0.09542   0.00188   0.00000  Uiso   1.00
C58    C     0.60990   0.15207   0.08511   0.00000  Uiso   1.00
C59    C     0.35764   0.19829   0.44988   0.00000  Uiso   1.00
C60    C     0.38134   0.20828   0.00669   0.00000  Uiso   1.00
C61    C     0.46521   0.16108   0.49511   0.00000  Uiso   1.00
C62    C     0.43527   0.19090   0.02918   0.00000  Uiso   1.00
C63    C     0.56414   0.31405   0.16041   0.00000  Uiso   1.00
C64    C     0.43667   0.14434   0.44012   0.00000  Uiso   1.00
C65    C     0.52268   0.14756   0.01360   0.00000  Uiso   1.00
C66    C     0.54694   0.11054   0.48173   0.00000  Uiso   1.00
C67    C     0.51432   0.08859   0.43090   0.00000  Uiso   1.00
C68    C     0.45981   0.10539   0.41013   0.00000  Uiso   1.00
C69    C     0.55710   0.17082   0.06265   0.00000  Uiso   1.00
C70    C     0.63410   0.11522   0.05441   0.00000  Uiso   1.00
H71    H     0.34195   0.10020   0.07199   0.00000  Uiso   1.00
H72    H     0.43568   0.08720   0.37061   0.00000  Uiso   1.00
H73    H     0.39840   0.00355   0.25263   0.00000  Uiso   1.00
H74    H     0.55059   0.01106   0.23693   0.00000  Uiso   1.00
H75    H     0.51955   0.29399   0.15038   0.00000  Uiso   1.00
H76    H     0.59432   0.28807   0.14523   0.00000  Uiso   1.00
H77    H     0.56420   0.01763   0.13808   0.00000  Uiso   1.00
H78    H     0.48997   0.12500   0.20828   0.00000  Uiso   1.00
H79    H     0.51004   0.20834   0.29172   0.00000  Uiso   1.00
H80    H     0.53134   0.05920   0.40667   0.00000  Uiso   1.00
H81    H     0.62194   0.06683   0.47825   0.00000  Uiso   1.00
H82    H     0.54254   0.20217   0.08598   0.00000  Uiso   1.00
H83    H     0.65134   0.21570   0.43200   0.00000  Uiso   1.00
H84    H     0.45177   0.20023   0.07350   0.00000  Uiso   1.00
H85    H     0.35896   0.23121   0.03294   0.00000  Uiso   1.00
N86    N     0.47827   0.15223   0.23543   0.00000  Uiso   1.00
N87    N     0.52173   0.18110   0.26458   0.00000  Uiso   1.00
N88    N     0.58121   0.32508   0.22067   0.00000  Uiso   1.00
O89    O     0.63102   0.24629   0.25358   0.00000  Uiso   1.00
O90    O     0.39075   0.23704   0.24424   0.00000  Uiso   1.00
O91    O     0.64823   0.17358   0.33380   0.00000  Uiso   1.00
O92    O     0.40796   0.16433   0.32446   0.00000  Uiso   1.00
O93    O     0.60925   0.09629   0.25577   0.00000  Uiso   1.00
O94    O     0.36898   0.08704   0.24643   0.00000  Uiso   1.00
O95    O     0.59204   0.16901   0.17554   0.00000  Uiso   1.00
O96    O     0.35177   0.15976   0.16620   0.00000  Uiso   1.00
Zn97   Zn    0.60453   0.17284   0.25624   0.00000  Uiso   1.00
Zn98   Zn    0.39547   0.16049   0.24377   0.00000  Uiso   1.00
C99    C     0.68060   0.26468   0.24607   0.00000  Uiso   1.00
C100   C     0.71961   0.16800   0.41606   0.00000  Uiso   1.00
C101   C     0.68713   0.31923   0.24379   0.00000  Uiso   1.00
C102   C     0.70198   0.16789   0.35517   0.00000  Uiso   1.00
C103   C     0.97339   0.01383   0.23886   0.00000  Uiso   1.00
C104   C     0.98430   0.06839   0.24880   0.00000  Uiso   1.00
C105   C     0.96412   0.16273   0.14484   0.00000  Uiso   1.00
C106   C     0.93648   0.09542   0.00188   0.00000  Uiso   1.00
C107   C     0.94323   0.15207   0.08511   0.00000  Uiso   1.00
C108   C     0.69097   0.19829   0.44988   0.00000  Uiso   1.00
C109   C     0.71468   0.20828   0.00669   0.00000  Uiso   1.00
C110   C     0.79855   0.16108   0.49511   0.00000  Uiso   1.00
C111   C     0.76860   0.19090   0.02918   0.00000  Uiso   1.00
C112   C     0.89747   0.31405   0.16041   0.00000  Uiso   1.00
C113   C     0.77000   0.14434   0.44012   0.00000  Uiso   1.00
C114   C     0.85601   0.14756   0.01360   0.00000  Uiso   1.00
C115   C     0.88028   0.11054   0.48173   0.00000  Uiso   1.00
C116   C     0.84765   0.08859   0.43090   0.00000  Uiso   1.00
C117   C     0.79314   0.10539   0.41013   0.00000  Uiso   1.00
C118   C     0.89044   0.17082   0.06265   0.00000  Uiso   1.00
C119   C     0.96744   0.11522   0.05441   0.00000  Uiso   1.00
H120   H     0.67529   0.10020   0.07199   0.00000  Uiso   1.00
H121   H     0.76901   0.08720   0.37061   0.00000  Uiso   1.00
H122   H     0.73173   0.00355   0.25263   0.00000  Uiso   1.00
H123   H     0.88392   0.01106   0.23693   0.00000  Uiso   1.00
H124   H     0.85288   0.29399   0.15038   0.00000  Uiso   1.00
H125   H     0.92765   0.28807   0.14523   0.00000  Uiso   1.00
H126   H     0.89753   0.01763   0.13808   0.00000  Uiso   1.00
H127   H     0.82330   0.12500   0.20828   0.00000  Uiso   1.00
H128   H     0.84337   0.20834   0.29172   0.00000  Uiso   1.00
H129   H     0.86467   0.05920   0.40667   0.00000  Uiso   1.00
H130   H     0.95527   0.06683   0.47825   0.00000  Uiso   1.00
H131   H     0.87587   0.20217   0.08598   0.00000  Uiso   1.00
H132   H     0.98468   0.21570   0.43200   0.00000  Uiso   1.00
H133   H     0.78510   0.20023   0.07350   0.00000  Uiso   1.00
H134   H     0.69229   0.23121   0.03294   0.00000  Uiso   1.00
N135   N     0.81160   0.15223   0.23543   0.00000  Uiso   1.00
N136   N     0.85507   0.18110   0.26458   0.00000  Uiso   1.00
N137   N     0.91455   0.32508   0.22067   0.00000  Uiso   1.00
O138   O     0.96435   0.24629   0.25358   0.00000  Uiso   1.00
O139   O     0.72408   0.23704   0.24424   0.00000  Uiso   1.00
O140   O     0.98157   0.17358   0.33380   0.00000  Uiso   1.00
O141   O     0.74130   0.16433   0.32446   0.00000  Uiso   1.00
O142   O     0.94258   0.09629   0.25577   0.00000  Uiso   1.00
O143   O     0.70231   0.08704   0.24643   0.00000  Uiso   1.00
O144   O     0.92537   0.16901   0.17554   0.00000  Uiso   1.00
O145   O     0.68510   0.15976   0.16620   0.00000  Uiso   1.00
Zn146  Zn    0.93786   0.17284   0.25624   0.00000  Uiso   1.00
Zn147  Zn    0.72881   0.16049   0.24377   0.00000  Uiso   1.00
C148   C     0.01393   0.59802   0.24607   0.00000  Uiso   1.00
C149   C     0.05295   0.50133   0.41606   0.00000  Uiso   1.00
C150   C     0.02046   0.65256   0.24379   0.00000  Uiso   1.00
C151   C     0.03532   0.50123   0.35517   0.00000  Uiso   1.00
C152   C     0.30672   0.34717   0.23886   0.00000  Uiso   1.00
C153   C     0.31764   0.40172   0.24880   0.00000  Uiso   1.00
C154   C     0.29745   0.49606   0.14484   0.00000  Uiso   1.00
C155   C     0.26982   0.42876   0.00188   0.00000  Uiso   1.00
C156   C     0.27656   0.48540   0.08511   0.00000  Uiso   1.00
C157   C     0.02430   0.53162   0.44988   0.00000  Uiso   1.00
C158   C     0.04801   0.54161   0.00669   0.00000  Uiso   1.00
C159   C     0.13188   0.49442   0.49511   0.00000  Uiso   1.00
C160   C     0.10193   0.52424   0.02918   0.00000  Uiso   1.00
C161   C     0.23080   0.64739   0.16041   0.00000  Uiso   1.00
C162   C     0.10333   0.47767   0.44012   0.00000  Uiso   1.00
C163   C     0.18934   0.48089   0.01360   0.00000  Uiso   1.00
C164   C     0.21361   0.44387   0.48173   0.00000  Uiso   1.00
C165   C     0.18098   0.42193   0.43090   0.00000  Uiso   1.00
C166   C     0.12647   0.43872   0.41013   0.00000  Uiso   1.00
C167   C     0.22377   0.50415   0.06265   0.00000  Uiso   1.00
C168   C     0.30077   0.44855   0.05441   0.00000  Uiso   1.00
H169   H     0.00862   0.43353   0.07199   0.00000  Uiso   1.00
H170   H     0.10235   0.42054   0.37061   0.00000  Uiso   1.00
H171   H     0.06506   0.33688   0.25263   0.00000  Uiso   1.00
H172   H     0.21725   0.34439   0.23693   0.00000  Uiso   1.00
H173   H     0.18621   0.62732   0.15038   0.00000  Uiso   1.00
H174   H     0.26098   0.62141   0.14523   0.00000  Uiso   1.00
H175   H     0.23087   0.35096   0.13808   0.00000  Uiso   1.00
H176   H     0.15663   0.45833   0.20828   0.00000  Uiso   1.00
H177   H     0.17670   0.54167   0.29172   0.00000  Uiso   1.00
H178   H     0.19801   0.39254   0.40667   0.00000  Uiso   1.00
H179   H     0.28860   0.40017   0.47825   0.00000  Uiso   1.00
H180   H     0.20920   0.53551   0.08598   0.00000  Uiso   1.00
H181   H     0.31801   0.54904   0.43200   0.00000  Uiso   1.00
H182   H     0.11843   0.53356   0.07350   0.00000  Uiso   1.00
H183   H     0.02562   0.56454   0.03294   0.00000  Uiso   1.00
N184   N     0.14493   0.48556   0.23543   0.00000  Uiso   1.00
N185   N     0.18840   0.51444   0.26458   0.00000  Uiso   1.00
N186   N     0.24788   0.65841   0.22067   0.00000  Uiso   1.00
O187   O     0.29769   0.57963   0.25358   0.00000  Uiso   1.00
O188   O     0.05742   0.57038   0.24424   0.00000  Uiso   1.00
O189   O     0.31490   0.50691   0.33380   0.00000  Uiso   1.00
O190   O     0.07463   0.49766   0.32446   0.00000  Uiso   1.00
O191   O     0.27592   0.42962   0.25577   0.00000  Uiso   1.00
O192   O     0.03565   0.42037   0.24643   0.00000  Uiso   1.00
O193   O     0.25870   0.50234   0.17554   0.00000  Uiso   1.00
O194   O     0.01843   0.49309   0.16620   0.00000  Uiso   1.00
Zn195  Zn    0.27119   0.50618   0.25624   0.00000  Uiso   1.00
Zn196  Zn    0.06214   0.49382   0.24377   0.00000  Uiso   1.00
C197   C     0.34727   0.59802   0.24607   0.00000  Uiso   1.00
C198   C     0.38628   0.50133   0.41606   0.00000  Uiso   1.00
C199   C     0.35379   0.65256   0.24379   0.00000  Uiso   1.00
C200   C     0.36865   0.50123   0.35517   0.00000  Uiso   1.00
C201   C     0.64005   0.34717   0.23886   0.00000  Uiso   1.00
C202   C     0.65097   0.40172   0.24880   0.00000  Uiso   1.00
C203   C     0.63079   0.49606   0.14484   0.00000  Uiso   1.00
C204   C     0.60315   0.42876   0.00188   0.00000  Uiso   1.00
C205   C     0.60990   0.48540   0.08511   0.00000  Uiso   1.00
C206   C     0.35764   0.53162   0.44988   0.00000  Uiso   1.00
C207   C     0.38134   0.54161   0.00669   0.00000  Uiso   1.00
C208   C     0.46521   0.49442   0.49511   0.00000  Uiso   1.00
C209   C     0.43527   0.52424   0.02918   0.00000  Uiso   1.00
C210   C     0.56414   0.64739   0.16041   0.00000  Uiso   1.00
C211   C     0.43667   0.47767   0.44012   0.00000  Uiso   1.00
C212   C     0.52268   0.48089   0.01360   0.00000  Uiso   1.00
C213   C     0.54694   0.44387   0.48173   0.00000  Uiso   1.00
C214   C     0.51432   0.42193   0.43090   0.00000  Uiso   1.00
C215   C     0.45981   0.43872   0.41013   0.00000  Uiso   1.00
C216   C     0.55710   0.50415   0.06265   0.00000  Uiso   1.00
C217   C     0.63410   0.44855   0.05441   0.00000  Uiso   1.00
H218   H     0.34195   0.43353   0.07199   0.00000  Uiso   1.00
H219   H     0.43568   0.42054   0.37061   0.00000  Uiso   1.00
H220   H     0.39840   0.33688   0.25263   0.00000  Uiso   1.00
H221   H     0.55059   0.34439   0.23693   0.00000  Uiso   1.00
H222   H     0.51955   0.62732   0.15038   0.00000  Uiso   1.00
H223   H     0.59432   0.62141   0.14523   0.00000  Uiso   1.00
H224   H     0.56420   0.35096   0.13808   0.00000  Uiso   1.00
H225   H     0.48997   0.45833   0.20828   0.00000  Uiso   1.00
H226   H     0.51004   0.54167   0.29172   0.00000  Uiso   1.00
H227   H     0.53134   0.39254   0.40667   0.00000  Uiso   1.00
H228   H     0.62194   0.40017   0.47825   0.00000  Uiso   1.00
H229   H     0.54254   0.53551   0.08598   0.00000  Uiso   1.00
H230   H     0.65134   0.54904   0.43200   0.00000  Uiso   1.00
H231   H     0.45177   0.53356   0.07350   0.00000  Uiso   1.00
H232   H     0.35896   0.56454   0.03294   0.00000  Uiso   1.00
N233   N     0.47827   0.48556   0.23543   0.00000  Uiso   1.00
N234   N     0.52173   0.51444   0.26458   0.00000  Uiso   1.00
N235   N     0.58121   0.65841   0.22067   0.00000  Uiso   1.00
O236   O     0.63102   0.57963   0.25358   0.00000  Uiso   1.00
O237   O     0.39075   0.57038   0.24424   0.00000  Uiso   1.00
O238   O     0.64823   0.50691   0.33380   0.00000  Uiso   1.00
O239   O     0.40796   0.49766   0.32446   0.00000  Uiso   1.00
O240   O     0.60925   0.42962   0.25577   0.00000  Uiso   1.00
O241   O     0.36898   0.42037   0.24643   0.00000  Uiso   1.00
O242   O     0.59204   0.50234   0.17554   0.00000  Uiso   1.00
O243   O     0.35177   0.49309   0.16620   0.00000  Uiso   1.00
Zn244  Zn    0.60453   0.50618   0.25624   0.00000  Uiso   1.00
Zn245  Zn    0.39547   0.49382   0.24377   0.00000  Uiso   1.00
C246   C     0.68060   0.59802   0.24607   0.00000  Uiso   1.00
C247   C     0.71961   0.50133   0.41606   0.00000  Uiso   1.00
C248   C     0.68713   0.65256   0.24379   0.00000  Uiso   1.00
C249   C     0.70198   0.50123   0.35517   0.00000  Uiso   1.00
C250   C     0.97339   0.34717   0.23886   0.00000  Uiso   1.00
C251   C     0.98430   0.40172   0.24880   0.00000  Uiso   1.00
C252   C     0.96412   0.49606   0.14484   0.00000  Uiso   1.00
C253   C     0.93648   0.42876   0.00188   0.00000  Uiso   1.00
C254   C     0.94323   0.48540   0.08511   0.00000  Uiso   1.00
C255   C     0.69097   0.53162   0.44988   0.00000  Uiso   1.00
C256   C     0.71468   0.54161   0.00669   0.00000  Uiso   1.00
C257   C     0.79855   0.49442   0.49511   0.00000  Uiso   1.00
C258   C     0.76860   0.52424   0.02918   0.00000  Uiso   1.00
C259   C     0.89747   0.64739   0.16041   0.00000  Uiso   1.00
C260   C     0.77000   0.47767   0.44012   0.00000  Uiso   1.00
C261   C     0.85601   0.48089   0.01360   0.00000  Uiso   1.00
C262   C     0.88028   0.44387   0.48173   0.00000  Uiso   1.00
C263   C     0.84765   0.42193   0.43090   0.00000  Uiso   1.00
C264   C     0.79314   0.43872   0.41013   0.00000  Uiso   1.00
C265   C     0.89044   0.50415   0.06265   0.00000  Uiso   1.00
C266   C     0.96744   0.44855   0.05441   0.00000  Uiso   1.00
H267   H     0.67529   0.43353   0.07199   0.00000  Uiso   1.00
H268   H     0.76901   0.42054   0.37061   0.00000  Uiso   1.00
H269   H     0.73173   0.33688   0.25263   0.00000  Uiso   1.00
H270   H     0.88392   0.34439   0.23693   0.00000  Uiso   1.00
H271   H     0.85288   0.62732   0.15038   0.00000  Uiso   1.00
H272   H     0.92765   0.62141   0.14523   0.00000  Uiso   1.00
H273   H     0.89753   0.35096   0.13808   0.00000  Uiso   1.00
H274   H     0.82330   0.45833   0.20828   0.00000  Uiso   1.00
H275   H     0.84337   0.54167   0.29172   0.00000  Uiso   1.00
H276   H     0.86467   0.39254   0.40667   0.00000  Uiso   1.00
H277   H     0.95527   0.40017   0.47825   0.00000  Uiso   1.00
H278   H     0.87587   0.53551   0.08598   0.00000  Uiso   1.00
H279   H     0.98468   0.54904   0.43200   0.00000  Uiso   1.00
H280   H     0.78510   0.53356   0.07350   0.00000  Uiso   1.00
H281   H     0.69229   0.56454   0.03294   0.00000  Uiso   1.00
N282   N     0.81160   0.48556   0.23543   0.00000  Uiso   1.00
N283   N     0.85507   0.51444   0.26458   0.00000  Uiso   1.00
N284   N     0.91455   0.65841   0.22067   0.00000  Uiso   1.00
O285   O     0.96435   0.57963   0.25358   0.00000  Uiso   1.00
O286   O     0.72408   0.57038   0.24424   0.00000  Uiso   1.00
O287   O     0.98157   0.50691   0.33380   0.00000  Uiso   1.00
O288   O     0.74130   0.49766   0.32446   0.00000  Uiso   1.00
O289   O     0.94258   0.42962   0.25577   0.00000  Uiso   1.00
O290   O     0.70231   0.42037   0.24643   0.00000  Uiso   1.00
O291   O     0.92537   0.50234   0.17554   0.00000  Uiso   1.00
O292   O     0.68510   0.49309   0.16620   0.00000  Uiso   1.00
Zn293  Zn    0.93786   0.50618   0.25624   0.00000  Uiso   1.00
Zn294  Zn    0.72881   0.49382   0.24377   0.00000  Uiso   1.00
C295   C     0.01393   0.93135   0.24607   0.00000  Uiso   1.00
C296   C     0.05295   0.83466   0.41606   0.00000  Uiso   1.00
C297   C     0.02046   0.98590   0.24379   0.00000  Uiso   1.00
C298   C     0.03532   0.83456   0.35517   0.00000  Uiso   1.00
C299   C     0.30672   0.68050   0.23886   0.00000  Uiso   1.00
C300   C     0.31764   0.73505   0.24880   0.00000  Uiso   1.00
C301   C     0.29745   0.82939   0.14484   0.00000  Uiso   1.00
C302   C     0.26982   0.76209   0.00188   0.00000  Uiso   1.00
C303   C     0.27656   0.81874   0.08511   0.00000  Uiso   1.00
C304   C     0.02430   0.86496   0.44988   0.00000  Uiso   1.00
C305   C     0.04801   0.87495   0.00669   0.00000  Uiso   1.00
C306   C     0.13188   0.82775   0.49511   0.00000  Uiso   1.00
C307   C     0.10193   0.85757   0.02918   0.00000  Uiso   1.00
C308   C     0.23080   0.98072   0.16041   0.00000  Uiso   1.00
C309   C     0.10333   0.81100   0.44012   0.00000  Uiso   1.00
C310   C     0.18934   0.81423   0.01360   0.00000  Uiso   1.00
C311   C     0.21361   0.77720   0.48173   0.00000  Uiso   1.00
C312   C     0.18098   0.75526   0.43090   0.00000  Uiso   1.00
C313   C     0.12647   0.77206   0.41013   0.00000  Uiso   1.00
C314   C     0.22377   0.83749   0.06265   0.00000  Uiso   1.00
C315   C     0.30077   0.78189   0.05441   0.00000  Uiso   1.00
H316   H     0.00862   0.76687   0.07199   0.00000  Uiso   1.00
H317   H     0.10235   0.75387   0.37061   0.00000  Uiso   1.00
H318   H     0.06506   0.67021   0.25263   0.00000  Uiso   1.00
H319   H     0.21725   0.67772   0.23693   0.00000  Uiso   1.00
H320   H     0.18621   0.96065   0.15038   0.00000  Uiso   1.00
H321   H     0.26098   0.95474   0.14523   0.00000  Uiso   1.00
H322   H     0.23087   0.68429   0.13808   0.00000  Uiso   1.00
H323   H     0.15663   0.79167   0.20828   0.00000  Uiso   1.00
H324   H     0.17670   0.87500   0.29172   0.00000  Uiso   1.00
H325   H     0.19801   0.72587   0.40667   0.00000  Uiso   1.00
H326   H     0.28860   0.73350   0.47825   0.00000  Uiso   1.00
H327   H     0.20920   0.86884   0.08598   0.00000  Uiso   1.00
H328   H     0.31801   0.88237   0.43200   0.00000  Uiso   1.00
H329   H     0.11843   0.86689   0.07350   0.00000  Uiso   1.00
H330   H     0.02562   0.89788   0.03294   0.00000  Uiso   1.00
N331   N     0.14493   0.81890   0.23543   0.00000  Uiso   1.00
N332   N     0.18840   0.84777   0.26458   0.00000  Uiso   1.00
N333   N     0.24788   0.99175   0.22067   0.00000  Uiso   1.00
O334   O     0.29769   0.91296   0.25358   0.00000  Uiso   1.00
O335   O     0.05742   0.90371   0.24424   0.00000  Uiso   1.00
O336   O     0.31490   0.84024   0.33380   0.00000  Uiso   1.00
O337   O     0.07463   0.83099   0.32446   0.00000  Uiso   1.00
O338   O     0.27592   0.76296   0.25577   0.00000  Uiso   1.00
O339   O     0.03565   0.75371   0.24643   0.00000  Uiso   1.00
O340   O     0.25870   0.83567   0.17554   0.00000  Uiso   1.00
O341   O     0.01843   0.82642   0.16620   0.00000  Uiso   1.00
Zn342  Zn    0.27119   0.83951   0.25624   0.00000  Uiso   1.00
Zn343  Zn    0.06214   0.82716   0.24377   0.00000  Uiso   1.00
C344   C     0.34727   0.93135   0.24607   0.00000  Uiso   1.00
C345   C     0.38628   0.83466   0.41606   0.00000  Uiso   1.00
C346   C     0.35379   0.98590   0.24379   0.00000  Uiso   1.00
C347   C     0.36865   0.83456   0.35517   0.00000  Uiso   1.00
C348   C     0.64005   0.68050   0.23886   0.00000  Uiso   1.00
C349   C     0.65097   0.73505   0.24880   0.00000  Uiso   1.00
C350   C     0.63079   0.82939   0.14484   0.00000  Uiso   1.00
C351   C     0.60315   0.76209   0.00188   0.00000  Uiso   1.00
C352   C     0.60990   0.81874   0.08511   0.00000  Uiso   1.00
C353   C     0.35764   0.86496   0.44988   0.00000  Uiso   1.00
C354   C     0.38134   0.87495   0.00669   0.00000  Uiso   1.00
C355   C     0.46521   0.82775   0.49511   0.00000  Uiso   1.00
C356   C     0.43527   0.85757   0.02918   0.00000  Uiso   1.00
C357   C     0.56414   0.98072   0.16041   0.00000  Uiso   1.00
C358   C     0.43667   0.81100   0.44012   0.00000  Uiso   1.00
C359   C     0.52268   0.81423   0.01360   0.00000  Uiso   1.00
C360   C     0.54694   0.77720   0.48173   0.00000  Uiso   1.00
C361   C     0.51432   0.75526   0.43090   0.00000  Uiso   1.00
C362   C     0.45981   0.77206   0.41013   0.00000  Uiso   1.00
C363   C     0.55710   0.83749   0.06265   0.00000  Uiso   1.00
C364   C     0.63410   0.78189   0.05441   0.00000  Uiso   1.00
H365   H     0.34195   0.76687   0.07199   0.00000  Uiso   1.00
H366   H     0.43568   0.75387   0.37061   0.00000  Uiso   1.00
H367   H     0.39840   0.67021   0.25263   0.00000  Uiso   1.00
H368   H     0.55059   0.67772   0.23693   0.00000  Uiso   1.00
H369   H     0.51955   0.96065   0.15038   0.00000  Uiso   1.00
H370   H     0.59432   0.95474   0.14523   0.00000  Uiso   1.00
H371   H     0.56420   0.68429   0.13808   0.00000  Uiso   1.00
H372   H     0.48997   0.79167   0.20828   0.00000  Uiso   1.00
H373   H     0.51004   0.87500   0.29172   0.00000  Uiso   1.00
H374   H     0.53134   0.72587   0.40667   0.00000  Uiso   1.00
H375   H     0.62194   0.73350   0.47825   0.00000  Uiso   1.00
H376   H     0.54254   0.86884   0.08598   0.00000  Uiso   1.00
H377   H     0.65134   0.88237   0.43200   0.00000  Uiso   1.00
H378   H     0.45177   0.86689   0.07350   0.00000  Uiso   1.00
H379   H     0.35896   0.89788   0.03294   0.00000  Uiso   1.00
N380   N     0.47827   0.81890   0.23543   0.00000  Uiso   1.00
N381   N     0.52173   0.84777   0.26458   0.00000  Uiso   1.00
N382   N     0.58121   0.99175   0.22067   0.00000  Uiso   1.00
O383   O     0.63102   0.91296   0.25358   0.00000  Uiso   1.00
O384   O     0.39075   0.90371   0.24424   0.00000  Uiso   1.00
O385   O     0.64823   0.84024   0.33380   0.00000  Uiso   1.00
O386   O     0.40796   0.83099   0.32446   0.00000  Uiso   1.00
O387   O     0.60925   0.76296   0.25577   0.00000  Uiso   1.00
O388   O     0.36898   0.75371   0.24643   0.00000  Uiso   1.00
O389   O     0.59204   0.83567   0.17554   0.00000  Uiso   1.00
O390   O     0.35177   0.82642   0.16620   0.00000  Uiso   1.00
Zn391  Zn    0.60453   0.83951   0.25624   0.00000  Uiso   1.00
Zn392  Zn    0.39547   0.82716   0.24377   0.00000  Uiso   1.00
C393   C     0.68060   0.93135   0.24607   0.00000  Uiso   1.00
C394   C     0.71961   0.83466   0.41606   0.00000  Uiso   1.00
C395   C     0.68713   0.98590   0.24379   0.00000  Uiso   1.00
C396   C     0.70198   0.83456   0.35517   0.00000  Uiso   1.00
C397   C     0.97339   0.68050   0.23886   0.00000  Uiso   1.00
C398   C     0.98430   0.73505   0.24880   0.00000  Uiso   1.00
C399   C     0.96412   0.82939   0.14484   0.00000  Uiso   1.00
C400   C     0.93648   0.76209   0.00188   0.00000  Uiso   1.00
C401   C     0.94323   0.81874   0.08511   0.00000  Uiso   1.00
C402   C     0.69097   0.86496   0.44988   0.00000  Uiso   1.00
C403   C     0.71468   0.87495   0.00669   0.00000  Uiso   1.00
C404   C     0.79855   0.82775   0.49511   0.00000  Uiso   1.00
C405   C     0.76860   0.85757   0.02918   0.00000  Uiso   1.00
C406   C     0.89747   0.98072   0.16041   0.00000  Uiso   1.00
C407   C     0.77000   0.81100   0.44012   0.00000  Uiso   1.00
C408   C     0.85601   0.81423   0.01360   0.00000  Uiso   1.00
C409   C     0.88028   0.77720   0.48173   0.00000  Uiso   1.00
C410   C     0.84765   0.75526   0.43090   0.00000  Uiso   1.00
C411   C     0.79314   0.77206   0.41013   0.00000  Uiso   1.00
C412   C     0.89044   0.83749   0.06265   0.00000  Uiso   1.00
C413   C     0.96744   0.78189   0.05441   0.00000  Uiso   1.00
H414   H     0.67529   0.76687   0.07199   0.00000  Uiso   1.00
H415   H     0.76901   0.75387   0.37061   0.00000  Uiso   1.00
H416   H     0.73173   0.67021   0.25263   0.00000  Uiso   1.00
H417   H     0.88392   0.67772   0.23693   0.00000  Uiso   1.00
H418   H     0.85288   0.96065   0.15038   0.00000  Uiso   1.00
H419   H     0.92765   0.95474   0.14523   0.00000  Uiso   1.00
H420   H     0.89753   0.68429   0.13808   0.00000  Uiso   1.00
H421   H     0.82330   0.79167   0.20828   0.00000  Uiso   1.00
H422   H     0.84337   0.87500   0.29172   0.00000  Uiso   1.00
H423   H     0.86467   0.72587   0.40667   0.00000  Uiso   1.00
H424   H     0.95527   0.73350   0.47825   0.00000  Uiso   1.00
H425   H     0.87587   0.86884   0.08598   0.00000  Uiso   1.00
H426   H     0.98468   0.88237   0.43200   0.00000  Uiso   1.00
H427   H     0.78510   0.86689   0.07350   0.00000  Uiso   1.00
H428   H     0.69229   0.89788   0.03294   0.00000  Uiso   1.00
N429   N     0.81160   0.81890   0.23543   0.00000  Uiso   1.00
N430   N     0.85507   0.84777   0.26458   0.00000  Uiso   1.00
N431   N     0.91455   0.99175   0.22067   0.00000  Uiso   1.00
O432   O     0.96435   0.91296   0.25358   0.00000  Uiso   1.00
O433   O     0.72408   0.90371   0.24424   0.00000  Uiso   1.00
O434   O     0.98157   0.84024   0.33380   0.00000  Uiso   1.00
O435   O     0.74130   0.83099   0.32446   0.00000  Uiso   1.00
O436   O     0.94258   0.76296   0.25577   0.00000  Uiso   1.00
O437   O     0.70231   0.75371   0.24643   0.00000  Uiso   1.00
O438   O     0.92537   0.83567   0.17554   0.00000  Uiso   1.00
O439   O     0.68510   0.82642   0.16620   0.00000  Uiso   1.00
Zn440  Zn    0.93786   0.83951   0.25624   0.00000  Uiso   1.00
Zn441  Zn    0.72881   0.82716   0.24377   0.00000  Uiso   1.00
C442   C     0.01393   0.26468   0.74607   0.00000  Uiso   1.00
C443   C     0.05295   0.16800   0.91606   0.00000  Uiso   1.00
C444   C     0.02046   0.31923   0.74379   0.00000  Uiso   1.00
C445   C     0.03532   0.16789   0.85517   0.00000  Uiso   1.00
C446   C     0.30672   0.01383   0.73886   0.00000  Uiso   1.00
C447   C     0.31764   0.06839   0.74880   0.00000  Uiso   1.00
C448   C     0.29745   0.16273   0.64484   0.00000  Uiso   1.00
C449   C     0.26982   0.09542   0.50188   0.00000  Uiso   1.00
C450   C     0.27656   0.15207   0.58511   0.00000  Uiso   1.00
C451   C     0.02430   0.19829   0.94988   0.00000  Uiso   1.00
C452   C     0.04801   0.20828   0.50669   0.00000  Uiso   1.00
C453   C     0.13188   0.16108   0.99511   0.00000  Uiso   1.00
C454   C     0.10193   0.19090   0.52918   0.00000  Uiso   1.00
C455   C     0.23080   0.31405   0.66041   0.00000  Uiso   1.00
C456   C     0.10333   0.14434   0.94012   0.00000  Uiso   1.00
C457   C     0.18934   0.14756   0.51360   0.00000  Uiso   1.00
C458   C     0.21361   0.11054   0.98173   0.00000  Uiso   1.00
C459   C     0.18098   0.08859   0.93090   0.00000  Uiso   1.00
C460   C     0.12647   0.10539   0.91013   0.00000  Uiso   1.00
C461   C     0.22377   0.17082   0.56265   0.00000  Uiso   1.00
C462   C     0.30077   0.11522   0.55441   0.00000  Uiso   1.00
H463   H     0.00862   0.10020   0.57199   0.00000  Uiso   1.00
H464   H     0.10235   0.08720   0.87061   0.00000  Uiso   1.00
H465   H     0.06506   0.00355   0.75263   0.00000  Uiso   1.00
H466   H     0.21725   0.01106   0.73693   0.00000  Uiso   1.00
H467   H     0.18621   0.29399   0.65038   0.00000  Uiso   1.00
H468   H     0.26098   0.28807   0.64523   0.00000  Uiso   1.00
H469   H     0.23087   0.01763   0.63808   0.00000  Uiso   1.00
H470   H     0.15663   0.12500   0.70828   0.00000  Uiso   1.00
H471   H     0.17670   0.20834   0.79172   0.00000  Uiso   1.00
H472   H     0.19801   0.05920   0.90667   0.00000  Uiso   1.00
H473   H     0.28860   0.06683   0.97825   0.00000  Uiso   1.00
H474   H     0.20920   0.20217   0.58598   0.00000  Uiso   1.00
H475   H     0.31801   0.21570   0.93200   0.00000  Uiso   1.00
H476   H     0.11843   0.20023   0.57350   0.00000  Uiso   1.00
H477   H     0.02562   0.23121   0.53294   0.00000  Uiso   1.00
N478   N     0.14493   0.15223   0.73543   0.00000  Uiso   1.00
N479   N     0.18840   0.18110   0.76458   0.00000  Uiso   1.00
N480   N     0.24788   0.32508   0.72067   0.00000  Uiso   1.00
O481   O     0.29769   0.24629   0.75358   0.00000  Uiso   1.00
O482   O     0.05742   0.23704   0.74424   0.00000  Uiso   1.00
O483   O     0.31490   0.17358   0.83380   0.00000  Uiso   1.00
O484   O     0.07463   0.16433   0.82446   0.00000  Uiso   1.00
O485   O     0.27592   0.09629   0.75577   0.00000  Uiso   1.00
O486   O     0.03565   0.08704   0.74643   0.00000  Uiso   1.00
O487   O     0.25870   0.16901   0.67554   0.00000  Uiso   1.00
O488   O     0.01843   0.15976   0.66620   0.00000  Uiso   1.00
Zn489  Zn    0.27119   0.17284   0.75624   0.00000  Uiso   1.00
Zn490  Zn    0.06214   0.16049   0.74377   0.00000  Uiso   1.00
C491   C     0.34727   0.26468   0.74607   0.00000  Uiso   1.00
C492   C     0.38628   0.16800   0.91606   0.00000  Uiso   1.00
C493   C     0.35379   0.31923   0.74379   0.00000  Uiso   1.00
C494   C     0.36865   0.16789   0.85517   0.00000  Uiso   1.00
C495   C     0.64005   0.01383   0.73886   0.00000  Uiso   1.00
C496   C     0.65097   0.06839   0.74880   0.00000  Uiso   1.00
C497   C     0.63079   0.16273   0.64484   0.00000  Uiso   1.00
C498   C     0.60315   0.09542   0.50188   0.00000  Uiso   1.00
C499   C     0.60990   0.15207   0.58511   0.00000  Uiso   1.00
C500   C     0.35764   0.19829   0.94988   0.00000  Uiso   1.00
C501   C     0.38134   0.20828   0.50669   0.00000  Uiso   1.00
C502   C     0.46521   0.16108   0.99511   0.00000  Uiso   1.00
C503   C     0.43527   0.19090   0.52918   0.00000  Uiso   1.00
C504   C     0.56414   0.31405   0.66041   0.00000  Uiso   1.00
C505   C     0.43667   0.14434   0.94012   0.00000  Uiso   1.00
C506   C     0.52268   0.14756   0.51360   0.00000  Uiso   1.00
C507   C     0.54694   0.11054   0.98173   0.00000  Uiso   1.00
C508   C     0.51432   0.08859   0.93090   0.00000  Uiso   1.00
C509   C     0.45981   0.10539   0.91013   0.00000  Uiso   1.00
C510   C     0.55710   0.17082   0.56265   0.00000  Uiso   1.00
C511   C     0.63410   0.11522   0.55441   0.00000  Uiso   1.00
H512   H     0.34195   0.10020   0.57199   0.00000  Uiso   1.00
H513   H     0.43568   0.08720   0.87061   0.00000  Uiso   1.00
H514   H     0.39840   0.00355   0.75263   0.00000  Uiso   1.00
H515   H     0.55059   0.01106   0.73693   0.00000  Uiso   1.00
H516   H     0.51955   0.29399   0.65038   0.00000  Uiso   1.00
H517   H     0.59432   0.28807   0.64523   0.00000  Uiso   1.00
H518   H     0.56420   0.01763   0.63808   0.00000  Uiso   1.00
H519   H     0.48997   0.12500   0.70828   0.00000  Uiso   1.00
H520   H     0.51004   0.20834   0.79172   0.00000  Uiso   1.00
H521   H     0.53134   0.05920   0.90667   0.00000  Uiso   1.00
H522   H     0.62194   0.06683   0.97825   0.00000  Uiso   1.00
H523   H     0.54254   0.20217   0.58598   0.00000  Uiso   1.00
H524   H     0.65134   0.21570   0.93200   0.00000  Uiso   1.00
H525   H     0.45177   0.20023   0.57350   0.00000  Uiso   1.00
H526   H     0.35896   0.23121   0.53294   0.00000  Uiso   1.00
N527   N     0.47827   0.15223   0.73543   0.00000  Uiso   1.00
N528   N     0.52173   0.18110   0.76458   0.00000  Uiso   1.00
N529   N     0.58121   0.32508   0.72067   0.00000  Uiso   1.00
O530   O     0.63102   0.24629   0.75358   0.00000  Uiso   1.00
O531   O     0.39075   0.23704   0.74424   0.00000  Uiso   1.00
O532   O     0.64823   0.17358   0.83380   0.00000  Uiso   1.00
O533   O     0.40796   0.16433   0.82446   0.00000  Uiso   1.00
O534   O     0.60925   0.09629   0.75577   0.00000  Uiso   1.00
O535   O     0.36898   0.08704   0.74643   0.00000  Uiso   1.00
O536   O     0.59204   0.16901   0.67554   0.00000  Uiso   1.00
O537   O     0.35177   0.15976   0.66620   0.00000  Uiso   1.00
Zn538  Zn    0.60453   0.17284   0.75624   0.00000  Uiso   1.00
Zn539  Zn    0.39547   0.16049   0.74377   0.00000  Uiso   1.00
C540   C     0.68060   0.26468   0.74607   0.00000  Uiso   1.00
C541   C     0.71961   0.16800   0.91606   0.00000  Uiso   1.00
C542   C     0.68713   0.31923   0.74379   0.00000  Uiso   1.00
C543   C     0.70198   0.16789   0.85517   0.00000  Uiso   1.00
C544   C     0.97339   0.01383   0.73886   0.00000  Uiso   1.00
C545   C     0.98430   0.06839   0.74880   0.00000  Uiso   1.00
C546   C     0.96412   0.16273   0.64484   0.00000  Uiso   1.00
C547   C     0.93648   0.09542   0.50188   0.00000  Uiso   1.00
C548   C     0.94323   0.15207   0.58511   0.00000  Uiso   1.00
C549   C     0.69097   0.19829   0.94988   0.00000  Uiso   1.00
C550   C     0.71468   0.20828   0.50669   0.00000  Uiso   1.00
C551   C     0.79855   0.16108   0.99511   0.00000  Uiso   1.00
C552   C     0.76860   0.19090   0.52918   0.00000  Uiso   1.00
C553   C     0.89747   0.31405   0.66041   0.00000  Uiso   1.00
C554   C     0.77000   0.14434   0.94012   0.00000  Uiso   1.00
C555   C     0.85601   0.14756   0.51360   0.00000  Uiso   1.00
C556   C     0.88028   0.11054   0.98173   0.00000  Uiso   1.00
C557   C     0.84765   0.08859   0.93090   0.00000  Uiso   1.00
C558   C     0.79314   0.10539   0.91013   0.00000  Uiso   1.00
C559   C     0.89044   0.17082   0.56265   0.00000  Uiso   1.00
C560   C     0.96744   0.11522   0.55441   0.00000  Uiso   1.00
H561   H     0.67529   0.10020   0.57199   0.00000  Uiso   1.00
H562   H     0.76901   0.08720   0.87061   0.00000  Uiso   1.00
H563   H     0.73173   0.00355   0.75263   0.00000  Uiso   1.00
H564   H     0.88392   0.01106   0.73693   0.00000  Uiso   1.00
H565   H     0.85288   0.29399   0.65038   0.00000  Uiso   1.00
H566   H     0.92765   0.28807   0.64523   0.00000  Uiso   1.00
H567   H     0.89753   0.01763   0.63808   0.00000  Uiso   1.00
H568   H     0.82330   0.12500   0.70828   0.00000  Uiso   1.00
H569   H     0.84337   0.20834   0.79172   0.00000  Uiso   1.00
H570   H     0.86467   0.05920   0.90667   0.00000  Uiso   1.00
H571   H     0.95527   0.06683   0.97825   0.00000  Uiso   1.00
H572   H     0.87587   0.20217   0.58598   0.00000  Uiso   1.00
H573   H     0.98468   0.21570   0.93200   0.00000  Uiso   1.00
H574   H     0.78510   0.20023   0.57350   0.00000  Uiso   1.00
H575   H     0.69229   0.23121   0.53294   0.00000  Uiso   1.00
N576   N     0.81160   0.15223   0.73543   0.00000  Uiso   1.00
N577   N     0.85507   0.18110   0.76458   0.00000  Uiso   1.00
N578   N     0.91455   0.32508   0.72067   0.00000  Uiso   1.00
O579   O     0.96435   0.24629   0.75358   0.00000  Uiso   1.00
O580   O     0.72408   0.23704   0.74424   0.00000  Uiso   1.00
O581   O     0.98157   0.17358   0.83380   0.00000  Uiso   1.00
O582   O     0.74130   0.16433   0.82446   0.00000  Uiso   1.00
O583   O     0.94258   0.09629   0.75577   0.00000  Uiso   1.00
O584   O     0.70231   0.08704   0.74643   0.00000  Uiso   1.00
O585   O     0.92537   0.16901   0.67554   0.00000  Uiso   1.00
O586   O     0.68510   0.15976   0.66620   0.00000  Uiso   1.00
Zn587  Zn    0.93786   0.17284   0.75624   0.00000  Uiso   1.00
Zn588  Zn    0.72881   0.16049   0.74377   0.00000  Uiso   1.00
C589   C     0.01393   0.59802   0.74607   0.00000  Uiso   1.00
C590   C     0.05295   0.50133   0.91606   0.00000  Uiso   1.00
C591   C     0.02046   0.65256   0.74379   0.00000  Uiso   1.00
C592   C     0.03532   0.50123   0.85517   0.00000  Uiso   1.00
C593   C     0.30672   0.34717   0.73886   0.00000  Uiso   1.00
C594   C     0.31764   0.40172   0.74880   0.00000  Uiso   1.00
C595   C     0.29745   0.49606   0.64484   0.00000  Uiso   1.00
C596   C     0.26982   0.42876   0.50188   0.00000  Uiso   1.00
C597   C     0.27656   0.48540   0.58511   0.00000  Uiso   1.00
C598   C     0.02430   0.53162   0.94988   0.00000  Uiso   1.00
C599   C     0.04801   0.54161   0.50669   0.00000  Uiso   1.00
C600   C     0.13188   0.49442   0.99511   0.00000  Uiso   1.00
C601   C     0.10193   0.52424   0.52918   0.00000  Uiso   1.00
C602   C     0.23080   0.64739   0.66041   0.00000  Uiso   1.00
C603   C     0.10333   0.47767   0.94012   0.00000  Uiso   1.00
C604   C     0.18934   0.48089   0.51360   0.00000  Uiso   1.00
C605   C     0.21361   0.44387   0.98173   0.00000  Uiso   1.00
C606   C     0.18098   0.42193   0.93090   0.00000  Uiso   1.00
C607   C     0.12647   0.43872   0.91013   0.00000  Uiso   1.00
C608   C     0.22377   0.50415   0.56265   0.00000  Uiso   1.00
C609   C     0.30077   0.44855   0.55441   0.00000  Uiso   1.00
H610   H     0.00862   0.43353   0.57199   0.00000  Uiso   1.00
H611   H     0.10235   0.42054   0.87061   0.00000  Uiso   1.00
H612   H     0.06506   0.33688   0.75263   0.00000  Uiso   1.00
H613   H     0.21725   0.34439   0.73693   0.00000  Uiso   1.00
H614   H     0.18621   0.62732   0.65038   0.00000  Uiso   1.00
H615   H     0.26098   0.62141   0.64523   0.00000  Uiso   1.00
H616   H     0.23087   0.35096   0.63808   0.00000  Uiso   1.00
H617   H     0.15663   0.45833   0.70828   0.00000  Uiso   1.00
H618   H     0.17670   0.54167   0.79172   0.00000  Uiso   1.00
H619   H     0.19801   0.39254   0.90667   0.00000  Uiso   1.00
H620   H     0.28860   0.40017   0.97825   0.00000  Uiso   1.00
H621   H     0.20920   0.53551   0.58598   0.00000  Uiso   1.00
H622   H     0.31801   0.54904   0.93200   0.00000  Uiso   1.00
H623   H     0.11843   0.53356   0.57350   0.00000  Uiso   1.00
H624   H     0.02562   0.56454   0.53294   0.00000  Uiso   1.00
N625   N     0.14493   0.48556   0.73543   0.00000  Uiso   1.00
N626   N     0.18840   0.51444   0.76458   0.00000  Uiso   1.00
N627   N     0.24788   0.65841   0.72067   0.00000  Uiso   1.00
O628   O     0.29769   0.57963   0.75358   0.00000  Uiso   1.00
O629   O     0.05742   0.57038   0.74424   0.00000  Uiso   1.00
O630   O     0.31490   0.50691   0.83380   0.00000  Uiso   1.00
O631   O     0.07463   0.49766   0.82446   0.00000  Uiso   1.00
O632   O     0.27592   0.42962   0.75577   0.00000  Uiso   1.00
O633   O     0.03565   0.42037   0.74643   0.00000  Uiso   1.00
O634   O     0.25870   0.50234   0.67554   0.00000  Uiso   1.00
O635   O     0.01843   0.49309   0.66620   0.00000  Uiso   1.00
Zn636  Zn    0.27119   0.50618   0.75624   0.00000  Uiso   1.00
Zn637  Zn    0.06214   0.49382   0.74377   0.00000  Uiso   1.00
C638   C     0.34727   0.59802   0.74607   0.00000  Uiso   1.00
C639   C     0.38628   0.50133   0.91606   0.00000  Uiso   1.00
C640   C     0.35379   0.65256   0.74379   0.00000  Uiso   1.00
C641   C     0.36865   0.50123   0.85517   0.00000  Uiso   1.00
C642   C     0.64005   0.34717   0.73886   0.00000  Uiso   1.00
C643   C     0.65097   0.40172   0.74880   0.00000  Uiso   1.00
C644   C     0.63079   0.49606   0.64484   0.00000  Uiso   1.00
C645   C     0.60315   0.42876   0.50188   0.00000  Uiso   1.00
C646   C     0.60990   0.48540   0.58511   0.00000  Uiso   1.00
C647   C     0.35764   0.53162   0.94988   0.00000  Uiso   1.00
C648   C     0.38134   0.54161   0.50669   0.00000  Uiso   1.00
C649   C     0.46521   0.49442   0.99511   0.00000  Uiso   1.00
C650   C     0.43527   0.52424   0.52918   0.00000  Uiso   1.00
C651   C     0.56414   0.64739   0.66041   0.00000  Uiso   1.00
C652   C     0.43667   0.47767   0.94012   0.00000  Uiso   1.00
C653   C     0.52268   0.48089   0.51360   0.00000  Uiso   1.00
C654   C     0.54694   0.44387   0.98173   0.00000  Uiso   1.00
C655   C     0.51432   0.42193   0.93090   0.00000  Uiso   1.00
C656   C     0.45981   0.43872   0.91013   0.00000  Uiso   1.00
C657   C     0.55710   0.50415   0.56265   0.00000  Uiso   1.00
C658   C     0.63410   0.44855   0.55441   0.00000  Uiso   1.00
H659   H     0.34195   0.43353   0.57199   0.00000  Uiso   1.00
H660   H     0.43568   0.42054   0.87061   0.00000  Uiso   1.00
H661   H     0.39840   0.33688   0.75263   0.00000  Uiso   1.00
H662   H     0.55059   0.34439   0.73693   0.00000  Uiso   1.00
H663   H     0.51955   0.62732   0.65038   0.00000  Uiso   1.00
H664   H     0.59432   0.62141   0.64523   0.00000  Uiso   1.00
H665   H     0.56420   0.35096   0.63808   0.00000  Uiso   1.00
H666   H     0.48997   0.45833   0.70828   0.00000  Uiso   1.00
H667   H     0.51004   0.54167   0.79172   0.00000  Uiso   1.00
H668   H     0.53134   0.39254   0.90667   0.00000  Uiso   1.00
H669   H     0.62194   0.40017   0.97825   0.00000  Uiso   1.00
H670   H     0.54254   0.53551   0.58598   0.00000  Uiso   1.00
H671   H     0.65134   0.54904   0.93200   0.00000  Uiso   1.00
H672   H     0.45177   0.53356   0.57350   0.00000  Uiso   1.00
H673   H     0.35896   0.56454   0.53294   0.00000  Uiso   1.00
N674   N     0.47827   0.48556   0.73543   0.00000  Uiso   1.00
N675   N     0.52173   0.51444   0.76458   0.00000  Uiso   1.00
N676   N     0.58121   0.65841   0.72067   0.00000  Uiso   1.00
O677   O     0.63102   0.57963   0.75358   0.00000  Uiso   1.00
O678   O     0.39075   0.57038   0.74424   0.00000  Uiso   1.00
O679   O     0.64823   0.50691   0.83380   0.00000  Uiso   1.00
O680   O     0.40796   0.49766   0.82446   0.00000  Uiso   1.00
O681   O     0.60925   0.42962   0.75577   0.00000  Uiso   1.00
O682   O     0.36898   0.42037   0.74643   0.00000  Uiso   1.00
O683   O     0.59204   0.50234   0.67554   0.00000  Uiso   1.00
O684   O     0.35177   0.49309   0.66620   0.00000  Uiso   1.00
Zn685  Zn    0.60453   0.50618   0.75624   0.00000  Uiso   1.00
Zn686  Zn    0.39547   0.49382   0.74377   0.00000  Uiso   1.00
C687   C     0.68060   0.59802   0.74607   0.00000  Uiso   1.00
C688   C     0.71961   0.50133   0.91606   0.00000  Uiso   1.00
C689   C     0.68713   0.65256   0.74379   0.00000  Uiso   1.00
C690   C     0.70198   0.50123   0.85517   0.00000  Uiso   1.00
C691   C     0.97339   0.34717   0.73886   0.00000  Uiso   1.00
C692   C     0.98430   0.40172   0.74880   0.00000  Uiso   1.00
C693   C     0.96412   0.49606   0.64484   0.00000  Uiso   1.00
C694   C     0.93648   0.42876   0.50188   0.00000  Uiso   1.00
C695   C     0.94323   0.48540   0.58511   0.00000  Uiso   1.00
C696   C     0.69097   0.53162   0.94988   0.00000  Uiso   1.00
C697   C     0.71468   0.54161   0.50669   0.00000  Uiso   1.00
C698   C     0.79855   0.49442   0.99511   0.00000  Uiso   1.00
C699   C     0.76860   0.52424   0.52918   0.00000  Uiso   1.00
C700   C     0.89747   0.64739   0.66041   0.00000  Uiso   1.00
C701   C     0.77000   0.47767   0.94012   0.00000  Uiso   1.00
C702   C     0.85601   0.48089   0.51360   0.00000  Uiso   1.00
C703   C     0.88028   0.44387   0.98173   0.00000  Uiso   1.00
C704   C     0.84765   0.42193   0.93090   0.00000  Uiso   1.00
C705   C     0.79314   0.43872   0.91013   0.00000  Uiso   1.00
C706   C     0.89044   0.50415   0.56265   0.00000  Uiso   1.00
C707   C     0.96744   0.44855   0.55441   0.00000  Uiso   1.00
H708   H     0.67529   0.43353   0.57199   0.00000  Uiso   1.00
H709   H     0.76901   0.42054   0.87061   0.00000  Uiso   1.00
H710   H     0.73173   0.33688   0.75263   0.00000  Uiso   1.00
H711   H     0.88392   0.34439   0.73693   0.00000  Uiso   1.00
H712   H     0.85288   0.62732   0.65038   0.00000  Uiso   1.00
H713   H     0.92765   0.62141   0.64523   0.00000  Uiso   1.00
H714   H     0.89753   0.35096   0.63808   0.00000  Uiso   1.00
H715   H     0.82330   0.45833   0.70828   0.00000  Uiso   1.00
H716   H     0.84337   0.54167   0.79172   0.00000  Uiso   1.00
H717   H     0.86467   0.39254   0.90667   0.00000  Uiso   1.00
H718   H     0.95527   0.40017   0.97825   0.00000  Uiso   1.00
H719   H     0.87587   0.53551   0.58598   0.00000  Uiso   1.00
H720   H     0.98468   0.54904   0.93200   0.00000  Uiso   1.00
H721   H     0.78510   0.53356   0.57350   0.00000  Uiso   1.00
H722   H     0.69229   0.56454   0.53294   0.00000  Uiso   1.00
N723   N     0.81160   0.48556   0.73543   0.00000  Uiso   1.00
N724   N     0.85507   0.51444   0.76458   0.00000  Uiso   1.00
N725   N     0.91455   0.65841   0.72067   0.00000  Uiso   1.00
O726   O     0.96435   0.57963   0.75358   0.00000  Uiso   1.00
O727   O     0.72408   0.57038   0.74424   0.00000  Uiso   1.00
O728   O     0.98157   0.50691   0.83380   0.00000  Uiso   1.00
O729   O     0.74130   0.49766   0.82446   0.00000  Uiso   1.00
O730   O     0.94258   0.42962   0.75577   0.00000  Uiso   1.00
O731   O     0.70231   0.42037   0.74643   0.00000  Uiso   1.00
O732   O     0.92537   0.50234   0.67554   0.00000  Uiso   1.00
O733   O     0.68510   0.49309   0.66620   0.00000  Uiso   1.00
Zn734  Zn    0.93786   0.50618   0.75624   0.00000  Uiso   1.00
Zn735  Zn    0.72881   0.49382   0.74377   0.00000  Uiso   1.00
C736   C     0.01393   0.93135   0.74607   0.00000  Uiso   1.00
C737   C     0.05295   0.83466   0.91606   0.00000  Uiso   1.00
C738   C     0.02046   0.98590   0.74379   0.00000  Uiso   1.00
C739   C     0.03532   0.83456   0.85517   0.00000  Uiso   1.00
C740   C     0.30672   0.68050   0.73886   0.00000  Uiso   1.00
C741   C     0.31764   0.73505   0.74880   0.00000  Uiso   1.00
C742   C     0.29745   0.82939   0.64484   0.00000  Uiso   1.00
C743   C     0.26982   0.76209   0.50188   0.00000  Uiso   1.00
C744   C     0.27656   0.81874   0.58511   0.00000  Uiso   1.00
C745   C     0.02430   0.86496   0.94988   0.00000  Uiso   1.00
C746   C     0.04801   0.87495   0.50669   0.00000  Uiso   1.00
C747   C     0.13188   0.82775   0.99511   0.00000  Uiso   1.00
C748   C     0.10193   0.85757   0.52918   0.00000  Uiso   1.00
C749   C     0.23080   0.98072   0.66041   0.00000  Uiso   1.00
C750   C     0.10333   0.81100   0.94012   0.00000  Uiso   1.00
C751   C     0.18934   0.81423   0.51360   0.00000  Uiso   1.00
C752   C     0.21361   0.77720   0.98173   0.00000  Uiso   1.00
C753   C     0.18098   0.75526   0.93090   0.00000  Uiso   1.00
C754   C     0.12647   0.77206   0.91013   0.00000  Uiso   1.00
C755   C     0.22377   0.83749   0.56265   0.00000  Uiso   1.00
C756   C     0.30077   0.78189   0.55441   0.00000  Uiso   1.00
H757   H     0.00862   0.76687   0.57199   0.00000  Uiso   1.00
H758   H     0.10235   0.75387   0.87061   0.00000  Uiso   1.00
H759   H     0.06506   0.67021   0.75263   0.00000  Uiso   1.00
H760   H     0.21725   0.67772   0.73693   0.00000  Uiso   1.00
H761   H     0.18621   0.96065   0.65038   0.00000  Uiso   1.00
H762   H     0.26098   0.95474   0.64523   0.00000  Uiso   1.00
H763   H     0.23087   0.68429   0.63808   0.00000  Uiso   1.00
H764   H     0.15663   0.79167   0.70828   0.00000  Uiso   1.00
H765   H     0.17670   0.87500   0.79172   0.00000  Uiso   1.00
H766   H     0.19801   0.72587   0.90667   0.00000  Uiso   1.00
H767   H     0.28860   0.73350   0.97825   0.00000  Uiso   1.00
H768   H     0.20920   0.86884   0.58598   0.00000  Uiso   1.00
H769   H     0.31801   0.88237   0.93200   0.00000  Uiso   1.00
H770   H     0.11843   0.86689   0.57350   0.00000  Uiso   1.00
H771   H     0.02562   0.89788   0.53294   0.00000  Uiso   1.00
N772   N     0.14493   0.81890   0.73543   0.00000  Uiso   1.00
N773   N     0.18840   0.84777   0.76458   0.00000  Uiso   1.00
N774   N     0.24788   0.99175   0.72067   0.00000  Uiso   1.00
O775   O     0.29769   0.91296   0.75358   0.00000  Uiso   1.00
O776   O     0.05742   0.90371   0.74424   0.00000  Uiso   1.00
O777   O     0.31490   0.84024   0.83380   0.00000  Uiso   1.00
O778   O     0.07463   0.83099   0.82446   0.00000  Uiso   1.00
O779   O     0.27592   0.76296   0.75577   0.00000  Uiso   1.00
O780   O     0.03565   0.75371   0.74643   0.00000  Uiso   1.00
O781   O     0.25870   0.83567   0.67554   0.00000  Uiso   1.00
O782   O     0.01843   0.82642   0.66620   0.00000  Uiso   1.00
Zn783  Zn    0.27119   0.83951   0.75624   0.00000  Uiso   1.00
Zn784  Zn    0.06214   0.82716   0.74377   0.00000  Uiso   1.00
C785   C     0.34727   0.93135   0.74607   0.00000  Uiso   1.00
C786   C     0.38628   0.83466   0.91606   0.00000  Uiso   1.00
C787   C     0.35379   0.98590   0.74379   0.00000  Uiso   1.00
C788   C     0.36865   0.83456   0.85517   0.00000  Uiso   1.00
C789   C     0.64005   0.68050   0.73886   0.00000  Uiso   1.00
C790   C     0.65097   0.73505   0.74880   0.00000  Uiso   1.00
C791   C     0.63079   0.82939   0.64484   0.00000  Uiso   1.00
C792   C     0.60315   0.76209   0.50188   0.00000  Uiso   1.00
C793   C     0.60990   0.81874   0.58511   0.00000  Uiso   1.00
C794   C     0.35764   0.86496   0.94988   0.00000  Uiso   1.00
C795   C     0.38134   0.87495   0.50669   0.00000  Uiso   1.00
C796   C     0.46521   0.82775   0.99511   0.00000  Uiso   1.00
C797   C     0.43527   0.85757   0.52918   0.00000  Uiso   1.00
C798   C     0.56414   0.98072   0.66041   0.00000  Uiso   1.00
C799   C     0.43667   0.81100   0.94012   0.00000  Uiso   1.00
C800   C     0.52268   0.81423   0.51360   0.00000  Uiso   1.00
C801   C     0.54694   0.77720   0.98173   0.00000  Uiso   1.00
C802   C     0.51432   0.75526   0.93090   0.00000  Uiso   1.00
C803   C     0.45981   0.77206   0.91013   0.00000  Uiso   1.00
C804   C     0.55710   0.83749   0.56265   0.00000  Uiso   1.00
C805   C     0.63410   0.78189   0.55441   0.00000  Uiso   1.00
H806   H     0.34195   0.76687   0.57199   0.00000  Uiso   1.00
H807   H     0.43568   0.75387   0.87061   0.00000  Uiso   1.00
H808   H     0.39840   0.67021   0.75263   0.00000  Uiso   1.00
H809   H     0.55059   0.67772   0.73693   0.00000  Uiso   1.00
H810   H     0.51955   0.96065   0.65038   0.00000  Uiso   1.00
H811   H     0.59432   0.95474   0.64523   0.00000  Uiso   1.00
H812   H     0.56420   0.68429   0.63808   0.00000  Uiso   1.00
H813   H     0.48997   0.79167   0.70828   0.00000  Uiso   1.00
H814   H     0.51004   0.87500   0.79172   0.00000  Uiso   1.00
H815   H     0.53134   0.72587   0.90667   0.00000  Uiso   1.00
H816   H     0.62194   0.73350   0.97825   0.00000  Uiso   1.00
H817   H     0.54254   0.86884   0.58598   0.00000  Uiso   1.00
H818   H     0.65134   0.88237   0.93200   0.00000  Uiso   1.00
H819   H     0.45177   0.86689   0.57350   0.00000  Uiso   1.00
H820   H     0.35896   0.89788   0.53294   0.00000  Uiso   1.00
N821   N     0.47827   0.81890   0.73543   0.00000  Uiso   1.00
N822   N     0.52173   0.84777   0.76458   0.00000  Uiso   1.00
N823   N     0.58121   0.99175   0.72067   0.00000  Uiso   1.00
O824   O     0.63102   0.91296   0.75358   0.00000  Uiso   1.00
O825   O     0.39075   0.90371   0.74424   0.00000  Uiso   1.00
O826   O     0.64823   0.84024   0.83380   0.00000  Uiso   1.00
O827   O     0.40796   0.83099   0.82446   0.00000  Uiso   1.00
O828   O     0.60925   0.76296   0.75577   0.00000  Uiso   1.00
O829   O     0.36898   0.75371   0.74643   0.00000  Uiso   1.00
O830   O     0.59204   0.83567   0.67554   0.00000  Uiso   1.00
O831   O     0.35177   0.82642   0.66620   0.00000  Uiso   1.00
Zn832  Zn    0.60453   0.83951   0.75624   0.00000  Uiso   1.00
Zn833  Zn    0.39547   0.82716   0.74377   0.00000  Uiso   1.00
C834   C     0.68060   0.93135   0.74607   0.00000  Uiso   1.00
C835   C     0.71961   0.83466   0.91606   0.00000  Uiso   1.00
C836   C     0.68713   0.98590   0.74379   0.00000  Uiso   1.00
C837   C     0.70198   0.83456   0.85517   0.00000  Uiso   1.00
C838   C     0.97339   0.68050   0.73886   0.00000  Uiso   1.00
C839   C     0.98430   0.73505   0.74880   0.00000  Uiso   1.00
C840   C     0.96412   0.82939   0.64484   0.00000  Uiso   1.00
C841   C     0.93648   0.76209   0.50188   0.00000  Uiso   1.00
C842   C     0.94323   0.81874   0.58511   0.00000  Uiso   1.00
C843   C     0.69097   0.86496   0.94988   0.00000  Uiso   1.00
C844   C     0.71468   0.87495   0.50669   0.00000  Uiso   1.00
C845   C     0.79855   0.82775   0.99511   0.00000  Uiso   1.00
C846   C     0.76860   0.85757   0.52918   0.00000  Uiso   1.00
C847   C     0.89747   0.98072   0.66041   0.00000  Uiso   1.00
C848   C     0.77000   0.81100   0.94012   0.00000  Uiso   1.00
C849   C     0.85601   0.81423   0.51360   0.00000  Uiso   1.00
C850   C     0.88028   0.77720   0.98173   0.00000  Uiso   1.00
C851   C     0.84765   0.75526   0.93090   0.00000  Uiso   1.00
C852   C     0.79314   0.77206   0.91013   0.00000  Uiso   1.00
C853   C     0.89044   0.83749   0.56265   0.00000  Uiso   1.00
C854   C     0.96744   0.78189   0.55441   0.00000  Uiso   1.00
H855   H     0.67529   0.76687   0.57199   0.00000  Uiso   1.00
H856   H     0.76901   0.75387   0.87061   0.00000  Uiso   1.00
H857   H     0.73173   0.67021   0.75263   0.00000  Uiso   1.00
H858   H     0.88392   0.67772   0.73693   0.00000  Uiso   1.00
H859   H     0.85288   0.96065   0.65038   0.00000  Uiso   1.00
H860   H     0.92765   0.95474   0.64523   0.00000  Uiso   1.00
H861   H     0.89753   0.68429   0.63808   0.00000  Uiso   1.00
H862   H     0.82330   0.79167   0.70828   0.00000  Uiso   1.00
H863   H     0.84337   0.87500   0.79172   0.00000  Uiso   1.00
H864   H     0.86467   0.72587   0.90667   0.00000  Uiso   1.00
H865   H     0.95527   0.73350   0.97825   0.00000  Uiso   1.00
H866   H     0.87587   0.86884   0.58598   0.00000  Uiso   1.00
H867   H     0.98468   0.88237   0.93200   0.00000  Uiso   1.00
H868   H     0.78510   0.86689   0.57350   0.00000  Uiso   1.00
H869   H     0.69229   0.89788   0.53294   0.00000  Uiso   1.00
N870   N     0.81160   0.81890   0.73543   0.00000  Uiso   1.00
N871   N     0.85507   0.84777   0.76458   0.00000  Uiso   1.00
N872   N     0.91455   0.99175   0.72067   0.00000  Uiso   1.00
O873   O     0.96435   0.91296   0.75358   0.00000  Uiso   1.00
O874   O     0.72408   0.90371   0.74424   0.00000  Uiso   1.00
O875   O     0.98157   0.84024   0.83380   0.00000  Uiso   1.00
O876   O     0.74130   0.83099   0.82446   0.00000  Uiso   1.00
O877   O     0.94258   0.76296   0.75577   0.00000  Uiso   1.00
O878   O     0.70231   0.75371   0.74643   0.00000  Uiso   1.00
O879   O     0.92537   0.83567   0.67554   0.00000  Uiso   1.00
O880   O     0.68510   0.82642   0.66620   0.00000  Uiso   1.00
Zn881  Zn    0.93786   0.83951   0.75624   0.00000  Uiso   1.00
Zn882  Zn    0.72881   0.82716   0.74377   0.00000  Uiso   1.00
loop_
_geom_bond_atom_site_label_1
_geom_bond_atom_site_label_2
_geom_bond_distance
_geom_bond_site_symmetry_2
_ccdc_geom_bond_type
C1     O41     1.292   .     A
C1     C3      1.406   .     S
C1     O138    1.272   1_455 S
C2     C4      1.452   .     S
C2     C15     1.406   .     A
C2     C10     1.403   .     A
C3     C250    1.350   1_455 S
C3     H171    1.088   .     S
C4     O43     1.298   .     A
C4     O140    1.289   1_455 S
C5     C6      1.411   .     S
C5     C346    1.350   1_545 S
C5     N333    1.433   1_545 S
C6     O44     1.288   .     A
C6     O94     1.277   .     S
C7     O46     1.296   .     A
C7     C9      1.443   .     S
C7     O96     1.288   .     S
C8     C21     1.393   .     A
C8     C458    1.404   1_554 S
C8     H473    1.084   1_554 S
C9     C20     1.382   .     A
C9     C21     1.400   .     A
C10    C452    1.387   .     S
C10    H132    1.083   1_455 S
C11    C13     1.390   .     A
C11    H36     1.083   .     S
C11    C451    1.387   1_554 S
C12    C15     1.405   .     A
C12    C454    1.420   .     S
C12    C457    1.410   .     S
C13    H35     1.079   .     S
C13    C453    1.420   1_554 S
C14    H27     1.111   .     S
C14    N39     1.447   .     S
C14    H26     1.110   .     S
C14    H175    1.112   .     S
C15    C19     1.415   .     A
C16    C20     1.386   .     A
C16    C453    1.410   1_554 S
C16    C458    1.421   1_554 S
C17    C18     1.392   .     A
C17    C449    1.404   .     S
C17    C457    1.421   .     S
C18    C19     1.388   .     A
C18    H31     1.084   .     S
C19    H23     1.082   .     S
C20    H33     1.080   .     S
C21    H71     1.083   .     S
H22    C119    1.083   1_455 S
H24    C297    1.088   1_545 S
H25    N333    1.032   1_545 S
H28    C308    1.112   1_545 S
H29    N37     1.029   .     S
H30    N38     1.029   .     S
H32    C449    1.084   .     S
H34    C59     1.083   .     S
N37    N38     1.288   .     D
N37    Zn49    2.017   .     S
N38    Zn48    2.017   .     S
N39    C152    1.433   .     S
N39    H172    1.032   .     S
O40    Zn48    1.954   .     S
O40    C50     1.272   .     S
O41    Zn49    1.981   .     S
O42    Zn48    1.957   .     S
O42    C53     1.289   .     S
O43    Zn49    1.916   .     S
O44    Zn48    1.981   .     S
O45    Zn49    1.954   .     S
O45    C104    1.277   1_455 S
O46    Zn48    1.916   .     S
O47    Zn49    1.957   .     S
O47    C105    1.288   1_455 S
C50    O90     1.292   .     A
C50    C52     1.406   .     S
C51    C53     1.452   .     S
C51    C64     1.406   .     A
C51    C59     1.403   .     A
C52    C152    1.350   .     S
C52    H220    1.088   .     S
C53    O92     1.298   .     A
C54    C55     1.411   .     S
C54    C395    1.350   1_545 S
C54    N382    1.433   1_545 S
C55    O93     1.288   .     A
C55    O143    1.277   .     S
C56    O95     1.296   .     A
C56    C58     1.443   .     S
C56    O145    1.288   .     S
C57    C70     1.393   .     A
C57    C507    1.404   1_554 S
C57    H522    1.084   1_554 S
C58    C69     1.382   .     A
C58    C70     1.400   .     A
C59    C501    1.387   .     S
C60    C62     1.390   .     A
C60    H85     1.083   .     S
C60    C500    1.387   1_554 S
C61    C64     1.405   .     A
C61    C503    1.420   .     S
C61    C506    1.410   .     S
C62    H84     1.079   .     S
C62    C502    1.420   1_554 S
C63    H76     1.111   .     S
C63    N88     1.447   .     S
C63    H75     1.110   .     S
C63    H224    1.112   .     S
C64    C68     1.415   .     A
C65    C69     1.386   .     A
C65    C502    1.410   1_554 S
C65    C507    1.421   1_554 S
C66    C67     1.392   .     A
C66    C498    1.404   .     S
C66    C506    1.421   .     S
C67    C68     1.388   .     A
C67    H80     1.084   .     S
C68    H72     1.082   .     S
C69    H82     1.080   .     S
C70    H120    1.083   .     S
H73    C346    1.088   1_545 S
H74    N382    1.032   1_545 S
H77    C357    1.112   1_545 S
H78    N86     1.029   .     S
H79    N87     1.029   .     S
H81    C498    1.084   .     S
H83    C108    1.083   .     S
N86    N87     1.288   .     D
N86    Zn98    2.017   .     S
N87    Zn97    2.017   .     S
N88    C201    1.433   .     S
N88    H221    1.032   .     S
O89    Zn97    1.954   .     S
O89    C99     1.272   .     S
O90    Zn98    1.981   .     S
O91    Zn97    1.957   .     S
O91    C102    1.289   .     S
O92    Zn98    1.916   .     S
O93    Zn97    1.981   .     S
O94    Zn98    1.954   .     S
O95    Zn97    1.916   .     S
O96    Zn98    1.957   .     S
C99    O139    1.292   .     A
C99    C101    1.406   .     S
C100   C102    1.452   .     S
C100   C113    1.406   .     A
C100   C108    1.403   .     A
C101   C201    1.350   .     S
C101   H269    1.088   .     S
C102   O141    1.298   .     A
C103   C104    1.411   .     S
C103   C297    1.350   1_645 S
C103   N431    1.433   1_545 S
C104   O142    1.288   .     A
C104   O45     1.277   1_655 S
C105   O144    1.296   .     A
C105   C107    1.443   .     S
C105   O47     1.288   1_655 S
C106   C119    1.393   .     A
C106   C556    1.404   1_554 S
C106   H571    1.084   1_554 S
C107   C118    1.382   .     A
C107   C119    1.400   .     A
C108   C550    1.387   .     S
C109   C111    1.390   .     A
C109   H134    1.083   .     S
C109   C549    1.387   1_554 S
C110   C113    1.405   .     A
C110   C552    1.420   .     S
C110   C555    1.410   .     S
C111   H133    1.079   .     S
C111   C551    1.420   1_554 S
C112   H125    1.111   .     S
C112   N137    1.447   .     S
C112   H124    1.110   .     S
C112   H273    1.112   .     S
C113   C117    1.415   .     A
C114   C118    1.386   .     A
C114   C551    1.410   1_554 S
C114   C556    1.421   1_554 S
C115   C116    1.392   .     A
C115   C547    1.404   .     S
C115   C555    1.421   .     S
C116   C117    1.388   .     A
C116   H129    1.084   .     S
C117   H121    1.082   .     S
C118   H131    1.080   .     S
C119   H22     1.083   1_655 S
H122   C395    1.088   1_545 S
H123   N431    1.032   1_545 S
H126   C406    1.112   1_545 S
H127   N135    1.029   .     S
H128   N136    1.029   .     S
H130   C547    1.084   .     S
H132   C10     1.083   1_655 S
N135   N136    1.288   .     D
N135   Zn147   2.017   .     S
N136   Zn146   2.017   .     S
N137   C250    1.433   .     S
N137   H270    1.032   .     S
O138   Zn146   1.954   .     S
O138   C1      1.272   1_655 S
O139   Zn147   1.981   .     S
O140   Zn146   1.957   .     S
O140   C4      1.289   1_655 S
O141   Zn147   1.916   .     S
O142   Zn146   1.981   .     S
O143   Zn147   1.954   .     S
O144   Zn146   1.916   .     S
O145   Zn147   1.957   .     S
C148   O188    1.292   .     A
C148   C150    1.406   .     S
C148   O285    1.272   1_455 S
C149   C151    1.452   .     S
C149   C162    1.406   .     A
C149   C157    1.403   .     A
C150   C397    1.350   1_455 S
C150   H318    1.088   .     S
C151   O190    1.298   .     A
C151   O287    1.289   1_455 S
C152   C153    1.411   .     S
C153   O191    1.288   .     A
C153   O241    1.277   .     S
C154   O193    1.296   .     A
C154   C156    1.443   .     S
C154   O243    1.288   .     S
C155   C168    1.393   .     A
C155   C605    1.404   1_554 S
C155   H620    1.084   1_554 S
C156   C167    1.382   .     A
C156   C168    1.400   .     A
C157   C599    1.387   .     S
C157   H279    1.083   1_455 S
C158   C160    1.390   .     A
C158   H183    1.083   .     S
C158   C598    1.387   1_554 S
C159   C162    1.405   .     A
C159   C601    1.420   .     S
C159   C604    1.410   .     S
C160   H182    1.079   .     S
C160   C600    1.420   1_554 S
C161   H174    1.111   .     S
C161   N186    1.447   .     S
C161   H173    1.110   .     S
C161   H322    1.112   .     S
C162   C166    1.415   .     A
C163   C167    1.386   .     A
C163   C600    1.410   1_554 S
C163   C605    1.421   1_554 S
C164   C165    1.392   .     A
C164   C596    1.404   .     S
C164   C604    1.421   .     S
C165   C166    1.388   .     A
C165   H178    1.084   .     S
C166   H170    1.082   .     S
C167   H180    1.080   .     S
C168   H218    1.083   .     S
H169   C266    1.083   1_455 S
H176   N184    1.029   .     S
H177   N185    1.029   .     S
H179   C596    1.084   .     S
H181   C206    1.083   .     S
N184   N185    1.288   .     D
N184   Zn196   2.017   .     S
N185   Zn195   2.017   .     S
N186   C299    1.433   .     S
N186   H319    1.032   .     S
O187   Zn195   1.954   .     S
O187   C197    1.272   .     S
O188   Zn196   1.981   .     S
O189   Zn195   1.957   .     S
O189   C200    1.289   .     S
O190   Zn196   1.916   .     S
O191   Zn195   1.981   .     S
O192   Zn196   1.954   .     S
O192   C251    1.277   1_455 S
O193   Zn195   1.916   .     S
O194   Zn196   1.957   .     S
O194   C252    1.288   1_455 S
C197   O237    1.292   .     A
C197   C199    1.406   .     S
C198   C200    1.452   .     S
C198   C211    1.406   .     A
C198   C206    1.403   .     A
C199   C299    1.350   .     S
C199   H367    1.088   .     S
C200   O239    1.298   .     A
C201   C202    1.411   .     S
C202   O240    1.288   .     A
C202   O290    1.277   .     S
C203   O242    1.296   .     A
C203   C205    1.443   .     S
C203   O292    1.288   .     S
C204   C217    1.393   .     A
C204   C654    1.404   1_554 S
C204   H669    1.084   1_554 S
C205   C216    1.382   .     A
C205   C217    1.400   .     A
C206   C648    1.387   .     S
C207   C209    1.390   .     A
C207   H232    1.083   .     S
C207   C647    1.387   1_554 S
C208   C211    1.405   .     A
C208   C650    1.420   .     S
C208   C653    1.410   .     S
C209   H231    1.079   .     S
C209   C649    1.420   1_554 S
C210   H223    1.111   .     S
C210   N235    1.447   .     S
C210   H222    1.110   .     S
C210   H371    1.112   .     S
C211   C215    1.415   .     A
C212   C216    1.386   .     A
C212   C649    1.410   1_554 S
C212   C654    1.421   1_554 S
C213   C214    1.392   .     A
C213   C645    1.404   .     S
C213   C653    1.421   .     S
C214   C215    1.388   .     A
C214   H227    1.084   .     S
C215   H219    1.082   .     S
C216   H229    1.080   .     S
C217   H267    1.083   .     S
H225   N233    1.029   .     S
H226   N234    1.029   .     S
H228   C645    1.084   .     S
H230   C255    1.083   .     S
N233   N234    1.288   .     D
N233   Zn245   2.017   .     S
N234   Zn244   2.017   .     S
N235   C348    1.433   .     S
N235   H368    1.032   .     S
O236   Zn244   1.954   .     S
O236   C246    1.272   .     S
O237   Zn245   1.981   .     S
O238   Zn244   1.957   .     S
O238   C249    1.289   .     S
O239   Zn245   1.916   .     S
O240   Zn244   1.981   .     S
O241   Zn245   1.954   .     S
O242   Zn244   1.916   .     S
O243   Zn245   1.957   .     S
C246   O286    1.292   .     A
C246   C248    1.406   .     S
C247   C249    1.452   .     S
C247   C260    1.406   .     A
C247   C255    1.403   .     A
C248   C348    1.350   .     S
C248   H416    1.088   .     S
C249   O288    1.298   .     A
C250   C251    1.411   .     S
C250   C3      1.350   1_655 S
C251   O289    1.288   .     A
C251   O192    1.277   1_655 S
C252   O291    1.296   .     A
C252   C254    1.443   .     S
C252   O194    1.288   1_655 S
C253   C266    1.393   .     A
C253   C703    1.404   1_554 S
C253   H718    1.084   1_554 S
C254   C265    1.382   .     A
C254   C266    1.400   .     A
C255   C697    1.387   .     S
C256   C258    1.390   .     A
C256   H281    1.083   .     S
C256   C696    1.387   1_554 S
C257   C260    1.405   .     A
C257   C699    1.420   .     S
C257   C702    1.410   .     S
C258   H280    1.079   .     S
C258   C698    1.420   1_554 S
C259   H272    1.111   .     S
C259   N284    1.447   .     S
C259   H271    1.110   .     S
C259   H420    1.112   .     S
C260   C264    1.415   .     A
C261   C265    1.386   .     A
C261   C698    1.410   1_554 S
C261   C703    1.421   1_554 S
C262   C263    1.392   .     A
C262   C694    1.404   .     S
C262   C702    1.421   .     S
C263   C264    1.388   .     A
C263   H276    1.084   .     S
C264   H268    1.082   .     S
C265   H278    1.080   .     S
C266   H169    1.083   1_655 S
H274   N282    1.029   .     S
H275   N283    1.029   .     S
H277   C694    1.084   .     S
H279   C157    1.083   1_655 S
N282   N283    1.288   .     D
N282   Zn294   2.017   .     S
N283   Zn293   2.017   .     S
N284   C397    1.433   .     S
N284   H417    1.032   .     S
O285   Zn293   1.954   .     S
O285   C148    1.272   1_655 S
O286   Zn294   1.981   .     S
O287   Zn293   1.957   .     S
O287   C151    1.289   1_655 S
O288   Zn294   1.916   .     S
O289   Zn293   1.981   .     S
O290   Zn294   1.954   .     S
O291   Zn293   1.916   .     S
O292   Zn294   1.957   .     S
C295   O335    1.292   .     A
C295   C297    1.406   .     S
C295   O432    1.272   1_455 S
C296   C298    1.452   .     S
C296   C309    1.406   .     A
C296   C304    1.403   .     A
C297   C103    1.350   1_465 S
C297   H24     1.088   1_565 S
C298   O337    1.298   .     A
C298   O434    1.289   1_455 S
C299   C300    1.411   .     S
C300   O338    1.288   .     A
C300   O388    1.277   .     S
C301   O340    1.296   .     A
C301   C303    1.443   .     S
C301   O390    1.288   .     S
C302   C315    1.393   .     A
C302   C752    1.404   1_554 S
C302   H767    1.084   1_554 S
C303   C314    1.382   .     A
C303   C315    1.400   .     A
C304   C746    1.387   .     S
C304   H426    1.083   1_455 S
C305   C307    1.390   .     A
C305   H330    1.083   .     S
C305   C745    1.387   1_554 S
C306   C309    1.405   .     A
C306   C748    1.420   .     S
C306   C751    1.410   .     S
C307   H329    1.079   .     S
C307   C747    1.420   1_554 S
C308   H321    1.111   .     S
C308   N333    1.447   .     S
C308   H320    1.110   .     S
C308   H28     1.112   1_565 S
C309   C313    1.415   .     A
C310   C314    1.386   .     A
C310   C747    1.410   1_554 S
C310   C752    1.421   1_554 S
C311   C312    1.392   .     A
C311   C743    1.404   .     S
C311   C751    1.421   .     S
C312   C313    1.388   .     A
C312   H325    1.084   .     S
C313   H317    1.082   .     S
C314   H327    1.080   .     S
C315   H365    1.083   .     S
H316   C413    1.083   1_455 S
H323   N331    1.029   .     S
H324   N332    1.029   .     S
H326   C743    1.084   .     S
H328   C353    1.083   .     S
N331   N332    1.288   .     D
N331   Zn343   2.017   .     S
N332   Zn342   2.017   .     S
N333   C5      1.433   1_565 S
N333   H25     1.032   1_565 S
O334   Zn342   1.954   .     S
O334   C344    1.272   .     S
O335   Zn343   1.981   .     S
O336   Zn342   1.957   .     S
O336   C347    1.289   .     S
O337   Zn343   1.916   .     S
O338   Zn342   1.981   .     S
O339   Zn343   1.954   .     S
O339   C398    1.277   1_455 S
O340   Zn342   1.916   .     S
O341   Zn343   1.957   .     S
O341   C399    1.288   1_455 S
C344   O384    1.292   .     A
C344   C346    1.406   .     S
C345   C347    1.452   .     S
C345   C358    1.406   .     A
C345   C353    1.403   .     A
C346   C5      1.350   1_565 S
C346   H73     1.088   1_565 S
C347   O386    1.298   .     A
C348   C349    1.411   .     S
C349   O387    1.288   .     A
C349   O437    1.277   .     S
C350   O389    1.296   .     A
C350   C352    1.443   .     S
C350   O439    1.288   .     S
C351   C364    1.393   .     A
C351   C801    1.404   1_554 S
C351   H816    1.084   1_554 S
C352   C363    1.382   .     A
C352   C364    1.400   .     A
C353   C795    1.387   .     S
C354   C356    1.390   .     A
C354   H379    1.083   .     S
C354   C794    1.387   1_554 S
C355   C358    1.405   .     A
C355   C797    1.420   .     S
C355   C800    1.410   .     S
C356   H378    1.079   .     S
C356   C796    1.420   1_554 S
C357   H370    1.111   .     S
C357   N382    1.447   .     S
C357   H369    1.110   .     S
C357   H77     1.112   1_565 S
C358   C362    1.415   .     A
C359   C363    1.386   .     A
C359   C796    1.410   1_554 S
C359   C801    1.421   1_554 S
C360   C361    1.392   .     A
C360   C792    1.404   .     S
C360   C800    1.421   .     S
C361   C362    1.388   .     A
C361   H374    1.084   .     S
C362   H366    1.082   .     S
C363   H376    1.080   .     S
C364   H414    1.083   .     S
H372   N380    1.029   .     S
H373   N381    1.029   .     S
H375   C792    1.084   .     S
H377   C402    1.083   .     S
N380   N381    1.288   .     D
N380   Zn392   2.017   .     S
N381   Zn391   2.017   .     S
N382   C54     1.433   1_565 S
N382   H74     1.032   1_565 S
O383   Zn391   1.954   .     S
O383   C393    1.272   .     S
O384   Zn392   1.981   .     S
O385   Zn391   1.957   .     S
O385   C396    1.289   .     S
O386   Zn392   1.916   .     S
O387   Zn391   1.981   .     S
O388   Zn392   1.954   .     S
O389   Zn391   1.916   .     S
O390   Zn392   1.957   .     S
C393   O433    1.292   .     A
C393   C395    1.406   .     S
C394   C396    1.452   .     S
C394   C407    1.406   .     A
C394   C402    1.403   .     A
C395   C54     1.350   1_565 S
C395   H122    1.088   1_565 S
C396   O435    1.298   .     A
C397   C398    1.411   .     S
C397   C150    1.350   1_655 S
C398   O436    1.288   .     A
C398   O339    1.277   1_655 S
C399   O438    1.296   .     A
C399   C401    1.443   .     S
C399   O341    1.288   1_655 S
C400   C413    1.393   .     A
C400   C850    1.404   1_554 S
C400   H865    1.084   1_554 S
C401   C412    1.382   .     A
C401   C413    1.400   .     A
C402   C844    1.387   .     S
C403   C405    1.390   .     A
C403   H428    1.083   .     S
C403   C843    1.387   1_554 S
C404   C407    1.405   .     A
C404   C846    1.420   .     S
C404   C849    1.410   .     S
C405   H427    1.079   .     S
C405   C845    1.420   1_554 S
C406   H419    1.111   .     S
C406   N431    1.447   .     S
C406   H418    1.110   .     S
C406   H126    1.112   1_565 S
C407   C411    1.415   .     A
C408   C412    1.386   .     A
C408   C845    1.410   1_554 S
C408   C850    1.421   1_554 S
C409   C410    1.392   .     A
C409   C841    1.404   .     S
C409   C849    1.421   .     S
C410   C411    1.388   .     A
C410   H423    1.084   .     S
C411   H415    1.082   .     S
C412   H425    1.080   .     S
C413   H316    1.083   1_655 S
H421   N429    1.029   .     S
H422   N430    1.029   .     S
H424   C841    1.084   .     S
H426   C304    1.083   1_655 S
N429   N430    1.288   .     D
N429   Zn441   2.017   .     S
N430   Zn440   2.017   .     S
N431   C103    1.433   1_565 S
N431   H123    1.032   1_565 S
O432   Zn440   1.954   .     S
O432   C295    1.272   1_655 S
O433   Zn441   1.981   .     S
O434   Zn440   1.957   .     S
O434   C298    1.289   1_655 S
O435   Zn441   1.916   .     S
O436   Zn440   1.981   .     S
O437   Zn441   1.954   .     S
O438   Zn440   1.916   .     S
O439   Zn441   1.957   .     S
C442   O482    1.292   .     A
C442   C444    1.406   .     S
C442   O579    1.272   1_455 S
C443   C445    1.452   .     S
C443   C456    1.406   .     A
C443   C451    1.403   .     A
C444   C691    1.350   1_455 S
C444   H612    1.088   .     S
C445   O484    1.298   .     A
C445   O581    1.289   1_455 S
C446   C447    1.411   .     S
C446   C787    1.350   1_545 S
C446   N774    1.433   1_545 S
C447   O485    1.288   .     A
C447   O535    1.277   .     S
C448   O487    1.296   .     A
C448   C450    1.443   .     S
C448   O537    1.288   .     S
C449   C462    1.393   .     A
C450   C461    1.382   .     A
C450   C462    1.400   .     A
C451   C11     1.387   1_556 S
C451   H573    1.083   1_455 S
C452   C454    1.390   .     A
C452   H477    1.083   .     S
C453   C456    1.405   .     A
C453   C13     1.420   1_556 S
C453   C16     1.410   1_556 S
C454   H476    1.079   .     S
C455   H468    1.111   .     S
C455   N480    1.447   .     S
C455   H467    1.110   .     S
C455   H616    1.112   .     S
C456   C460    1.415   .     A
C457   C461    1.386   .     A
C458   C459    1.392   .     A
C458   C8      1.404   1_556 S
C458   C16     1.421   1_556 S
C459   C460    1.388   .     A
C459   H472    1.084   .     S
C460   H464    1.082   .     S
C461   H474    1.080   .     S
C462   H512    1.083   .     S
H463   C560    1.083   1_455 S
H465   C738    1.088   1_545 S
H466   N774    1.032   1_545 S
H469   C749    1.112   1_545 S
H470   N478    1.029   .     S
H471   N479    1.029   .     S
H473   C8      1.084   1_556 S
H475   C500    1.083   .     S
N478   N479    1.288   .     D
N478   Zn490   2.017   .     S
N479   Zn489   2.017   .     S
N480   C593    1.433   .     S
N480   H613    1.032   .     S
O481   Zn489   1.954   .     S
O481   C491    1.272   .     S
O482   Zn490   1.981   .     S
O483   Zn489   1.957   .     S
O483   C494    1.289   .     S
O484   Zn490   1.916   .     S
O485   Zn489   1.981   .     S
O486   Zn490   1.954   .     S
O486   C545    1.277   1_455 S
O487   Zn489   1.916   .     S
O488   Zn490   1.957   .     S
O488   C546    1.288   1_455 S
C491   O531    1.292   .     A
C491   C493    1.406   .     S
C492   C494    1.452   .     S
C492   C505    1.406   .     A
C492   C500    1.403   .     A
C493   C593    1.350   .     S
C493   H661    1.088   .     S
C494   O533    1.298   .     A
C495   C496    1.411   .     S
C495   C836    1.350   1_545 S
C495   N823    1.433   1_545 S
C496   O534    1.288   .     A
C496   O584    1.277   .     S
C497   O536    1.296   .     A
C497   C499    1.443   .     S
C497   O586    1.288   .     S
C498   C511    1.393   .     A
C499   C510    1.382   .     A
C499   C511    1.400   .     A
C500   C60     1.387   1_556 S
C501   C503    1.390   .     A
C501   H526    1.083   .     S
C502   C505    1.405   .     A
C502   C62     1.420   1_556 S
C502   C65     1.410   1_556 S
C503   H525    1.079   .     S
C504   H517    1.111   .     S
C504   N529    1.447   .     S
C504   H516    1.110   .     S
C504   H665    1.112   .     S
C505   C509    1.415   .     A
C506   C510    1.386   .     A
C507   C508    1.392   .     A
C507   C57     1.404   1_556 S
C507   C65     1.421   1_556 S
C508   C509    1.388   .     A
C508   H521    1.084   .     S
C509   H513    1.082   .     S
C510   H523    1.080   .     S
C511   H561    1.083   .     S
H514   C787    1.088   1_545 S
H515   N823    1.032   1_545 S
H518   C798    1.112   1_545 S
H519   N527    1.029   .     S
H520   N528    1.029   .     S
H522   C57     1.084   1_556 S
H524   C549    1.083   .     S
N527   N528    1.288   .     D
N527   Zn539   2.017   .     S
N528   Zn538   2.017   .     S
N529   C642    1.433   .     S
N529   H662    1.032   .     S
O530   Zn538   1.954   .     S
O530   C540    1.272   .     S
O531   Zn539   1.981   .     S
O532   Zn538   1.957   .     S
O532   C543    1.289   .     S
O533   Zn539   1.916   .     S
O534   Zn538   1.981   .     S
O535   Zn539   1.954   .     S
O536   Zn538   1.916   .     S
O537   Zn539   1.957   .     S
C540   O580    1.292   .     A
C540   C542    1.406   .     S
C541   C543    1.452   .     S
C541   C554    1.406   .     A
C541   C549    1.403   .     A
C542   C642    1.350   .     S
C542   H710    1.088   .     S
C543   O582    1.298   .     A
C544   C545    1.411   .     S
C544   C738    1.350   1_645 S
C544   N872    1.433   1_545 S
C545   O583    1.288   .     A
C545   O486    1.277   1_655 S
C546   O585    1.296   .     A
C546   C548    1.443   .     S
C546   O488    1.288   1_655 S
C547   C560    1.393   .     A
C548   C559    1.382   .     A
C548   C560    1.400   .     A
C549   C109    1.387   1_556 S
C550   C552    1.390   .     A
C550   H575    1.083   .     S
C551   C554    1.405   .     A
C551   C111    1.420   1_556 S
C551   C114    1.410   1_556 S
C552   H574    1.079   .     S
C553   H566    1.111   .     S
C553   N578    1.447   .     S
C553   H565    1.110   .     S
C553   H714    1.112   .     S
C554   C558    1.415   .     A
C555   C559    1.386   .     A
C556   C557    1.392   .     A
C556   C106    1.404   1_556 S
C556   C114    1.421   1_556 S
C557   C558    1.388   .     A
C557   H570    1.084   .     S
C558   H562    1.082   .     S
C559   H572    1.080   .     S
C560   H463    1.083   1_655 S
H563   C836    1.088   1_545 S
H564   N872    1.032   1_545 S
H567   C847    1.112   1_545 S
H568   N576    1.029   .     S
H569   N577    1.029   .     S
H571   C106    1.084   1_556 S
H573   C451    1.083   1_655 S
N576   N577    1.288   .     D
N576   Zn588   2.017   .     S
N577   Zn587   2.017   .     S
N578   C691    1.433   .     S
N578   H711    1.032   .     S
O579   Zn587   1.954   .     S
O579   C442    1.272   1_655 S
O580   Zn588   1.981   .     S
O581   Zn587   1.957   .     S
O581   C445    1.289   1_655 S
O582   Zn588   1.916   .     S
O583   Zn587   1.981   .     S
O584   Zn588   1.954   .     S
O585   Zn587   1.916   .     S
O586   Zn588   1.957   .     S
C589   O629    1.292   .     A
C589   C591    1.406   .     S
C589   O726    1.272   1_455 S
C590   C592    1.452   .     S
C590   C603    1.406   .     A
C590   C598    1.403   .     A
C591   C838    1.350   1_455 S
C591   H759    1.088   .     S
C592   O631    1.298   .     A
C592   O728    1.289   1_455 S
C593   C594    1.411   .     S
C594   O632    1.288   .     A
C594   O682    1.277   .     S
C595   O634    1.296   .     A
C595   C597    1.443   .     S
C595   O684    1.288   .     S
C596   C609    1.393   .     A
C597   C608    1.382   .     A
C597   C609    1.400   .     A
C598   C158    1.387   1_556 S
C598   H720    1.083   1_455 S
C599   C601    1.390   .     A
C599   H624    1.083   .     S
C600   C603    1.405   .     A
C600   C160    1.420   1_556 S
C600   C163    1.410   1_556 S
C601   H623    1.079   .     S
C602   H615    1.111   .     S
C602   N627    1.447   .     S
C602   H614    1.110   .     S
C602   H763    1.112   .     S
C603   C607    1.415   .     A
C604   C608    1.386   .     A
C605   C606    1.392   .     A
C605   C155    1.404   1_556 S
C605   C163    1.421   1_556 S
C606   C607    1.388   .     A
C606   H619    1.084   .     S
C607   H611    1.082   .     S
C608   H621    1.080   .     S
C609   H659    1.083   .     S
H610   C707    1.083   1_455 S
H617   N625    1.029   .     S
H618   N626    1.029   .     S
H620   C155    1.084   1_556 S
H622   C647    1.083   .     S
N625   N626    1.288   .     D
N625   Zn637   2.017   .     S
N626   Zn636   2.017   .     S
N627   C740    1.433   .     S
N627   H760    1.032   .     S
O628   Zn636   1.954   .     S
O628   C638    1.272   .     S
O629   Zn637   1.981   .     S
O630   Zn636   1.957   .     S
O630   C641    1.289   .     S
O631   Zn637   1.916   .     S
O632   Zn636   1.981   .     S
O633   Zn637   1.954   .     S
O633   C692    1.277   1_455 S
O634   Zn636   1.916   .     S
O635   Zn637   1.957   .     S
O635   C693    1.288   1_455 S
C638   O678    1.292   .     A
C638   C640    1.406   .     S
C639   C641    1.452   .     S
C639   C652    1.406   .     A
C639   C647    1.403   .     A
C640   C740    1.350   .     S
C640   H808    1.088   .     S
C641   O680    1.298   .     A
C642   C643    1.411   .     S
C643   O681    1.288   .     A
C643   O731    1.277   .     S
C644   O683    1.296   .     A
C644   C646    1.443   .     S
C644   O733    1.288   .     S
C645   C658    1.393   .     A
C646   C657    1.382   .     A
C646   C658    1.400   .     A
C647   C207    1.387   1_556 S
C648   C650    1.390   .     A
C648   H673    1.083   .     S
C649   C652    1.405   .     A
C649   C209    1.420   1_556 S
C649   C212    1.410   1_556 S
C650   H672    1.079   .     S
C651   H664    1.111   .     S
C651   N676    1.447   .     S
C651   H663    1.110   .     S
C651   H812    1.112   .     S
C652   C656    1.415   .     A
C653   C657    1.386   .     A
C654   C655    1.392   .     A
C654   C204    1.404   1_556 S
C654   C212    1.421   1_556 S
C655   C656    1.388   .     A
C655   H668    1.084   .     S
C656   H660    1.082   .     S
C657   H670    1.080   .     S
C658   H708    1.083   .     S
H666   N674    1.029   .     S
H667   N675    1.029   .     S
H669   C204    1.084   1_556 S
H671   C696    1.083   .     S
N674   N675    1.288   .     D
N674   Zn686   2.017   .     S
N675   Zn685   2.017   .     S
N676   C789    1.433   .     S
N676   H809    1.032   .     S
O677   Zn685   1.954   .     S
O677   C687    1.272   .     S
O678   Zn686   1.981   .     S
O679   Zn685   1.957   .     S
O679   C690    1.289   .     S
O680   Zn686   1.916   .     S
O681   Zn685   1.981   .     S
O682   Zn686   1.954   .     S
O683   Zn685   1.916   .     S
O684   Zn686   1.957   .     S
C687   O727    1.292   .     A
C687   C689    1.406   .     S
C688   C690    1.452   .     S
C688   C701    1.406   .     A
C688   C696    1.403   .     A
C689   C789    1.350   .     S
C689   H857    1.088   .     S
C690   O729    1.298   .     A
C691   C692    1.411   .     S
C691   C444    1.350   1_655 S
C692   O730    1.288   .     A
C692   O633    1.277   1_655 S
C693   O732    1.296   .     A
C693   C695    1.443   .     S
C693   O635    1.288   1_655 S
C694   C707    1.393   .     A
C695   C706    1.382   .     A
C695   C707    1.400   .     A
C696   C256    1.387   1_556 S
C697   C699    1.390   .     A
C697   H722    1.083   .     S
C698   C701    1.405   .     A
C698   C258    1.420   1_556 S
C698   C261    1.410   1_556 S
C699   H721    1.079   .     S
C700   H713    1.111   .     S
C700   N725    1.447   .     S
C700   H712    1.110   .     S
C700   H861    1.112   .     S
C701   C705    1.415   .     A
C702   C706    1.386   .     A
C703   C704    1.392   .     A
C703   C253    1.404   1_556 S
C703   C261    1.421   1_556 S
C704   C705    1.388   .     A
C704   H717    1.084   .     S
C705   H709    1.082   .     S
C706   H719    1.080   .     S
C707   H610    1.083   1_655 S
H715   N723    1.029   .     S
H716   N724    1.029   .     S
H718   C253    1.084   1_556 S
H720   C598    1.083   1_655 S
N723   N724    1.288   .     D
N723   Zn735   2.017   .     S
N724   Zn734   2.017   .     S
N725   C838    1.433   .     S
N725   H858    1.032   .     S
O726   Zn734   1.954   .     S
O726   C589    1.272   1_655 S
O727   Zn735   1.981   .     S
O728   Zn734   1.957   .     S
O728   C592    1.289   1_655 S
O729   Zn735   1.916   .     S
O730   Zn734   1.981   .     S
O731   Zn735   1.954   .     S
O732   Zn734   1.916   .     S
O733   Zn735   1.957   .     S
C736   O776    1.292   .     A
C736   C738    1.406   .     S
C736   O873    1.272   1_455 S
C737   C739    1.452   .     S
C737   C750    1.406   .     A
C737   C745    1.403   .     A
C738   C544    1.350   1_465 S
C738   H465    1.088   1_565 S
C739   O778    1.298   .     A
C739   O875    1.289   1_455 S
C740   C741    1.411   .     S
C741   O779    1.288   .     A
C741   O829    1.277   .     S
C742   O781    1.296   .     A
C742   C744    1.443   .     S
C742   O831    1.288   .     S
C743   C756    1.393   .     A
C744   C755    1.382   .     A
C744   C756    1.400   .     A
C745   C305    1.387   1_556 S
C745   H867    1.083   1_455 S
C746   C748    1.390   .     A
C746   H771    1.083   .     S
C747   C750    1.405   .     A
C747   C307    1.420   1_556 S
C747   C310    1.410   1_556 S
C748   H770    1.079   .     S
C749   H762    1.111   .     S
C749   N774    1.447   .     S
C749   H761    1.110   .     S
C749   H469    1.112   1_565 S
C750   C754    1.415   .     A
C751   C755    1.386   .     A
C752   C753    1.392   .     A
C752   C302    1.404   1_556 S
C752   C310    1.421   1_556 S
C753   C754    1.388   .     A
C753   H766    1.084   .     S
C754   H758    1.082   .     S
C755   H768    1.080   .     S
C756   H806    1.083   .     S
H757   C854    1.083   1_455 S
H764   N772    1.029   .     S
H765   N773    1.029   .     S
H767   C302    1.084   1_556 S
H769   C794    1.083   .     S
N772   N773    1.288   .     D
N772   Zn784   2.017   .     S
N773   Zn783   2.017   .     S
N774   C446    1.433   1_565 S
N774   H466    1.032   1_565 S
O775   Zn783   1.954   .     S
O775   C785    1.272   .     S
O776   Zn784   1.981   .     S
O777   Zn783   1.957   .     S
O777   C788    1.289   .     S
O778   Zn784   1.916   .     S
O779   Zn783   1.981   .     S
O780   Zn784   1.954   .     S
O780   C839    1.277   1_455 S
O781   Zn783   1.916   .     S
O782   Zn784   1.957   .     S
O782   C840    1.288   1_455 S
C785   O825    1.292   .     A
C785   C787    1.406   .     S
C786   C788    1.452   .     S
C786   C799    1.406   .     A
C786   C794    1.403   .     A
C787   C446    1.350   1_565 S
C787   H514    1.088   1_565 S
C788   O827    1.298   .     A
C789   C790    1.411   .     S
C790   O828    1.288   .     A
C790   O878    1.277   .     S
C791   O830    1.296   .     A
C791   C793    1.443   .     S
C791   O880    1.288   .     S
C792   C805    1.393   .     A
C793   C804    1.382   .     A
C793   C805    1.400   .     A
C794   C354    1.387   1_556 S
C795   C797    1.390   .     A
C795   H820    1.083   .     S
C796   C799    1.405   .     A
C796   C356    1.420   1_556 S
C796   C359    1.410   1_556 S
C797   H819    1.079   .     S
C798   H811    1.111   .     S
C798   N823    1.447   .     S
C798   H810    1.110   .     S
C798   H518    1.112   1_565 S
C799   C803    1.415   .     A
C800   C804    1.386   .     A
C801   C802    1.392   .     A
C801   C351    1.404   1_556 S
C801   C359    1.421   1_556 S
C802   C803    1.388   .     A
C802   H815    1.084   .     S
C803   H807    1.082   .     S
C804   H817    1.080   .     S
C805   H855    1.083   .     S
H813   N821    1.029   .     S
H814   N822    1.029   .     S
H816   C351    1.084   1_556 S
H818   C843    1.083   .     S
N821   N822    1.288   .     D
N821   Zn833   2.017   .     S
N822   Zn832   2.017   .     S
N823   C495    1.433   1_565 S
N823   H515    1.032   1_565 S
O824   Zn832   1.954   .     S
O824   C834    1.272   .     S
O825   Zn833   1.981   .     S
O826   Zn832   1.957   .     S
O826   C837    1.289   .     S
O827   Zn833   1.916   .     S
O828   Zn832   1.981   .     S
O829   Zn833   1.954   .     S
O830   Zn832   1.916   .     S
O831   Zn833   1.957   .     S
C834   O874    1.292   .     A
C834   C836    1.406   .     S
C835   C837    1.452   .     S
C835   C848    1.406   .     A
C835   C843    1.403   .     A
C836   C495    1.350   1_565 S
C836   H563    1.088   1_565 S
C837   O876    1.298   .     A
C838   C839    1.411   .     S
C838   C591    1.350   1_655 S
C839   O877    1.288   .     A
C839   O780    1.277   1_655 S
C840   O879    1.296   .     A
C840   C842    1.443   .     S
C840   O782    1.288   1_655 S
C841   C854    1.393   .     A
C842   C853    1.382   .     A
C842   C854    1.400   .     A
C843   C403    1.387   1_556 S
C844   C846    1.390   .     A
C844   H869    1.083   .     S
C845   C848    1.405   .     A
C845   C405    1.420   1_556 S
C845   C408    1.410   1_556 S
C846   H868    1.079   .     S
C847   H860    1.111   .     S
C847   N872    1.447   .     S
C847   H859    1.110   .     S
C847   H567    1.112   1_565 S
C848   C852    1.415   .     A
C849   C853    1.386   .     A
C850   C851    1.392   .     A
C850   C400    1.404   1_556 S
C850   C408    1.421   1_556 S
C851   C852    1.388   .     A
C851   H864    1.084   .     S
C852   H856    1.082   .     S
C853   H866    1.080   .     S
C854   H757    1.083   1_655 S
H862   N870    1.029   .     S
H863   N871    1.029   .     S
H865   C400    1.084   1_556 S
H867   C745    1.083   1_655 S
N870   N871    1.288   .     D
N870   Zn882   2.017   .     S
N871   Zn881   2.017   .     S
N872   C544    1.433   1_565 S
N872   H564    1.032   1_565 S
O873   Zn881   1.954   .     S
O873   C736    1.272   1_655 S
O874   Zn882   1.981   .     S
O875   Zn881   1.957   .     S
O875   C739    1.289   1_655 S
O876   Zn882   1.916   .     S
O877   Zn881   1.981   .     S
O878   Zn882   1.954   .     S
O879   Zn881   1.916   .     S
O880   Zn882   1.957   .     S
