data_str_m3_o5_o17_pcu_sym.22
_audit_creation_date              2020-01-03
_audit_creation_method            'Materials Studio'
_symmetry_space_group_name_H-M    'P1'
_symmetry_Int_Tables_number       1
_symmetry_cell_setting            triclinic
loop_
_symmetry_equiv_pos_as_xyz
  x,y,z
_cell_length_a                    30.0080
_cell_length_b                    26.8361
_cell_length_c                    24.3430
_cell_angle_alpha                 90.0041
_cell_angle_beta                  90.0112
_cell_angle_gamma                 90.0072
loop_
_atom_site_label
_atom_site_type_symbol
_atom_site_fract_x
_atom_site_fract_y
_atom_site_fract_z
_atom_site_U_iso_or_equiv
_atom_site_adp_type
_atom_site_occupancy
O1     O     0.25000   0.09512   0.21228   0.00000  Uiso   1.00
O2     O     0.25000   0.23822   0.12105   0.00000  Uiso   1.00
O3     O     0.25000   0.23822   0.21228   0.00000  Uiso   1.00
O4     O     0.25000   0.09512   0.12105   0.00000  Uiso   1.00
H5     H     0.46111   0.04201   0.19220   0.00000  Uiso   1.00
H6     H     0.03890   0.29134   0.14124   0.00000  Uiso   1.00
H7     H     0.46112   0.29132   0.14120   0.00000  Uiso   1.00
H8     H     0.03890   0.04202   0.19215   0.00000  Uiso   1.00
C9     C     0.25000   0.07266   0.16667   0.00000  Uiso   1.00
C10    C     0.25000   0.26067   0.16666   0.00000  Uiso   1.00
O11    O     0.18392   0.16667   0.21230   0.00000  Uiso   1.00
O12    O     0.31607   0.16667   0.12104   0.00000  Uiso   1.00
O13    O     0.31607   0.16667   0.21230   0.00000  Uiso   1.00
O14    O     0.18392   0.16667   0.12104   0.00000  Uiso   1.00
C15    C     0.16350   0.16666   0.16666   0.00000  Uiso   1.00
C16    C     0.33650   0.16667   0.16667   0.00000  Uiso   1.00
Zn17   Zn    0.25000   0.16667   0.22759   0.00000  Uiso   1.00
Zn18   Zn    0.25000   0.16667   0.10574   0.00000  Uiso   1.00
N19    N     0.25000   0.16667   0.02455   0.00000  Uiso   1.00
N20    N     0.25000   0.16667   0.30879   0.00000  Uiso   1.00
C21    C     0.40635   0.21251   0.16169   0.00000  Uiso   1.00
C22    C     0.09365   0.12082   0.17158   0.00000  Uiso   1.00
C23    C     0.40634   0.12083   0.17173   0.00000  Uiso   1.00
C24    C     0.09366   0.21251   0.16169   0.00000  Uiso   1.00
C25    C     0.38401   0.16667   0.16669   0.00000  Uiso   1.00
C26    C     0.11599   0.16666   0.16664   0.00000  Uiso   1.00
C27    C     0.45308   0.12121   0.17409   0.00000  Uiso   1.00
C28    C     0.04692   0.21213   0.15930   0.00000  Uiso   1.00
C29    C     0.45309   0.21212   0.15930   0.00000  Uiso   1.00
C30    C     0.04691   0.12121   0.17401   0.00000  Uiso   1.00
C31    C     0.47648   0.16667   0.16667   0.00000  Uiso   1.00
C32    C     0.02352   0.16667   0.16666   0.00000  Uiso   1.00
C33    C     0.47707   0.07722   0.18376   0.00000  Uiso   1.00
C34    C     0.02294   0.25612   0.14963   0.00000  Uiso   1.00
C35    C     0.47707   0.25611   0.14962   0.00000  Uiso   1.00
C36    C     0.02293   0.07722   0.18372   0.00000  Uiso   1.00
C37    C     0.25000   0.02172   0.16667   0.00000  Uiso   1.00
C38    C     0.25000   0.31161   0.16667   0.00000  Uiso   1.00
C39    C     0.37997   0.26130   0.16044   0.00000  Uiso   1.00
C40    C     0.37010   0.27791   0.10164   0.00000  Uiso   1.00
H41    H     0.40138   0.28545   0.07885   0.00000  Uiso   1.00
H42    H     0.35103   0.24876   0.07946   0.00000  Uiso   1.00
H43    H     0.34977   0.31246   0.10236   0.00000  Uiso   1.00
H44    H     0.34798   0.25802   0.18294   0.00000  Uiso   1.00
H45    H     0.39771   0.29094   0.18333   0.00000  Uiso   1.00
C46    C     0.12003   0.07202   0.17275   0.00000  Uiso   1.00
C47    C     0.12999   0.05540   0.23152   0.00000  Uiso   1.00
H48    H     0.14909   0.08454   0.25368   0.00000  Uiso   1.00
H49    H     0.09874   0.04784   0.25438   0.00000  Uiso   1.00
H50    H     0.15033   0.02086   0.23074   0.00000  Uiso   1.00
H51    H     0.10226   0.04239   0.14989   0.00000  Uiso   1.00
H52    H     0.15198   0.07532   0.15017   0.00000  Uiso   1.00
C53    C     0.37993   0.07204   0.17321   0.00000  Uiso   1.00
C54    C     0.37028   0.05557   0.23213   0.00000  Uiso   1.00
H55    H     0.40170   0.04887   0.25505   0.00000  Uiso   1.00
H56    H     0.35069   0.08447   0.25403   0.00000  Uiso   1.00
H57    H     0.35053   0.02056   0.23165   0.00000  Uiso   1.00
H58    H     0.34785   0.07527   0.15088   0.00000  Uiso   1.00
H59    H     0.39759   0.04236   0.15030   0.00000  Uiso   1.00
C60    C     0.12007   0.26130   0.16040   0.00000  Uiso   1.00
C61    C     0.12990   0.27786   0.10157   0.00000  Uiso   1.00
H62    H     0.14905   0.24875   0.07945   0.00000  Uiso   1.00
H63    H     0.09858   0.28526   0.07875   0.00000  Uiso   1.00
H64    H     0.15015   0.31250   0.10224   0.00000  Uiso   1.00
H65    H     0.10235   0.29096   0.18328   0.00000  Uiso   1.00
H66    H     0.15207   0.25802   0.18289   0.00000  Uiso   1.00
O67    O     0.75000   0.09512   0.21228   0.00000  Uiso   1.00
O68    O     0.75000   0.23822   0.12105   0.00000  Uiso   1.00
O69    O     0.75000   0.23822   0.21228   0.00000  Uiso   1.00
O70    O     0.75000   0.09512   0.12105   0.00000  Uiso   1.00
H71    H     0.96111   0.04201   0.19220   0.00000  Uiso   1.00
H72    H     0.53890   0.29134   0.14124   0.00000  Uiso   1.00
H73    H     0.96112   0.29132   0.14120   0.00000  Uiso   1.00
H74    H     0.53890   0.04202   0.19215   0.00000  Uiso   1.00
C75    C     0.75000   0.07266   0.16667   0.00000  Uiso   1.00
C76    C     0.75000   0.26067   0.16666   0.00000  Uiso   1.00
O77    O     0.68392   0.16667   0.21230   0.00000  Uiso   1.00
O78    O     0.81607   0.16667   0.12104   0.00000  Uiso   1.00
O79    O     0.81607   0.16667   0.21230   0.00000  Uiso   1.00
O80    O     0.68392   0.16667   0.12104   0.00000  Uiso   1.00
C81    C     0.66350   0.16666   0.16666   0.00000  Uiso   1.00
C82    C     0.83650   0.16667   0.16667   0.00000  Uiso   1.00
Zn83   Zn    0.75000   0.16667   0.22759   0.00000  Uiso   1.00
Zn84   Zn    0.75000   0.16667   0.10574   0.00000  Uiso   1.00
N85    N     0.75000   0.16667   0.02455   0.00000  Uiso   1.00
N86    N     0.75000   0.16667   0.30879   0.00000  Uiso   1.00
C87    C     0.90635   0.21251   0.16169   0.00000  Uiso   1.00
C88    C     0.59365   0.12082   0.17158   0.00000  Uiso   1.00
C89    C     0.90634   0.12083   0.17173   0.00000  Uiso   1.00
C90    C     0.59366   0.21251   0.16169   0.00000  Uiso   1.00
C91    C     0.88401   0.16667   0.16669   0.00000  Uiso   1.00
C92    C     0.61599   0.16666   0.16664   0.00000  Uiso   1.00
C93    C     0.95308   0.12121   0.17409   0.00000  Uiso   1.00
C94    C     0.54692   0.21213   0.15930   0.00000  Uiso   1.00
C95    C     0.95309   0.21212   0.15930   0.00000  Uiso   1.00
C96    C     0.54691   0.12121   0.17401   0.00000  Uiso   1.00
C97    C     0.97648   0.16667   0.16667   0.00000  Uiso   1.00
C98    C     0.52352   0.16667   0.16666   0.00000  Uiso   1.00
C99    C     0.97707   0.07722   0.18376   0.00000  Uiso   1.00
C100   C     0.52294   0.25612   0.14963   0.00000  Uiso   1.00
C101   C     0.97707   0.25611   0.14962   0.00000  Uiso   1.00
C102   C     0.52293   0.07722   0.18372   0.00000  Uiso   1.00
C103   C     0.75000   0.02172   0.16667   0.00000  Uiso   1.00
C104   C     0.75000   0.31161   0.16667   0.00000  Uiso   1.00
C105   C     0.87997   0.26130   0.16044   0.00000  Uiso   1.00
C106   C     0.87010   0.27791   0.10164   0.00000  Uiso   1.00
H107   H     0.90138   0.28545   0.07885   0.00000  Uiso   1.00
H108   H     0.85103   0.24876   0.07946   0.00000  Uiso   1.00
H109   H     0.84977   0.31246   0.10236   0.00000  Uiso   1.00
H110   H     0.84798   0.25802   0.18294   0.00000  Uiso   1.00
H111   H     0.89771   0.29094   0.18333   0.00000  Uiso   1.00
C112   C     0.62003   0.07202   0.17275   0.00000  Uiso   1.00
C113   C     0.62999   0.05540   0.23152   0.00000  Uiso   1.00
H114   H     0.64909   0.08454   0.25368   0.00000  Uiso   1.00
H115   H     0.59874   0.04784   0.25438   0.00000  Uiso   1.00
H116   H     0.65033   0.02086   0.23074   0.00000  Uiso   1.00
H117   H     0.60226   0.04239   0.14989   0.00000  Uiso   1.00
H118   H     0.65198   0.07532   0.15017   0.00000  Uiso   1.00
C119   C     0.87993   0.07204   0.17321   0.00000  Uiso   1.00
C120   C     0.87028   0.05557   0.23213   0.00000  Uiso   1.00
H121   H     0.90170   0.04887   0.25505   0.00000  Uiso   1.00
H122   H     0.85069   0.08447   0.25403   0.00000  Uiso   1.00
H123   H     0.85053   0.02056   0.23165   0.00000  Uiso   1.00
H124   H     0.84785   0.07527   0.15088   0.00000  Uiso   1.00
H125   H     0.89759   0.04236   0.15030   0.00000  Uiso   1.00
C126   C     0.62007   0.26130   0.16040   0.00000  Uiso   1.00
C127   C     0.62990   0.27786   0.10157   0.00000  Uiso   1.00
H128   H     0.64905   0.24875   0.07945   0.00000  Uiso   1.00
H129   H     0.59858   0.28526   0.07875   0.00000  Uiso   1.00
H130   H     0.65015   0.31250   0.10224   0.00000  Uiso   1.00
H131   H     0.60235   0.29096   0.18328   0.00000  Uiso   1.00
H132   H     0.65207   0.25802   0.18289   0.00000  Uiso   1.00
O133   O     0.25000   0.42845   0.21228   0.00000  Uiso   1.00
O134   O     0.25000   0.57155   0.12105   0.00000  Uiso   1.00
O135   O     0.25000   0.57155   0.21228   0.00000  Uiso   1.00
O136   O     0.25000   0.42845   0.12105   0.00000  Uiso   1.00
H137   H     0.46111   0.37534   0.19220   0.00000  Uiso   1.00
H138   H     0.03890   0.62467   0.14124   0.00000  Uiso   1.00
H139   H     0.46112   0.62466   0.14120   0.00000  Uiso   1.00
H140   H     0.03890   0.37535   0.19215   0.00000  Uiso   1.00
C141   C     0.25000   0.40600   0.16667   0.00000  Uiso   1.00
C142   C     0.25000   0.59400   0.16666   0.00000  Uiso   1.00
O143   O     0.18392   0.50000   0.21230   0.00000  Uiso   1.00
O144   O     0.31607   0.50000   0.12104   0.00000  Uiso   1.00
O145   O     0.31607   0.50000   0.21230   0.00000  Uiso   1.00
O146   O     0.18392   0.50000   0.12104   0.00000  Uiso   1.00
C147   C     0.16350   0.49999   0.16666   0.00000  Uiso   1.00
C148   C     0.33650   0.50001   0.16667   0.00000  Uiso   1.00
Zn149  Zn    0.25000   0.50000   0.22759   0.00000  Uiso   1.00
Zn150  Zn    0.25000   0.50000   0.10574   0.00000  Uiso   1.00
N151   N     0.25000   0.50000   0.02455   0.00000  Uiso   1.00
N152   N     0.25000   0.50000   0.30879   0.00000  Uiso   1.00
C153   C     0.40635   0.54584   0.16169   0.00000  Uiso   1.00
C154   C     0.09365   0.45415   0.17158   0.00000  Uiso   1.00
C155   C     0.40634   0.45417   0.17173   0.00000  Uiso   1.00
C156   C     0.09366   0.54584   0.16169   0.00000  Uiso   1.00
C157   C     0.38401   0.50000   0.16669   0.00000  Uiso   1.00
C158   C     0.11599   0.50000   0.16664   0.00000  Uiso   1.00
C159   C     0.45308   0.45455   0.17409   0.00000  Uiso   1.00
C160   C     0.04692   0.54546   0.15930   0.00000  Uiso   1.00
C161   C     0.45309   0.54546   0.15930   0.00000  Uiso   1.00
C162   C     0.04691   0.45454   0.17401   0.00000  Uiso   1.00
C163   C     0.47648   0.50000   0.16667   0.00000  Uiso   1.00
C164   C     0.02352   0.50000   0.16666   0.00000  Uiso   1.00
C165   C     0.47707   0.41056   0.18376   0.00000  Uiso   1.00
C166   C     0.02294   0.58945   0.14963   0.00000  Uiso   1.00
C167   C     0.47707   0.58945   0.14962   0.00000  Uiso   1.00
C168   C     0.02293   0.41056   0.18372   0.00000  Uiso   1.00
C169   C     0.25000   0.35505   0.16667   0.00000  Uiso   1.00
C170   C     0.25000   0.64495   0.16667   0.00000  Uiso   1.00
C171   C     0.37997   0.59464   0.16044   0.00000  Uiso   1.00
C172   C     0.37010   0.61124   0.10164   0.00000  Uiso   1.00
H173   H     0.40138   0.61878   0.07885   0.00000  Uiso   1.00
H174   H     0.35103   0.58210   0.07946   0.00000  Uiso   1.00
H175   H     0.34977   0.64579   0.10236   0.00000  Uiso   1.00
H176   H     0.34798   0.59135   0.18294   0.00000  Uiso   1.00
H177   H     0.39771   0.62427   0.18333   0.00000  Uiso   1.00
C178   C     0.12003   0.40536   0.17275   0.00000  Uiso   1.00
C179   C     0.12999   0.38874   0.23152   0.00000  Uiso   1.00
H180   H     0.14909   0.41788   0.25368   0.00000  Uiso   1.00
H181   H     0.09874   0.38117   0.25438   0.00000  Uiso   1.00
H182   H     0.15033   0.35419   0.23074   0.00000  Uiso   1.00
H183   H     0.10226   0.37572   0.14989   0.00000  Uiso   1.00
H184   H     0.15198   0.40866   0.15017   0.00000  Uiso   1.00
C185   C     0.37993   0.40538   0.17321   0.00000  Uiso   1.00
C186   C     0.37028   0.38891   0.23213   0.00000  Uiso   1.00
H187   H     0.40170   0.38220   0.25505   0.00000  Uiso   1.00
H188   H     0.35069   0.41780   0.25403   0.00000  Uiso   1.00
H189   H     0.35053   0.35390   0.23165   0.00000  Uiso   1.00
H190   H     0.34785   0.40860   0.15088   0.00000  Uiso   1.00
H191   H     0.39759   0.37570   0.15030   0.00000  Uiso   1.00
C192   C     0.12007   0.59463   0.16040   0.00000  Uiso   1.00
C193   C     0.12990   0.61120   0.10157   0.00000  Uiso   1.00
H194   H     0.14905   0.58208   0.07945   0.00000  Uiso   1.00
H195   H     0.09858   0.61860   0.07875   0.00000  Uiso   1.00
H196   H     0.15015   0.64583   0.10224   0.00000  Uiso   1.00
H197   H     0.10235   0.62429   0.18328   0.00000  Uiso   1.00
H198   H     0.15207   0.59135   0.18289   0.00000  Uiso   1.00
O199   O     0.75000   0.42845   0.21228   0.00000  Uiso   1.00
O200   O     0.75000   0.57155   0.12105   0.00000  Uiso   1.00
O201   O     0.75000   0.57155   0.21228   0.00000  Uiso   1.00
O202   O     0.75000   0.42845   0.12105   0.00000  Uiso   1.00
H203   H     0.96111   0.37534   0.19220   0.00000  Uiso   1.00
H204   H     0.53890   0.62467   0.14124   0.00000  Uiso   1.00
H205   H     0.96112   0.62466   0.14120   0.00000  Uiso   1.00
H206   H     0.53890   0.37535   0.19215   0.00000  Uiso   1.00
C207   C     0.75000   0.40600   0.16667   0.00000  Uiso   1.00
C208   C     0.75000   0.59400   0.16666   0.00000  Uiso   1.00
O209   O     0.68392   0.50000   0.21230   0.00000  Uiso   1.00
O210   O     0.81607   0.50000   0.12104   0.00000  Uiso   1.00
O211   O     0.81607   0.50000   0.21230   0.00000  Uiso   1.00
O212   O     0.68392   0.50000   0.12104   0.00000  Uiso   1.00
C213   C     0.66350   0.49999   0.16666   0.00000  Uiso   1.00
C214   C     0.83650   0.50001   0.16667   0.00000  Uiso   1.00
Zn215  Zn    0.75000   0.50000   0.22759   0.00000  Uiso   1.00
Zn216  Zn    0.75000   0.50000   0.10574   0.00000  Uiso   1.00
N217   N     0.75000   0.50000   0.02455   0.00000  Uiso   1.00
N218   N     0.75000   0.50000   0.30879   0.00000  Uiso   1.00
C219   C     0.90635   0.54584   0.16169   0.00000  Uiso   1.00
C220   C     0.59365   0.45415   0.17158   0.00000  Uiso   1.00
C221   C     0.90634   0.45417   0.17173   0.00000  Uiso   1.00
C222   C     0.59366   0.54584   0.16169   0.00000  Uiso   1.00
C223   C     0.88401   0.50000   0.16669   0.00000  Uiso   1.00
C224   C     0.61599   0.50000   0.16664   0.00000  Uiso   1.00
C225   C     0.95308   0.45455   0.17409   0.00000  Uiso   1.00
C226   C     0.54692   0.54546   0.15930   0.00000  Uiso   1.00
C227   C     0.95309   0.54546   0.15930   0.00000  Uiso   1.00
C228   C     0.54691   0.45454   0.17401   0.00000  Uiso   1.00
C229   C     0.97648   0.50000   0.16667   0.00000  Uiso   1.00
C230   C     0.52352   0.50000   0.16666   0.00000  Uiso   1.00
C231   C     0.97707   0.41056   0.18376   0.00000  Uiso   1.00
C232   C     0.52294   0.58945   0.14963   0.00000  Uiso   1.00
C233   C     0.97707   0.58945   0.14962   0.00000  Uiso   1.00
C234   C     0.52293   0.41056   0.18372   0.00000  Uiso   1.00
C235   C     0.75000   0.35505   0.16667   0.00000  Uiso   1.00
C236   C     0.75000   0.64495   0.16667   0.00000  Uiso   1.00
C237   C     0.87997   0.59464   0.16044   0.00000  Uiso   1.00
C238   C     0.87010   0.61124   0.10164   0.00000  Uiso   1.00
H239   H     0.90138   0.61878   0.07885   0.00000  Uiso   1.00
H240   H     0.85103   0.58210   0.07946   0.00000  Uiso   1.00
H241   H     0.84977   0.64579   0.10236   0.00000  Uiso   1.00
H242   H     0.84798   0.59135   0.18294   0.00000  Uiso   1.00
H243   H     0.89771   0.62427   0.18333   0.00000  Uiso   1.00
C244   C     0.62003   0.40536   0.17275   0.00000  Uiso   1.00
C245   C     0.62999   0.38874   0.23152   0.00000  Uiso   1.00
H246   H     0.64909   0.41788   0.25368   0.00000  Uiso   1.00
H247   H     0.59874   0.38117   0.25438   0.00000  Uiso   1.00
H248   H     0.65033   0.35419   0.23074   0.00000  Uiso   1.00
H249   H     0.60226   0.37572   0.14989   0.00000  Uiso   1.00
H250   H     0.65198   0.40866   0.15017   0.00000  Uiso   1.00
C251   C     0.87993   0.40538   0.17321   0.00000  Uiso   1.00
C252   C     0.87028   0.38891   0.23213   0.00000  Uiso   1.00
H253   H     0.90170   0.38220   0.25505   0.00000  Uiso   1.00
H254   H     0.85069   0.41780   0.25403   0.00000  Uiso   1.00
H255   H     0.85053   0.35390   0.23165   0.00000  Uiso   1.00
H256   H     0.84785   0.40860   0.15088   0.00000  Uiso   1.00
H257   H     0.89759   0.37570   0.15030   0.00000  Uiso   1.00
C258   C     0.62007   0.59463   0.16040   0.00000  Uiso   1.00
C259   C     0.62990   0.61120   0.10157   0.00000  Uiso   1.00
H260   H     0.64905   0.58208   0.07945   0.00000  Uiso   1.00
H261   H     0.59858   0.61860   0.07875   0.00000  Uiso   1.00
H262   H     0.65015   0.64583   0.10224   0.00000  Uiso   1.00
H263   H     0.60235   0.62429   0.18328   0.00000  Uiso   1.00
H264   H     0.65207   0.59135   0.18289   0.00000  Uiso   1.00
O265   O     0.25000   0.76178   0.21228   0.00000  Uiso   1.00
O266   O     0.25000   0.90488   0.12105   0.00000  Uiso   1.00
O267   O     0.25000   0.90488   0.21228   0.00000  Uiso   1.00
O268   O     0.25000   0.76178   0.12105   0.00000  Uiso   1.00
H269   H     0.46111   0.70868   0.19220   0.00000  Uiso   1.00
H270   H     0.03890   0.95801   0.14124   0.00000  Uiso   1.00
H271   H     0.46112   0.95799   0.14120   0.00000  Uiso   1.00
H272   H     0.03890   0.70869   0.19215   0.00000  Uiso   1.00
C273   C     0.25000   0.73933   0.16667   0.00000  Uiso   1.00
C274   C     0.25000   0.92734   0.16666   0.00000  Uiso   1.00
O275   O     0.18392   0.83333   0.21230   0.00000  Uiso   1.00
O276   O     0.31607   0.83333   0.12104   0.00000  Uiso   1.00
O277   O     0.31607   0.83333   0.21230   0.00000  Uiso   1.00
O278   O     0.18392   0.83333   0.12104   0.00000  Uiso   1.00
C279   C     0.16350   0.83333   0.16666   0.00000  Uiso   1.00
C280   C     0.33650   0.83334   0.16667   0.00000  Uiso   1.00
Zn281  Zn    0.25000   0.83333   0.22759   0.00000  Uiso   1.00
Zn282  Zn    0.25000   0.83333   0.10574   0.00000  Uiso   1.00
N283   N     0.25000   0.83333   0.02455   0.00000  Uiso   1.00
N284   N     0.25000   0.83333   0.30879   0.00000  Uiso   1.00
C285   C     0.40635   0.87918   0.16169   0.00000  Uiso   1.00
C286   C     0.09365   0.78749   0.17158   0.00000  Uiso   1.00
C287   C     0.40634   0.78750   0.17173   0.00000  Uiso   1.00
C288   C     0.09366   0.87918   0.16169   0.00000  Uiso   1.00
C289   C     0.38401   0.83334   0.16669   0.00000  Uiso   1.00
C290   C     0.11599   0.83333   0.16664   0.00000  Uiso   1.00
C291   C     0.45308   0.78788   0.17409   0.00000  Uiso   1.00
C292   C     0.04692   0.87879   0.15930   0.00000  Uiso   1.00
C293   C     0.45309   0.87879   0.15930   0.00000  Uiso   1.00
C294   C     0.04691   0.78788   0.17401   0.00000  Uiso   1.00
C295   C     0.47648   0.83333   0.16667   0.00000  Uiso   1.00
C296   C     0.02352   0.83333   0.16666   0.00000  Uiso   1.00
C297   C     0.47707   0.74389   0.18376   0.00000  Uiso   1.00
C298   C     0.02294   0.92279   0.14963   0.00000  Uiso   1.00
C299   C     0.47707   0.92278   0.14962   0.00000  Uiso   1.00
C300   C     0.02293   0.74389   0.18372   0.00000  Uiso   1.00
C301   C     0.25000   0.68839   0.16667   0.00000  Uiso   1.00
C302   C     0.25000   0.97828   0.16667   0.00000  Uiso   1.00
C303   C     0.37997   0.92797   0.16044   0.00000  Uiso   1.00
C304   C     0.37010   0.94457   0.10164   0.00000  Uiso   1.00
H305   H     0.40138   0.95212   0.07885   0.00000  Uiso   1.00
H306   H     0.35103   0.91543   0.07946   0.00000  Uiso   1.00
H307   H     0.34977   0.97913   0.10236   0.00000  Uiso   1.00
H308   H     0.34798   0.92468   0.18294   0.00000  Uiso   1.00
H309   H     0.39771   0.95761   0.18333   0.00000  Uiso   1.00
C310   C     0.12003   0.73869   0.17275   0.00000  Uiso   1.00
C311   C     0.12999   0.72207   0.23152   0.00000  Uiso   1.00
H312   H     0.14909   0.75121   0.25368   0.00000  Uiso   1.00
H313   H     0.09874   0.71451   0.25438   0.00000  Uiso   1.00
H314   H     0.15033   0.68753   0.23074   0.00000  Uiso   1.00
H315   H     0.10226   0.70905   0.14989   0.00000  Uiso   1.00
H316   H     0.15198   0.74199   0.15017   0.00000  Uiso   1.00
C317   C     0.37993   0.73871   0.17321   0.00000  Uiso   1.00
C318   C     0.37028   0.72224   0.23213   0.00000  Uiso   1.00
H319   H     0.40170   0.71554   0.25505   0.00000  Uiso   1.00
H320   H     0.35069   0.75113   0.25403   0.00000  Uiso   1.00
H321   H     0.35053   0.68723   0.23165   0.00000  Uiso   1.00
H322   H     0.34785   0.74193   0.15088   0.00000  Uiso   1.00
H323   H     0.39759   0.70903   0.15030   0.00000  Uiso   1.00
C324   C     0.12007   0.92797   0.16040   0.00000  Uiso   1.00
C325   C     0.12990   0.94453   0.10157   0.00000  Uiso   1.00
H326   H     0.14905   0.91541   0.07945   0.00000  Uiso   1.00
H327   H     0.09858   0.95193   0.07875   0.00000  Uiso   1.00
H328   H     0.15015   0.97916   0.10224   0.00000  Uiso   1.00
H329   H     0.10235   0.95763   0.18328   0.00000  Uiso   1.00
H330   H     0.15207   0.92469   0.18289   0.00000  Uiso   1.00
O331   O     0.75000   0.76178   0.21228   0.00000  Uiso   1.00
O332   O     0.75000   0.90488   0.12105   0.00000  Uiso   1.00
O333   O     0.75000   0.90488   0.21228   0.00000  Uiso   1.00
O334   O     0.75000   0.76178   0.12105   0.00000  Uiso   1.00
H335   H     0.96111   0.70868   0.19220   0.00000  Uiso   1.00
H336   H     0.53890   0.95801   0.14124   0.00000  Uiso   1.00
H337   H     0.96112   0.95799   0.14120   0.00000  Uiso   1.00
H338   H     0.53890   0.70869   0.19215   0.00000  Uiso   1.00
C339   C     0.75000   0.73933   0.16667   0.00000  Uiso   1.00
C340   C     0.75000   0.92734   0.16666   0.00000  Uiso   1.00
O341   O     0.68392   0.83333   0.21230   0.00000  Uiso   1.00
O342   O     0.81607   0.83333   0.12104   0.00000  Uiso   1.00
O343   O     0.81607   0.83333   0.21230   0.00000  Uiso   1.00
O344   O     0.68392   0.83333   0.12104   0.00000  Uiso   1.00
C345   C     0.66350   0.83333   0.16666   0.00000  Uiso   1.00
C346   C     0.83650   0.83334   0.16667   0.00000  Uiso   1.00
Zn347  Zn    0.75000   0.83333   0.22759   0.00000  Uiso   1.00
Zn348  Zn    0.75000   0.83333   0.10574   0.00000  Uiso   1.00
N349   N     0.75000   0.83333   0.02455   0.00000  Uiso   1.00
N350   N     0.75000   0.83333   0.30879   0.00000  Uiso   1.00
C351   C     0.90635   0.87918   0.16169   0.00000  Uiso   1.00
C352   C     0.59365   0.78749   0.17158   0.00000  Uiso   1.00
C353   C     0.90634   0.78750   0.17173   0.00000  Uiso   1.00
C354   C     0.59366   0.87918   0.16169   0.00000  Uiso   1.00
C355   C     0.88401   0.83334   0.16669   0.00000  Uiso   1.00
C356   C     0.61599   0.83333   0.16664   0.00000  Uiso   1.00
C357   C     0.95308   0.78788   0.17409   0.00000  Uiso   1.00
C358   C     0.54692   0.87879   0.15930   0.00000  Uiso   1.00
C359   C     0.95309   0.87879   0.15930   0.00000  Uiso   1.00
C360   C     0.54691   0.78788   0.17401   0.00000  Uiso   1.00
C361   C     0.97648   0.83333   0.16667   0.00000  Uiso   1.00
C362   C     0.52352   0.83333   0.16666   0.00000  Uiso   1.00
C363   C     0.97707   0.74389   0.18376   0.00000  Uiso   1.00
C364   C     0.52294   0.92279   0.14963   0.00000  Uiso   1.00
C365   C     0.97707   0.92278   0.14962   0.00000  Uiso   1.00
C366   C     0.52293   0.74389   0.18372   0.00000  Uiso   1.00
C367   C     0.75000   0.68839   0.16667   0.00000  Uiso   1.00
C368   C     0.75000   0.97828   0.16667   0.00000  Uiso   1.00
C369   C     0.87997   0.92797   0.16044   0.00000  Uiso   1.00
C370   C     0.87010   0.94457   0.10164   0.00000  Uiso   1.00
H371   H     0.90138   0.95212   0.07885   0.00000  Uiso   1.00
H372   H     0.85103   0.91543   0.07946   0.00000  Uiso   1.00
H373   H     0.84977   0.97913   0.10236   0.00000  Uiso   1.00
H374   H     0.84798   0.92468   0.18294   0.00000  Uiso   1.00
H375   H     0.89771   0.95761   0.18333   0.00000  Uiso   1.00
C376   C     0.62003   0.73869   0.17275   0.00000  Uiso   1.00
C377   C     0.62999   0.72207   0.23152   0.00000  Uiso   1.00
H378   H     0.64909   0.75121   0.25368   0.00000  Uiso   1.00
H379   H     0.59874   0.71451   0.25438   0.00000  Uiso   1.00
H380   H     0.65033   0.68753   0.23074   0.00000  Uiso   1.00
H381   H     0.60226   0.70905   0.14989   0.00000  Uiso   1.00
H382   H     0.65198   0.74199   0.15017   0.00000  Uiso   1.00
C383   C     0.87993   0.73871   0.17321   0.00000  Uiso   1.00
C384   C     0.87028   0.72224   0.23213   0.00000  Uiso   1.00
H385   H     0.90170   0.71554   0.25505   0.00000  Uiso   1.00
H386   H     0.85069   0.75113   0.25403   0.00000  Uiso   1.00
H387   H     0.85053   0.68723   0.23165   0.00000  Uiso   1.00
H388   H     0.84785   0.74193   0.15088   0.00000  Uiso   1.00
H389   H     0.89759   0.70903   0.15030   0.00000  Uiso   1.00
C390   C     0.62007   0.92797   0.16040   0.00000  Uiso   1.00
C391   C     0.62990   0.94453   0.10157   0.00000  Uiso   1.00
H392   H     0.64905   0.91541   0.07945   0.00000  Uiso   1.00
H393   H     0.59858   0.95193   0.07875   0.00000  Uiso   1.00
H394   H     0.65015   0.97916   0.10224   0.00000  Uiso   1.00
H395   H     0.60235   0.95763   0.18328   0.00000  Uiso   1.00
H396   H     0.65207   0.92469   0.18289   0.00000  Uiso   1.00
O397   O     0.25000   0.09512   0.54562   0.00000  Uiso   1.00
O398   O     0.25000   0.23822   0.45438   0.00000  Uiso   1.00
O399   O     0.25000   0.23822   0.54562   0.00000  Uiso   1.00
O400   O     0.25000   0.09512   0.45438   0.00000  Uiso   1.00
H401   H     0.46111   0.04201   0.52554   0.00000  Uiso   1.00
H402   H     0.03890   0.29134   0.47457   0.00000  Uiso   1.00
H403   H     0.46112   0.29132   0.47453   0.00000  Uiso   1.00
H404   H     0.03890   0.04202   0.52549   0.00000  Uiso   1.00
C405   C     0.25000   0.07266   0.50000   0.00000  Uiso   1.00
C406   C     0.25000   0.26067   0.50000   0.00000  Uiso   1.00
O407   O     0.18392   0.16667   0.54563   0.00000  Uiso   1.00
O408   O     0.31607   0.16667   0.45437   0.00000  Uiso   1.00
O409   O     0.31607   0.16667   0.54563   0.00000  Uiso   1.00
O410   O     0.18392   0.16667   0.45437   0.00000  Uiso   1.00
C411   C     0.16350   0.16666   0.49999   0.00000  Uiso   1.00
C412   C     0.33650   0.16667   0.50001   0.00000  Uiso   1.00
Zn413  Zn    0.25000   0.16667   0.56093   0.00000  Uiso   1.00
Zn414  Zn    0.25000   0.16667   0.43907   0.00000  Uiso   1.00
N415   N     0.25000   0.16667   0.35788   0.00000  Uiso   1.00
N416   N     0.25000   0.16667   0.64212   0.00000  Uiso   1.00
C417   C     0.40635   0.21251   0.49503   0.00000  Uiso   1.00
C418   C     0.09365   0.12082   0.50491   0.00000  Uiso   1.00
C419   C     0.40634   0.12083   0.50506   0.00000  Uiso   1.00
C420   C     0.09366   0.21251   0.49503   0.00000  Uiso   1.00
C421   C     0.38401   0.16667   0.50002   0.00000  Uiso   1.00
C422   C     0.11599   0.16666   0.49998   0.00000  Uiso   1.00
C423   C     0.45308   0.12121   0.50742   0.00000  Uiso   1.00
C424   C     0.04692   0.21213   0.49263   0.00000  Uiso   1.00
C425   C     0.45309   0.21212   0.49263   0.00000  Uiso   1.00
C426   C     0.04691   0.12121   0.50735   0.00000  Uiso   1.00
C427   C     0.47648   0.16667   0.50001   0.00000  Uiso   1.00
C428   C     0.02352   0.16667   0.49999   0.00000  Uiso   1.00
C429   C     0.47707   0.07722   0.51709   0.00000  Uiso   1.00
C430   C     0.02294   0.25612   0.48297   0.00000  Uiso   1.00
C431   C     0.47707   0.25611   0.48295   0.00000  Uiso   1.00
C432   C     0.02293   0.07722   0.51706   0.00000  Uiso   1.00
C433   C     0.25000   0.02172   0.50000   0.00000  Uiso   1.00
C434   C     0.25000   0.31161   0.50000   0.00000  Uiso   1.00
C435   C     0.37997   0.26130   0.49377   0.00000  Uiso   1.00
C436   C     0.37010   0.27791   0.43497   0.00000  Uiso   1.00
H437   H     0.40138   0.28545   0.41218   0.00000  Uiso   1.00
H438   H     0.35103   0.24876   0.41279   0.00000  Uiso   1.00
H439   H     0.34977   0.31246   0.43570   0.00000  Uiso   1.00
H440   H     0.34798   0.25802   0.51627   0.00000  Uiso   1.00
H441   H     0.39771   0.29094   0.51666   0.00000  Uiso   1.00
C442   C     0.12003   0.07202   0.50608   0.00000  Uiso   1.00
C443   C     0.12999   0.05540   0.56486   0.00000  Uiso   1.00
H444   H     0.14909   0.08454   0.58702   0.00000  Uiso   1.00
H445   H     0.09874   0.04784   0.58771   0.00000  Uiso   1.00
H446   H     0.15033   0.02086   0.56407   0.00000  Uiso   1.00
H447   H     0.10226   0.04239   0.48323   0.00000  Uiso   1.00
H448   H     0.15198   0.07532   0.48350   0.00000  Uiso   1.00
C449   C     0.37993   0.07204   0.50655   0.00000  Uiso   1.00
C450   C     0.37028   0.05557   0.56546   0.00000  Uiso   1.00
H451   H     0.40170   0.04887   0.58839   0.00000  Uiso   1.00
H452   H     0.35069   0.08447   0.58737   0.00000  Uiso   1.00
H453   H     0.35053   0.02056   0.56499   0.00000  Uiso   1.00
H454   H     0.34785   0.07527   0.48421   0.00000  Uiso   1.00
H455   H     0.39759   0.04236   0.48364   0.00000  Uiso   1.00
C456   C     0.12007   0.26130   0.49374   0.00000  Uiso   1.00
C457   C     0.12990   0.27786   0.43491   0.00000  Uiso   1.00
H458   H     0.14905   0.24875   0.41278   0.00000  Uiso   1.00
H459   H     0.09858   0.28526   0.41208   0.00000  Uiso   1.00
H460   H     0.15015   0.31250   0.43558   0.00000  Uiso   1.00
H461   H     0.10235   0.29096   0.51661   0.00000  Uiso   1.00
H462   H     0.15207   0.25802   0.51622   0.00000  Uiso   1.00
O463   O     0.75000   0.09512   0.54562   0.00000  Uiso   1.00
O464   O     0.75000   0.23822   0.45438   0.00000  Uiso   1.00
O465   O     0.75000   0.23822   0.54562   0.00000  Uiso   1.00
O466   O     0.75000   0.09512   0.45438   0.00000  Uiso   1.00
H467   H     0.96111   0.04201   0.52554   0.00000  Uiso   1.00
H468   H     0.53890   0.29134   0.47457   0.00000  Uiso   1.00
H469   H     0.96112   0.29132   0.47453   0.00000  Uiso   1.00
H470   H     0.53890   0.04202   0.52549   0.00000  Uiso   1.00
C471   C     0.75000   0.07266   0.50000   0.00000  Uiso   1.00
C472   C     0.75000   0.26067   0.50000   0.00000  Uiso   1.00
O473   O     0.68392   0.16667   0.54563   0.00000  Uiso   1.00
O474   O     0.81607   0.16667   0.45437   0.00000  Uiso   1.00
O475   O     0.81607   0.16667   0.54563   0.00000  Uiso   1.00
O476   O     0.68392   0.16667   0.45437   0.00000  Uiso   1.00
C477   C     0.66350   0.16666   0.49999   0.00000  Uiso   1.00
C478   C     0.83650   0.16667   0.50001   0.00000  Uiso   1.00
Zn479  Zn    0.75000   0.16667   0.56093   0.00000  Uiso   1.00
Zn480  Zn    0.75000   0.16667   0.43907   0.00000  Uiso   1.00
N481   N     0.75000   0.16667   0.35788   0.00000  Uiso   1.00
N482   N     0.75000   0.16667   0.64212   0.00000  Uiso   1.00
C483   C     0.90635   0.21251   0.49503   0.00000  Uiso   1.00
C484   C     0.59365   0.12082   0.50491   0.00000  Uiso   1.00
C485   C     0.90634   0.12083   0.50506   0.00000  Uiso   1.00
C486   C     0.59366   0.21251   0.49503   0.00000  Uiso   1.00
C487   C     0.88401   0.16667   0.50002   0.00000  Uiso   1.00
C488   C     0.61599   0.16666   0.49998   0.00000  Uiso   1.00
C489   C     0.95308   0.12121   0.50742   0.00000  Uiso   1.00
C490   C     0.54692   0.21213   0.49263   0.00000  Uiso   1.00
C491   C     0.95309   0.21212   0.49263   0.00000  Uiso   1.00
C492   C     0.54691   0.12121   0.50735   0.00000  Uiso   1.00
C493   C     0.97648   0.16667   0.50001   0.00000  Uiso   1.00
C494   C     0.52352   0.16667   0.49999   0.00000  Uiso   1.00
C495   C     0.97707   0.07722   0.51709   0.00000  Uiso   1.00
C496   C     0.52294   0.25612   0.48297   0.00000  Uiso   1.00
C497   C     0.97707   0.25611   0.48295   0.00000  Uiso   1.00
C498   C     0.52293   0.07722   0.51706   0.00000  Uiso   1.00
C499   C     0.75000   0.02172   0.50000   0.00000  Uiso   1.00
C500   C     0.75000   0.31161   0.50000   0.00000  Uiso   1.00
C501   C     0.87997   0.26130   0.49377   0.00000  Uiso   1.00
C502   C     0.87010   0.27791   0.43497   0.00000  Uiso   1.00
H503   H     0.90138   0.28545   0.41218   0.00000  Uiso   1.00
H504   H     0.85103   0.24876   0.41279   0.00000  Uiso   1.00
H505   H     0.84977   0.31246   0.43570   0.00000  Uiso   1.00
H506   H     0.84798   0.25802   0.51627   0.00000  Uiso   1.00
H507   H     0.89771   0.29094   0.51666   0.00000  Uiso   1.00
C508   C     0.62003   0.07202   0.50608   0.00000  Uiso   1.00
C509   C     0.62999   0.05540   0.56486   0.00000  Uiso   1.00
H510   H     0.64909   0.08454   0.58702   0.00000  Uiso   1.00
H511   H     0.59874   0.04784   0.58771   0.00000  Uiso   1.00
H512   H     0.65033   0.02086   0.56407   0.00000  Uiso   1.00
H513   H     0.60226   0.04239   0.48323   0.00000  Uiso   1.00
H514   H     0.65198   0.07532   0.48350   0.00000  Uiso   1.00
C515   C     0.87993   0.07204   0.50655   0.00000  Uiso   1.00
C516   C     0.87028   0.05557   0.56546   0.00000  Uiso   1.00
H517   H     0.90170   0.04887   0.58839   0.00000  Uiso   1.00
H518   H     0.85069   0.08447   0.58737   0.00000  Uiso   1.00
H519   H     0.85053   0.02056   0.56499   0.00000  Uiso   1.00
H520   H     0.84785   0.07527   0.48421   0.00000  Uiso   1.00
H521   H     0.89759   0.04236   0.48364   0.00000  Uiso   1.00
C522   C     0.62007   0.26130   0.49374   0.00000  Uiso   1.00
C523   C     0.62990   0.27786   0.43491   0.00000  Uiso   1.00
H524   H     0.64905   0.24875   0.41278   0.00000  Uiso   1.00
H525   H     0.59858   0.28526   0.41208   0.00000  Uiso   1.00
H526   H     0.65015   0.31250   0.43558   0.00000  Uiso   1.00
H527   H     0.60235   0.29096   0.51661   0.00000  Uiso   1.00
H528   H     0.65207   0.25802   0.51622   0.00000  Uiso   1.00
O529   O     0.25000   0.42845   0.54562   0.00000  Uiso   1.00
O530   O     0.25000   0.57155   0.45438   0.00000  Uiso   1.00
O531   O     0.25000   0.57155   0.54562   0.00000  Uiso   1.00
O532   O     0.25000   0.42845   0.45438   0.00000  Uiso   1.00
H533   H     0.46111   0.37534   0.52554   0.00000  Uiso   1.00
H534   H     0.03890   0.62467   0.47457   0.00000  Uiso   1.00
H535   H     0.46112   0.62466   0.47453   0.00000  Uiso   1.00
H536   H     0.03890   0.37535   0.52549   0.00000  Uiso   1.00
C537   C     0.25000   0.40600   0.50000   0.00000  Uiso   1.00
C538   C     0.25000   0.59400   0.50000   0.00000  Uiso   1.00
O539   O     0.18392   0.50000   0.54563   0.00000  Uiso   1.00
O540   O     0.31607   0.50000   0.45437   0.00000  Uiso   1.00
O541   O     0.31607   0.50000   0.54563   0.00000  Uiso   1.00
O542   O     0.18392   0.50000   0.45437   0.00000  Uiso   1.00
C543   C     0.16350   0.49999   0.49999   0.00000  Uiso   1.00
C544   C     0.33650   0.50001   0.50001   0.00000  Uiso   1.00
Zn545  Zn    0.25000   0.50000   0.56093   0.00000  Uiso   1.00
Zn546  Zn    0.25000   0.50000   0.43907   0.00000  Uiso   1.00
N547   N     0.25000   0.50000   0.35788   0.00000  Uiso   1.00
N548   N     0.25000   0.50000   0.64212   0.00000  Uiso   1.00
C549   C     0.40635   0.54584   0.49503   0.00000  Uiso   1.00
C550   C     0.09365   0.45415   0.50491   0.00000  Uiso   1.00
C551   C     0.40634   0.45417   0.50506   0.00000  Uiso   1.00
C552   C     0.09366   0.54584   0.49503   0.00000  Uiso   1.00
C553   C     0.38401   0.50000   0.50002   0.00000  Uiso   1.00
C554   C     0.11599   0.50000   0.49998   0.00000  Uiso   1.00
C555   C     0.45308   0.45455   0.50742   0.00000  Uiso   1.00
C556   C     0.04692   0.54546   0.49263   0.00000  Uiso   1.00
C557   C     0.45309   0.54546   0.49263   0.00000  Uiso   1.00
C558   C     0.04691   0.45454   0.50735   0.00000  Uiso   1.00
C559   C     0.47648   0.50000   0.50001   0.00000  Uiso   1.00
C560   C     0.02352   0.50000   0.49999   0.00000  Uiso   1.00
C561   C     0.47707   0.41056   0.51709   0.00000  Uiso   1.00
C562   C     0.02294   0.58945   0.48297   0.00000  Uiso   1.00
C563   C     0.47707   0.58945   0.48295   0.00000  Uiso   1.00
C564   C     0.02293   0.41056   0.51706   0.00000  Uiso   1.00
C565   C     0.25000   0.35505   0.50000   0.00000  Uiso   1.00
C566   C     0.25000   0.64495   0.50000   0.00000  Uiso   1.00
C567   C     0.37997   0.59464   0.49377   0.00000  Uiso   1.00
C568   C     0.37010   0.61124   0.43497   0.00000  Uiso   1.00
H569   H     0.40138   0.61878   0.41218   0.00000  Uiso   1.00
H570   H     0.35103   0.58210   0.41279   0.00000  Uiso   1.00
H571   H     0.34977   0.64579   0.43570   0.00000  Uiso   1.00
H572   H     0.34798   0.59135   0.51627   0.00000  Uiso   1.00
H573   H     0.39771   0.62427   0.51666   0.00000  Uiso   1.00
C574   C     0.12003   0.40536   0.50608   0.00000  Uiso   1.00
C575   C     0.12999   0.38874   0.56486   0.00000  Uiso   1.00
H576   H     0.14909   0.41788   0.58702   0.00000  Uiso   1.00
H577   H     0.09874   0.38117   0.58771   0.00000  Uiso   1.00
H578   H     0.15033   0.35419   0.56407   0.00000  Uiso   1.00
H579   H     0.10226   0.37572   0.48323   0.00000  Uiso   1.00
H580   H     0.15198   0.40866   0.48350   0.00000  Uiso   1.00
C581   C     0.37993   0.40538   0.50655   0.00000  Uiso   1.00
C582   C     0.37028   0.38891   0.56546   0.00000  Uiso   1.00
H583   H     0.40170   0.38220   0.58839   0.00000  Uiso   1.00
H584   H     0.35069   0.41780   0.58737   0.00000  Uiso   1.00
H585   H     0.35053   0.35390   0.56499   0.00000  Uiso   1.00
H586   H     0.34785   0.40860   0.48421   0.00000  Uiso   1.00
H587   H     0.39759   0.37570   0.48364   0.00000  Uiso   1.00
C588   C     0.12007   0.59463   0.49374   0.00000  Uiso   1.00
C589   C     0.12990   0.61120   0.43491   0.00000  Uiso   1.00
H590   H     0.14905   0.58208   0.41278   0.00000  Uiso   1.00
H591   H     0.09858   0.61860   0.41208   0.00000  Uiso   1.00
H592   H     0.15015   0.64583   0.43558   0.00000  Uiso   1.00
H593   H     0.10235   0.62429   0.51661   0.00000  Uiso   1.00
H594   H     0.15207   0.59135   0.51622   0.00000  Uiso   1.00
O595   O     0.75000   0.42845   0.54562   0.00000  Uiso   1.00
O596   O     0.75000   0.57155   0.45438   0.00000  Uiso   1.00
O597   O     0.75000   0.57155   0.54562   0.00000  Uiso   1.00
O598   O     0.75000   0.42845   0.45438   0.00000  Uiso   1.00
H599   H     0.96111   0.37534   0.52554   0.00000  Uiso   1.00
H600   H     0.53890   0.62467   0.47457   0.00000  Uiso   1.00
H601   H     0.96112   0.62466   0.47453   0.00000  Uiso   1.00
H602   H     0.53890   0.37535   0.52549   0.00000  Uiso   1.00
C603   C     0.75000   0.40600   0.50000   0.00000  Uiso   1.00
C604   C     0.75000   0.59400   0.50000   0.00000  Uiso   1.00
O605   O     0.68392   0.50000   0.54563   0.00000  Uiso   1.00
O606   O     0.81607   0.50000   0.45437   0.00000  Uiso   1.00
O607   O     0.81607   0.50000   0.54563   0.00000  Uiso   1.00
O608   O     0.68392   0.50000   0.45437   0.00000  Uiso   1.00
C609   C     0.66350   0.49999   0.49999   0.00000  Uiso   1.00
C610   C     0.83650   0.50001   0.50001   0.00000  Uiso   1.00
Zn611  Zn    0.75000   0.50000   0.56093   0.00000  Uiso   1.00
Zn612  Zn    0.75000   0.50000   0.43907   0.00000  Uiso   1.00
N613   N     0.75000   0.50000   0.35788   0.00000  Uiso   1.00
N614   N     0.75000   0.50000   0.64212   0.00000  Uiso   1.00
C615   C     0.90635   0.54584   0.49503   0.00000  Uiso   1.00
C616   C     0.59365   0.45415   0.50491   0.00000  Uiso   1.00
C617   C     0.90634   0.45417   0.50506   0.00000  Uiso   1.00
C618   C     0.59366   0.54584   0.49503   0.00000  Uiso   1.00
C619   C     0.88401   0.50000   0.50002   0.00000  Uiso   1.00
C620   C     0.61599   0.50000   0.49998   0.00000  Uiso   1.00
C621   C     0.95308   0.45455   0.50742   0.00000  Uiso   1.00
C622   C     0.54692   0.54546   0.49263   0.00000  Uiso   1.00
C623   C     0.95309   0.54546   0.49263   0.00000  Uiso   1.00
C624   C     0.54691   0.45454   0.50735   0.00000  Uiso   1.00
C625   C     0.97648   0.50000   0.50001   0.00000  Uiso   1.00
C626   C     0.52352   0.50000   0.49999   0.00000  Uiso   1.00
C627   C     0.97707   0.41056   0.51709   0.00000  Uiso   1.00
C628   C     0.52294   0.58945   0.48297   0.00000  Uiso   1.00
C629   C     0.97707   0.58945   0.48295   0.00000  Uiso   1.00
C630   C     0.52293   0.41056   0.51706   0.00000  Uiso   1.00
C631   C     0.75000   0.35505   0.50000   0.00000  Uiso   1.00
C632   C     0.75000   0.64495   0.50000   0.00000  Uiso   1.00
C633   C     0.87997   0.59464   0.49377   0.00000  Uiso   1.00
C634   C     0.87010   0.61124   0.43497   0.00000  Uiso   1.00
H635   H     0.90138   0.61878   0.41218   0.00000  Uiso   1.00
H636   H     0.85103   0.58210   0.41279   0.00000  Uiso   1.00
H637   H     0.84977   0.64579   0.43570   0.00000  Uiso   1.00
H638   H     0.84798   0.59135   0.51627   0.00000  Uiso   1.00
H639   H     0.89771   0.62427   0.51666   0.00000  Uiso   1.00
C640   C     0.62003   0.40536   0.50608   0.00000  Uiso   1.00
C641   C     0.62999   0.38874   0.56486   0.00000  Uiso   1.00
H642   H     0.64909   0.41788   0.58702   0.00000  Uiso   1.00
H643   H     0.59874   0.38117   0.58771   0.00000  Uiso   1.00
H644   H     0.65033   0.35419   0.56407   0.00000  Uiso   1.00
H645   H     0.60226   0.37572   0.48323   0.00000  Uiso   1.00
H646   H     0.65198   0.40866   0.48350   0.00000  Uiso   1.00
C647   C     0.87993   0.40538   0.50655   0.00000  Uiso   1.00
C648   C     0.87028   0.38891   0.56546   0.00000  Uiso   1.00
H649   H     0.90170   0.38220   0.58839   0.00000  Uiso   1.00
H650   H     0.85069   0.41780   0.58737   0.00000  Uiso   1.00
H651   H     0.85053   0.35390   0.56499   0.00000  Uiso   1.00
H652   H     0.84785   0.40860   0.48421   0.00000  Uiso   1.00
H653   H     0.89759   0.37570   0.48364   0.00000  Uiso   1.00
C654   C     0.62007   0.59463   0.49374   0.00000  Uiso   1.00
C655   C     0.62990   0.61120   0.43491   0.00000  Uiso   1.00
H656   H     0.64905   0.58208   0.41278   0.00000  Uiso   1.00
H657   H     0.59858   0.61860   0.41208   0.00000  Uiso   1.00
H658   H     0.65015   0.64583   0.43558   0.00000  Uiso   1.00
H659   H     0.60235   0.62429   0.51661   0.00000  Uiso   1.00
H660   H     0.65207   0.59135   0.51622   0.00000  Uiso   1.00
O661   O     0.25000   0.76178   0.54562   0.00000  Uiso   1.00
O662   O     0.25000   0.90488   0.45438   0.00000  Uiso   1.00
O663   O     0.25000   0.90488   0.54562   0.00000  Uiso   1.00
O664   O     0.25000   0.76178   0.45438   0.00000  Uiso   1.00
H665   H     0.46111   0.70868   0.52554   0.00000  Uiso   1.00
H666   H     0.03890   0.95801   0.47457   0.00000  Uiso   1.00
H667   H     0.46112   0.95799   0.47453   0.00000  Uiso   1.00
H668   H     0.03890   0.70869   0.52549   0.00000  Uiso   1.00
C669   C     0.25000   0.73933   0.50000   0.00000  Uiso   1.00
C670   C     0.25000   0.92734   0.50000   0.00000  Uiso   1.00
O671   O     0.18392   0.83333   0.54563   0.00000  Uiso   1.00
O672   O     0.31607   0.83333   0.45437   0.00000  Uiso   1.00
O673   O     0.31607   0.83333   0.54563   0.00000  Uiso   1.00
O674   O     0.18392   0.83333   0.45437   0.00000  Uiso   1.00
C675   C     0.16350   0.83333   0.49999   0.00000  Uiso   1.00
C676   C     0.33650   0.83334   0.50001   0.00000  Uiso   1.00
Zn677  Zn    0.25000   0.83333   0.56093   0.00000  Uiso   1.00
Zn678  Zn    0.25000   0.83333   0.43907   0.00000  Uiso   1.00
N679   N     0.25000   0.83333   0.35788   0.00000  Uiso   1.00
N680   N     0.25000   0.83333   0.64212   0.00000  Uiso   1.00
C681   C     0.40635   0.87918   0.49503   0.00000  Uiso   1.00
C682   C     0.09365   0.78749   0.50491   0.00000  Uiso   1.00
C683   C     0.40634   0.78750   0.50506   0.00000  Uiso   1.00
C684   C     0.09366   0.87918   0.49503   0.00000  Uiso   1.00
C685   C     0.38401   0.83334   0.50002   0.00000  Uiso   1.00
C686   C     0.11599   0.83333   0.49998   0.00000  Uiso   1.00
C687   C     0.45308   0.78788   0.50742   0.00000  Uiso   1.00
C688   C     0.04692   0.87879   0.49263   0.00000  Uiso   1.00
C689   C     0.45309   0.87879   0.49263   0.00000  Uiso   1.00
C690   C     0.04691   0.78788   0.50735   0.00000  Uiso   1.00
C691   C     0.47648   0.83333   0.50001   0.00000  Uiso   1.00
C692   C     0.02352   0.83333   0.49999   0.00000  Uiso   1.00
C693   C     0.47707   0.74389   0.51709   0.00000  Uiso   1.00
C694   C     0.02294   0.92279   0.48297   0.00000  Uiso   1.00
C695   C     0.47707   0.92278   0.48295   0.00000  Uiso   1.00
C696   C     0.02293   0.74389   0.51706   0.00000  Uiso   1.00
C697   C     0.25000   0.68839   0.50000   0.00000  Uiso   1.00
C698   C     0.25000   0.97828   0.50000   0.00000  Uiso   1.00
C699   C     0.37997   0.92797   0.49377   0.00000  Uiso   1.00
C700   C     0.37010   0.94457   0.43497   0.00000  Uiso   1.00
H701   H     0.40138   0.95212   0.41218   0.00000  Uiso   1.00
H702   H     0.35103   0.91543   0.41279   0.00000  Uiso   1.00
H703   H     0.34977   0.97913   0.43570   0.00000  Uiso   1.00
H704   H     0.34798   0.92468   0.51627   0.00000  Uiso   1.00
H705   H     0.39771   0.95761   0.51666   0.00000  Uiso   1.00
C706   C     0.12003   0.73869   0.50608   0.00000  Uiso   1.00
C707   C     0.12999   0.72207   0.56486   0.00000  Uiso   1.00
H708   H     0.14909   0.75121   0.58702   0.00000  Uiso   1.00
H709   H     0.09874   0.71451   0.58771   0.00000  Uiso   1.00
H710   H     0.15033   0.68753   0.56407   0.00000  Uiso   1.00
H711   H     0.10226   0.70905   0.48323   0.00000  Uiso   1.00
H712   H     0.15198   0.74199   0.48350   0.00000  Uiso   1.00
C713   C     0.37993   0.73871   0.50655   0.00000  Uiso   1.00
C714   C     0.37028   0.72224   0.56546   0.00000  Uiso   1.00
H715   H     0.40170   0.71554   0.58839   0.00000  Uiso   1.00
H716   H     0.35069   0.75113   0.58737   0.00000  Uiso   1.00
H717   H     0.35053   0.68723   0.56499   0.00000  Uiso   1.00
H718   H     0.34785   0.74193   0.48421   0.00000  Uiso   1.00
H719   H     0.39759   0.70903   0.48364   0.00000  Uiso   1.00
C720   C     0.12007   0.92797   0.49374   0.00000  Uiso   1.00
C721   C     0.12990   0.94453   0.43491   0.00000  Uiso   1.00
H722   H     0.14905   0.91541   0.41278   0.00000  Uiso   1.00
H723   H     0.09858   0.95193   0.41208   0.00000  Uiso   1.00
H724   H     0.15015   0.97916   0.43558   0.00000  Uiso   1.00
H725   H     0.10235   0.95763   0.51661   0.00000  Uiso   1.00
H726   H     0.15207   0.92469   0.51622   0.00000  Uiso   1.00
O727   O     0.75000   0.76178   0.54562   0.00000  Uiso   1.00
O728   O     0.75000   0.90488   0.45438   0.00000  Uiso   1.00
O729   O     0.75000   0.90488   0.54562   0.00000  Uiso   1.00
O730   O     0.75000   0.76178   0.45438   0.00000  Uiso   1.00
H731   H     0.96111   0.70868   0.52554   0.00000  Uiso   1.00
H732   H     0.53890   0.95801   0.47457   0.00000  Uiso   1.00
H733   H     0.96112   0.95799   0.47453   0.00000  Uiso   1.00
H734   H     0.53890   0.70869   0.52549   0.00000  Uiso   1.00
C735   C     0.75000   0.73933   0.50000   0.00000  Uiso   1.00
C736   C     0.75000   0.92734   0.50000   0.00000  Uiso   1.00
O737   O     0.68392   0.83333   0.54563   0.00000  Uiso   1.00
O738   O     0.81607   0.83333   0.45437   0.00000  Uiso   1.00
O739   O     0.81607   0.83333   0.54563   0.00000  Uiso   1.00
O740   O     0.68392   0.83333   0.45437   0.00000  Uiso   1.00
C741   C     0.66350   0.83333   0.49999   0.00000  Uiso   1.00
C742   C     0.83650   0.83334   0.50001   0.00000  Uiso   1.00
Zn743  Zn    0.75000   0.83333   0.56093   0.00000  Uiso   1.00
Zn744  Zn    0.75000   0.83333   0.43907   0.00000  Uiso   1.00
N745   N     0.75000   0.83333   0.35788   0.00000  Uiso   1.00
N746   N     0.75000   0.83333   0.64212   0.00000  Uiso   1.00
C747   C     0.90635   0.87918   0.49503   0.00000  Uiso   1.00
C748   C     0.59365   0.78749   0.50491   0.00000  Uiso   1.00
C749   C     0.90634   0.78750   0.50506   0.00000  Uiso   1.00
C750   C     0.59366   0.87918   0.49503   0.00000  Uiso   1.00
C751   C     0.88401   0.83334   0.50002   0.00000  Uiso   1.00
C752   C     0.61599   0.83333   0.49998   0.00000  Uiso   1.00
C753   C     0.95308   0.78788   0.50742   0.00000  Uiso   1.00
C754   C     0.54692   0.87879   0.49263   0.00000  Uiso   1.00
C755   C     0.95309   0.87879   0.49263   0.00000  Uiso   1.00
C756   C     0.54691   0.78788   0.50735   0.00000  Uiso   1.00
C757   C     0.97648   0.83333   0.50001   0.00000  Uiso   1.00
C758   C     0.52352   0.83333   0.49999   0.00000  Uiso   1.00
C759   C     0.97707   0.74389   0.51709   0.00000  Uiso   1.00
C760   C     0.52294   0.92279   0.48297   0.00000  Uiso   1.00
C761   C     0.97707   0.92278   0.48295   0.00000  Uiso   1.00
C762   C     0.52293   0.74389   0.51706   0.00000  Uiso   1.00
C763   C     0.75000   0.68839   0.50000   0.00000  Uiso   1.00
C764   C     0.75000   0.97828   0.50000   0.00000  Uiso   1.00
C765   C     0.87997   0.92797   0.49377   0.00000  Uiso   1.00
C766   C     0.87010   0.94457   0.43497   0.00000  Uiso   1.00
H767   H     0.90138   0.95212   0.41218   0.00000  Uiso   1.00
H768   H     0.85103   0.91543   0.41279   0.00000  Uiso   1.00
H769   H     0.84977   0.97913   0.43570   0.00000  Uiso   1.00
H770   H     0.84798   0.92468   0.51627   0.00000  Uiso   1.00
H771   H     0.89771   0.95761   0.51666   0.00000  Uiso   1.00
C772   C     0.62003   0.73869   0.50608   0.00000  Uiso   1.00
C773   C     0.62999   0.72207   0.56486   0.00000  Uiso   1.00
H774   H     0.64909   0.75121   0.58702   0.00000  Uiso   1.00
H775   H     0.59874   0.71451   0.58771   0.00000  Uiso   1.00
H776   H     0.65033   0.68753   0.56407   0.00000  Uiso   1.00
H777   H     0.60226   0.70905   0.48323   0.00000  Uiso   1.00
H778   H     0.65198   0.74199   0.48350   0.00000  Uiso   1.00
C779   C     0.87993   0.73871   0.50655   0.00000  Uiso   1.00
C780   C     0.87028   0.72224   0.56546   0.00000  Uiso   1.00
H781   H     0.90170   0.71554   0.58839   0.00000  Uiso   1.00
H782   H     0.85069   0.75113   0.58737   0.00000  Uiso   1.00
H783   H     0.85053   0.68723   0.56499   0.00000  Uiso   1.00
H784   H     0.84785   0.74193   0.48421   0.00000  Uiso   1.00
H785   H     0.89759   0.70903   0.48364   0.00000  Uiso   1.00
C786   C     0.62007   0.92797   0.49374   0.00000  Uiso   1.00
C787   C     0.62990   0.94453   0.43491   0.00000  Uiso   1.00
H788   H     0.64905   0.91541   0.41278   0.00000  Uiso   1.00
H789   H     0.59858   0.95193   0.41208   0.00000  Uiso   1.00
H790   H     0.65015   0.97916   0.43558   0.00000  Uiso   1.00
H791   H     0.60235   0.95763   0.51661   0.00000  Uiso   1.00
H792   H     0.65207   0.92469   0.51622   0.00000  Uiso   1.00
O793   O     0.25000   0.09512   0.87895   0.00000  Uiso   1.00
O794   O     0.25000   0.23822   0.78772   0.00000  Uiso   1.00
O795   O     0.25000   0.23822   0.87895   0.00000  Uiso   1.00
O796   O     0.25000   0.09512   0.78772   0.00000  Uiso   1.00
H797   H     0.46111   0.04201   0.85887   0.00000  Uiso   1.00
H798   H     0.03890   0.29134   0.80790   0.00000  Uiso   1.00
H799   H     0.46112   0.29132   0.80787   0.00000  Uiso   1.00
H800   H     0.03890   0.04202   0.85882   0.00000  Uiso   1.00
C801   C     0.25000   0.07266   0.83334   0.00000  Uiso   1.00
C802   C     0.25000   0.26067   0.83333   0.00000  Uiso   1.00
O803   O     0.18392   0.16667   0.87896   0.00000  Uiso   1.00
O804   O     0.31607   0.16667   0.78770   0.00000  Uiso   1.00
O805   O     0.31607   0.16667   0.87896   0.00000  Uiso   1.00
O806   O     0.18392   0.16667   0.78770   0.00000  Uiso   1.00
C807   C     0.16350   0.16666   0.83333   0.00000  Uiso   1.00
C808   C     0.33650   0.16667   0.83334   0.00000  Uiso   1.00
Zn809  Zn    0.25000   0.16667   0.89426   0.00000  Uiso   1.00
Zn810  Zn    0.25000   0.16667   0.77241   0.00000  Uiso   1.00
N811   N     0.25000   0.16667   0.69121   0.00000  Uiso   1.00
N812   N     0.25000   0.16667   0.97545   0.00000  Uiso   1.00
C813   C     0.40635   0.21251   0.82836   0.00000  Uiso   1.00
C814   C     0.09365   0.12082   0.83824   0.00000  Uiso   1.00
C815   C     0.40634   0.12083   0.83840   0.00000  Uiso   1.00
C816   C     0.09366   0.21251   0.82836   0.00000  Uiso   1.00
C817   C     0.38401   0.16667   0.83336   0.00000  Uiso   1.00
C818   C     0.11599   0.16666   0.83331   0.00000  Uiso   1.00
C819   C     0.45308   0.12121   0.84075   0.00000  Uiso   1.00
C820   C     0.04692   0.21213   0.82596   0.00000  Uiso   1.00
C821   C     0.45309   0.21212   0.82596   0.00000  Uiso   1.00
C822   C     0.04691   0.12121   0.84068   0.00000  Uiso   1.00
C823   C     0.47648   0.16667   0.83334   0.00000  Uiso   1.00
C824   C     0.02352   0.16667   0.83333   0.00000  Uiso   1.00
C825   C     0.47707   0.07722   0.85043   0.00000  Uiso   1.00
C826   C     0.02294   0.25612   0.81630   0.00000  Uiso   1.00
C827   C     0.47707   0.25611   0.81629   0.00000  Uiso   1.00
C828   C     0.02293   0.07722   0.85039   0.00000  Uiso   1.00
C829   C     0.25000   0.02172   0.83334   0.00000  Uiso   1.00
C830   C     0.25000   0.31161   0.83333   0.00000  Uiso   1.00
C831   C     0.37997   0.26130   0.82711   0.00000  Uiso   1.00
C832   C     0.37010   0.27791   0.76831   0.00000  Uiso   1.00
H833   H     0.40138   0.28545   0.74552   0.00000  Uiso   1.00
H834   H     0.35103   0.24876   0.74612   0.00000  Uiso   1.00
H835   H     0.34977   0.31246   0.76903   0.00000  Uiso   1.00
H836   H     0.34798   0.25802   0.84960   0.00000  Uiso   1.00
H837   H     0.39771   0.29094   0.85000   0.00000  Uiso   1.00
C838   C     0.12003   0.07202   0.83941   0.00000  Uiso   1.00
C839   C     0.12999   0.05540   0.89819   0.00000  Uiso   1.00
H840   H     0.14909   0.08454   0.92035   0.00000  Uiso   1.00
H841   H     0.09874   0.04784   0.92105   0.00000  Uiso   1.00
H842   H     0.15033   0.02086   0.89740   0.00000  Uiso   1.00
H843   H     0.10226   0.04239   0.81656   0.00000  Uiso   1.00
H844   H     0.15198   0.07532   0.81684   0.00000  Uiso   1.00
C845   C     0.37993   0.07204   0.83988   0.00000  Uiso   1.00
C846   C     0.37028   0.05557   0.89880   0.00000  Uiso   1.00
H847   H     0.40170   0.04887   0.92172   0.00000  Uiso   1.00
H848   H     0.35069   0.08447   0.92070   0.00000  Uiso   1.00
H849   H     0.35053   0.02056   0.89832   0.00000  Uiso   1.00
H850   H     0.34785   0.07527   0.81755   0.00000  Uiso   1.00
H851   H     0.39759   0.04236   0.81697   0.00000  Uiso   1.00
C852   C     0.12007   0.26130   0.82707   0.00000  Uiso   1.00
C853   C     0.12990   0.27786   0.76824   0.00000  Uiso   1.00
H854   H     0.14905   0.24875   0.74611   0.00000  Uiso   1.00
H855   H     0.09858   0.28526   0.74541   0.00000  Uiso   1.00
H856   H     0.15015   0.31250   0.76891   0.00000  Uiso   1.00
H857   H     0.10235   0.29096   0.84994   0.00000  Uiso   1.00
H858   H     0.15207   0.25802   0.84955   0.00000  Uiso   1.00
O859   O     0.75000   0.09512   0.87895   0.00000  Uiso   1.00
O860   O     0.75000   0.23822   0.78772   0.00000  Uiso   1.00
O861   O     0.75000   0.23822   0.87895   0.00000  Uiso   1.00
O862   O     0.75000   0.09512   0.78772   0.00000  Uiso   1.00
H863   H     0.96111   0.04201   0.85887   0.00000  Uiso   1.00
H864   H     0.53890   0.29134   0.80790   0.00000  Uiso   1.00
H865   H     0.96112   0.29132   0.80787   0.00000  Uiso   1.00
H866   H     0.53890   0.04202   0.85882   0.00000  Uiso   1.00
C867   C     0.75000   0.07266   0.83334   0.00000  Uiso   1.00
C868   C     0.75000   0.26067   0.83333   0.00000  Uiso   1.00
O869   O     0.68392   0.16667   0.87896   0.00000  Uiso   1.00
O870   O     0.81607   0.16667   0.78770   0.00000  Uiso   1.00
O871   O     0.81607   0.16667   0.87896   0.00000  Uiso   1.00
O872   O     0.68392   0.16667   0.78770   0.00000  Uiso   1.00
C873   C     0.66350   0.16666   0.83333   0.00000  Uiso   1.00
C874   C     0.83650   0.16667   0.83334   0.00000  Uiso   1.00
Zn875  Zn    0.75000   0.16667   0.89426   0.00000  Uiso   1.00
Zn876  Zn    0.75000   0.16667   0.77241   0.00000  Uiso   1.00
N877   N     0.75000   0.16667   0.69121   0.00000  Uiso   1.00
N878   N     0.75000   0.16667   0.97545   0.00000  Uiso   1.00
C879   C     0.90635   0.21251   0.82836   0.00000  Uiso   1.00
C880   C     0.59365   0.12082   0.83824   0.00000  Uiso   1.00
C881   C     0.90634   0.12083   0.83840   0.00000  Uiso   1.00
C882   C     0.59366   0.21251   0.82836   0.00000  Uiso   1.00
C883   C     0.88401   0.16667   0.83336   0.00000  Uiso   1.00
C884   C     0.61599   0.16666   0.83331   0.00000  Uiso   1.00
C885   C     0.95308   0.12121   0.84075   0.00000  Uiso   1.00
C886   C     0.54692   0.21213   0.82596   0.00000  Uiso   1.00
C887   C     0.95309   0.21212   0.82596   0.00000  Uiso   1.00
C888   C     0.54691   0.12121   0.84068   0.00000  Uiso   1.00
C889   C     0.97648   0.16667   0.83334   0.00000  Uiso   1.00
C890   C     0.52352   0.16667   0.83333   0.00000  Uiso   1.00
C891   C     0.97707   0.07722   0.85043   0.00000  Uiso   1.00
C892   C     0.52294   0.25612   0.81630   0.00000  Uiso   1.00
C893   C     0.97707   0.25611   0.81629   0.00000  Uiso   1.00
C894   C     0.52293   0.07722   0.85039   0.00000  Uiso   1.00
C895   C     0.75000   0.02172   0.83334   0.00000  Uiso   1.00
C896   C     0.75000   0.31161   0.83333   0.00000  Uiso   1.00
C897   C     0.87997   0.26130   0.82711   0.00000  Uiso   1.00
C898   C     0.87010   0.27791   0.76831   0.00000  Uiso   1.00
H899   H     0.90138   0.28545   0.74552   0.00000  Uiso   1.00
H900   H     0.85103   0.24876   0.74612   0.00000  Uiso   1.00
H901   H     0.84977   0.31246   0.76903   0.00000  Uiso   1.00
H902   H     0.84798   0.25802   0.84960   0.00000  Uiso   1.00
H903   H     0.89771   0.29094   0.85000   0.00000  Uiso   1.00
C904   C     0.62003   0.07202   0.83941   0.00000  Uiso   1.00
C905   C     0.62999   0.05540   0.89819   0.00000  Uiso   1.00
H906   H     0.64909   0.08454   0.92035   0.00000  Uiso   1.00
H907   H     0.59874   0.04784   0.92105   0.00000  Uiso   1.00
H908   H     0.65033   0.02086   0.89740   0.00000  Uiso   1.00
H909   H     0.60226   0.04239   0.81656   0.00000  Uiso   1.00
H910   H     0.65198   0.07532   0.81684   0.00000  Uiso   1.00
C911   C     0.87993   0.07204   0.83988   0.00000  Uiso   1.00
C912   C     0.87028   0.05557   0.89880   0.00000  Uiso   1.00
H913   H     0.90170   0.04887   0.92172   0.00000  Uiso   1.00
H914   H     0.85069   0.08447   0.92070   0.00000  Uiso   1.00
H915   H     0.85053   0.02056   0.89832   0.00000  Uiso   1.00
H916   H     0.84785   0.07527   0.81755   0.00000  Uiso   1.00
H917   H     0.89759   0.04236   0.81697   0.00000  Uiso   1.00
C918   C     0.62007   0.26130   0.82707   0.00000  Uiso   1.00
C919   C     0.62990   0.27786   0.76824   0.00000  Uiso   1.00
H920   H     0.64905   0.24875   0.74611   0.00000  Uiso   1.00
H921   H     0.59858   0.28526   0.74541   0.00000  Uiso   1.00
H922   H     0.65015   0.31250   0.76891   0.00000  Uiso   1.00
H923   H     0.60235   0.29096   0.84994   0.00000  Uiso   1.00
H924   H     0.65207   0.25802   0.84955   0.00000  Uiso   1.00
O925   O     0.25000   0.42845   0.87895   0.00000  Uiso   1.00
O926   O     0.25000   0.57155   0.78772   0.00000  Uiso   1.00
O927   O     0.25000   0.57155   0.87895   0.00000  Uiso   1.00
O928   O     0.25000   0.42845   0.78772   0.00000  Uiso   1.00
H929   H     0.46111   0.37534   0.85887   0.00000  Uiso   1.00
H930   H     0.03890   0.62467   0.80790   0.00000  Uiso   1.00
H931   H     0.46112   0.62466   0.80787   0.00000  Uiso   1.00
H932   H     0.03890   0.37535   0.85882   0.00000  Uiso   1.00
C933   C     0.25000   0.40600   0.83334   0.00000  Uiso   1.00
C934   C     0.25000   0.59400   0.83333   0.00000  Uiso   1.00
O935   O     0.18392   0.50000   0.87896   0.00000  Uiso   1.00
O936   O     0.31607   0.50000   0.78770   0.00000  Uiso   1.00
O937   O     0.31607   0.50000   0.87896   0.00000  Uiso   1.00
O938   O     0.18392   0.50000   0.78770   0.00000  Uiso   1.00
C939   C     0.16350   0.49999   0.83333   0.00000  Uiso   1.00
C940   C     0.33650   0.50001   0.83334   0.00000  Uiso   1.00
Zn941  Zn    0.25000   0.50000   0.89426   0.00000  Uiso   1.00
Zn942  Zn    0.25000   0.50000   0.77241   0.00000  Uiso   1.00
N943   N     0.25000   0.50000   0.69121   0.00000  Uiso   1.00
N944   N     0.25000   0.50000   0.97545   0.00000  Uiso   1.00
C945   C     0.40635   0.54584   0.82836   0.00000  Uiso   1.00
C946   C     0.09365   0.45415   0.83824   0.00000  Uiso   1.00
C947   C     0.40634   0.45417   0.83840   0.00000  Uiso   1.00
C948   C     0.09366   0.54584   0.82836   0.00000  Uiso   1.00
C949   C     0.38401   0.50000   0.83336   0.00000  Uiso   1.00
C950   C     0.11599   0.50000   0.83331   0.00000  Uiso   1.00
C951   C     0.45308   0.45455   0.84075   0.00000  Uiso   1.00
C952   C     0.04692   0.54546   0.82596   0.00000  Uiso   1.00
C953   C     0.45309   0.54546   0.82596   0.00000  Uiso   1.00
C954   C     0.04691   0.45454   0.84068   0.00000  Uiso   1.00
C955   C     0.47648   0.50000   0.83334   0.00000  Uiso   1.00
C956   C     0.02352   0.50000   0.83333   0.00000  Uiso   1.00
C957   C     0.47707   0.41056   0.85043   0.00000  Uiso   1.00
C958   C     0.02294   0.58945   0.81630   0.00000  Uiso   1.00
C959   C     0.47707   0.58945   0.81629   0.00000  Uiso   1.00
C960   C     0.02293   0.41056   0.85039   0.00000  Uiso   1.00
C961   C     0.25000   0.35505   0.83334   0.00000  Uiso   1.00
C962   C     0.25000   0.64495   0.83333   0.00000  Uiso   1.00
C963   C     0.37997   0.59464   0.82711   0.00000  Uiso   1.00
C964   C     0.37010   0.61124   0.76831   0.00000  Uiso   1.00
H965   H     0.40138   0.61878   0.74552   0.00000  Uiso   1.00
H966   H     0.35103   0.58210   0.74612   0.00000  Uiso   1.00
H967   H     0.34977   0.64579   0.76903   0.00000  Uiso   1.00
H968   H     0.34798   0.59135   0.84960   0.00000  Uiso   1.00
H969   H     0.39771   0.62427   0.85000   0.00000  Uiso   1.00
C970   C     0.12003   0.40536   0.83941   0.00000  Uiso   1.00
C971   C     0.12999   0.38874   0.89819   0.00000  Uiso   1.00
H972   H     0.14909   0.41788   0.92035   0.00000  Uiso   1.00
H973   H     0.09874   0.38117   0.92105   0.00000  Uiso   1.00
H974   H     0.15033   0.35419   0.89740   0.00000  Uiso   1.00
H975   H     0.10226   0.37572   0.81656   0.00000  Uiso   1.00
H976   H     0.15198   0.40866   0.81684   0.00000  Uiso   1.00
C977   C     0.37993   0.40538   0.83988   0.00000  Uiso   1.00
C978   C     0.37028   0.38891   0.89880   0.00000  Uiso   1.00
H979   H     0.40170   0.38220   0.92172   0.00000  Uiso   1.00
H980   H     0.35069   0.41780   0.92070   0.00000  Uiso   1.00
H981   H     0.35053   0.35390   0.89832   0.00000  Uiso   1.00
H982   H     0.34785   0.40860   0.81755   0.00000  Uiso   1.00
H983   H     0.39759   0.37570   0.81697   0.00000  Uiso   1.00
C984   C     0.12007   0.59463   0.82707   0.00000  Uiso   1.00
C985   C     0.12990   0.61120   0.76824   0.00000  Uiso   1.00
H986   H     0.14905   0.58208   0.74611   0.00000  Uiso   1.00
H987   H     0.09858   0.61860   0.74541   0.00000  Uiso   1.00
H988   H     0.15015   0.64583   0.76891   0.00000  Uiso   1.00
H989   H     0.10235   0.62429   0.84994   0.00000  Uiso   1.00
H990   H     0.15207   0.59135   0.84955   0.00000  Uiso   1.00
O991   O     0.75000   0.42845   0.87895   0.00000  Uiso   1.00
O992   O     0.75000   0.57155   0.78772   0.00000  Uiso   1.00
O993   O     0.75000   0.57155   0.87895   0.00000  Uiso   1.00
O994   O     0.75000   0.42845   0.78772   0.00000  Uiso   1.00
H995   H     0.96111   0.37534   0.85887   0.00000  Uiso   1.00
H996   H     0.53890   0.62467   0.80790   0.00000  Uiso   1.00
H997   H     0.96112   0.62466   0.80787   0.00000  Uiso   1.00
H998   H     0.53890   0.37535   0.85882   0.00000  Uiso   1.00
C999   C     0.75000   0.40600   0.83334   0.00000  Uiso   1.00
C1000  C     0.75000   0.59400   0.83333   0.00000  Uiso   1.00
O1001  O     0.68392   0.50000   0.87896   0.00000  Uiso   1.00
O1002  O     0.81607   0.50000   0.78770   0.00000  Uiso   1.00
O1003  O     0.81607   0.50000   0.87896   0.00000  Uiso   1.00
O1004  O     0.68392   0.50000   0.78770   0.00000  Uiso   1.00
C1005  C     0.66350   0.49999   0.83333   0.00000  Uiso   1.00
C1006  C     0.83650   0.50001   0.83334   0.00000  Uiso   1.00
Zn1007 Zn    0.75000   0.50000   0.89426   0.00000  Uiso   1.00
Zn1008 Zn    0.75000   0.50000   0.77241   0.00000  Uiso   1.00
N1009  N     0.75000   0.50000   0.69121   0.00000  Uiso   1.00
N1010  N     0.75000   0.50000   0.97545   0.00000  Uiso   1.00
C1011  C     0.90635   0.54584   0.82836   0.00000  Uiso   1.00
C1012  C     0.59365   0.45415   0.83824   0.00000  Uiso   1.00
C1013  C     0.90634   0.45417   0.83840   0.00000  Uiso   1.00
C1014  C     0.59366   0.54584   0.82836   0.00000  Uiso   1.00
C1015  C     0.88401   0.50000   0.83336   0.00000  Uiso   1.00
C1016  C     0.61599   0.50000   0.83331   0.00000  Uiso   1.00
C1017  C     0.95308   0.45455   0.84075   0.00000  Uiso   1.00
C1018  C     0.54692   0.54546   0.82596   0.00000  Uiso   1.00
C1019  C     0.95309   0.54546   0.82596   0.00000  Uiso   1.00
C1020  C     0.54691   0.45454   0.84068   0.00000  Uiso   1.00
C1021  C     0.97648   0.50000   0.83334   0.00000  Uiso   1.00
C1022  C     0.52352   0.50000   0.83333   0.00000  Uiso   1.00
C1023  C     0.97707   0.41056   0.85043   0.00000  Uiso   1.00
C1024  C     0.52294   0.58945   0.81630   0.00000  Uiso   1.00
C1025  C     0.97707   0.58945   0.81629   0.00000  Uiso   1.00
C1026  C     0.52293   0.41056   0.85039   0.00000  Uiso   1.00
C1027  C     0.75000   0.35505   0.83334   0.00000  Uiso   1.00
C1028  C     0.75000   0.64495   0.83333   0.00000  Uiso   1.00
C1029  C     0.87997   0.59464   0.82711   0.00000  Uiso   1.00
C1030  C     0.87010   0.61124   0.76831   0.00000  Uiso   1.00
H1031  H     0.90138   0.61878   0.74552   0.00000  Uiso   1.00
H1032  H     0.85103   0.58210   0.74612   0.00000  Uiso   1.00
H1033  H     0.84977   0.64579   0.76903   0.00000  Uiso   1.00
H1034  H     0.84798   0.59135   0.84960   0.00000  Uiso   1.00
H1035  H     0.89771   0.62427   0.85000   0.00000  Uiso   1.00
C1036  C     0.62003   0.40536   0.83941   0.00000  Uiso   1.00
C1037  C     0.62999   0.38874   0.89819   0.00000  Uiso   1.00
H1038  H     0.64909   0.41788   0.92035   0.00000  Uiso   1.00
H1039  H     0.59874   0.38117   0.92105   0.00000  Uiso   1.00
H1040  H     0.65033   0.35419   0.89740   0.00000  Uiso   1.00
H1041  H     0.60226   0.37572   0.81656   0.00000  Uiso   1.00
H1042  H     0.65198   0.40866   0.81684   0.00000  Uiso   1.00
C1043  C     0.87993   0.40538   0.83988   0.00000  Uiso   1.00
C1044  C     0.87028   0.38891   0.89880   0.00000  Uiso   1.00
H1045  H     0.90170   0.38220   0.92172   0.00000  Uiso   1.00
H1046  H     0.85069   0.41780   0.92070   0.00000  Uiso   1.00
H1047  H     0.85053   0.35390   0.89832   0.00000  Uiso   1.00
H1048  H     0.84785   0.40860   0.81755   0.00000  Uiso   1.00
H1049  H     0.89759   0.37570   0.81697   0.00000  Uiso   1.00
C1050  C     0.62007   0.59463   0.82707   0.00000  Uiso   1.00
C1051  C     0.62990   0.61120   0.76824   0.00000  Uiso   1.00
H1052  H     0.64905   0.58208   0.74611   0.00000  Uiso   1.00
H1053  H     0.59858   0.61860   0.74541   0.00000  Uiso   1.00
H1054  H     0.65015   0.64583   0.76891   0.00000  Uiso   1.00
H1055  H     0.60235   0.62429   0.84994   0.00000  Uiso   1.00
H1056  H     0.65207   0.59135   0.84955   0.00000  Uiso   1.00
O1057  O     0.25000   0.76178   0.87895   0.00000  Uiso   1.00
O1058  O     0.25000   0.90488   0.78772   0.00000  Uiso   1.00
O1059  O     0.25000   0.90488   0.87895   0.00000  Uiso   1.00
O1060  O     0.25000   0.76178   0.78772   0.00000  Uiso   1.00
H1061  H     0.46111   0.70868   0.85887   0.00000  Uiso   1.00
H1062  H     0.03890   0.95801   0.80790   0.00000  Uiso   1.00
H1063  H     0.46112   0.95799   0.80787   0.00000  Uiso   1.00
H1064  H     0.03890   0.70869   0.85882   0.00000  Uiso   1.00
C1065  C     0.25000   0.73933   0.83334   0.00000  Uiso   1.00
C1066  C     0.25000   0.92734   0.83333   0.00000  Uiso   1.00
O1067  O     0.18392   0.83333   0.87896   0.00000  Uiso   1.00
O1068  O     0.31607   0.83333   0.78770   0.00000  Uiso   1.00
O1069  O     0.31607   0.83333   0.87896   0.00000  Uiso   1.00
O1070  O     0.18392   0.83333   0.78770   0.00000  Uiso   1.00
C1071  C     0.16350   0.83333   0.83333   0.00000  Uiso   1.00
C1072  C     0.33650   0.83334   0.83334   0.00000  Uiso   1.00
Zn1073 Zn    0.25000   0.83333   0.89426   0.00000  Uiso   1.00
Zn1074 Zn    0.25000   0.83333   0.77241   0.00000  Uiso   1.00
N1075  N     0.25000   0.83333   0.69121   0.00000  Uiso   1.00
N1076  N     0.25000   0.83333   0.97545   0.00000  Uiso   1.00
C1077  C     0.40635   0.87918   0.82836   0.00000  Uiso   1.00
C1078  C     0.09365   0.78749   0.83824   0.00000  Uiso   1.00
C1079  C     0.40634   0.78750   0.83840   0.00000  Uiso   1.00
C1080  C     0.09366   0.87918   0.82836   0.00000  Uiso   1.00
C1081  C     0.38401   0.83334   0.83336   0.00000  Uiso   1.00
C1082  C     0.11599   0.83333   0.83331   0.00000  Uiso   1.00
C1083  C     0.45308   0.78788   0.84075   0.00000  Uiso   1.00
C1084  C     0.04692   0.87879   0.82596   0.00000  Uiso   1.00
C1085  C     0.45309   0.87879   0.82596   0.00000  Uiso   1.00
C1086  C     0.04691   0.78788   0.84068   0.00000  Uiso   1.00
C1087  C     0.47648   0.83333   0.83334   0.00000  Uiso   1.00
C1088  C     0.02352   0.83333   0.83333   0.00000  Uiso   1.00
C1089  C     0.47707   0.74389   0.85043   0.00000  Uiso   1.00
C1090  C     0.02294   0.92279   0.81630   0.00000  Uiso   1.00
C1091  C     0.47707   0.92278   0.81629   0.00000  Uiso   1.00
C1092  C     0.02293   0.74389   0.85039   0.00000  Uiso   1.00
C1093  C     0.25000   0.68839   0.83334   0.00000  Uiso   1.00
C1094  C     0.25000   0.97828   0.83333   0.00000  Uiso   1.00
C1095  C     0.37997   0.92797   0.82711   0.00000  Uiso   1.00
C1096  C     0.37010   0.94457   0.76831   0.00000  Uiso   1.00
H1097  H     0.40138   0.95212   0.74552   0.00000  Uiso   1.00
H1098  H     0.35103   0.91543   0.74612   0.00000  Uiso   1.00
H1099  H     0.34977   0.97913   0.76903   0.00000  Uiso   1.00
H1100  H     0.34798   0.92468   0.84960   0.00000  Uiso   1.00
H1101  H     0.39771   0.95761   0.85000   0.00000  Uiso   1.00
C1102  C     0.12003   0.73869   0.83941   0.00000  Uiso   1.00
C1103  C     0.12999   0.72207   0.89819   0.00000  Uiso   1.00
H1104  H     0.14909   0.75121   0.92035   0.00000  Uiso   1.00
H1105  H     0.09874   0.71451   0.92105   0.00000  Uiso   1.00
H1106  H     0.15033   0.68753   0.89740   0.00000  Uiso   1.00
H1107  H     0.10226   0.70905   0.81656   0.00000  Uiso   1.00
H1108  H     0.15198   0.74199   0.81684   0.00000  Uiso   1.00
C1109  C     0.37993   0.73871   0.83988   0.00000  Uiso   1.00
C1110  C     0.37028   0.72224   0.89880   0.00000  Uiso   1.00
H1111  H     0.40170   0.71554   0.92172   0.00000  Uiso   1.00
H1112  H     0.35069   0.75113   0.92070   0.00000  Uiso   1.00
H1113  H     0.35053   0.68723   0.89832   0.00000  Uiso   1.00
H1114  H     0.34785   0.74193   0.81755   0.00000  Uiso   1.00
H1115  H     0.39759   0.70903   0.81697   0.00000  Uiso   1.00
C1116  C     0.12007   0.92797   0.82707   0.00000  Uiso   1.00
C1117  C     0.12990   0.94453   0.76824   0.00000  Uiso   1.00
H1118  H     0.14905   0.91541   0.74611   0.00000  Uiso   1.00
H1119  H     0.09858   0.95193   0.74541   0.00000  Uiso   1.00
H1120  H     0.15015   0.97916   0.76891   0.00000  Uiso   1.00
H1121  H     0.10235   0.95763   0.84994   0.00000  Uiso   1.00
H1122  H     0.15207   0.92469   0.84955   0.00000  Uiso   1.00
O1123  O     0.75000   0.76178   0.87895   0.00000  Uiso   1.00
O1124  O     0.75000   0.90488   0.78772   0.00000  Uiso   1.00
O1125  O     0.75000   0.90488   0.87895   0.00000  Uiso   1.00
O1126  O     0.75000   0.76178   0.78772   0.00000  Uiso   1.00
H1127  H     0.96111   0.70868   0.85887   0.00000  Uiso   1.00
H1128  H     0.53890   0.95801   0.80790   0.00000  Uiso   1.00
H1129  H     0.96112   0.95799   0.80787   0.00000  Uiso   1.00
H1130  H     0.53890   0.70869   0.85882   0.00000  Uiso   1.00
C1131  C     0.75000   0.73933   0.83334   0.00000  Uiso   1.00
C1132  C     0.75000   0.92734   0.83333   0.00000  Uiso   1.00
O1133  O     0.68392   0.83333   0.87896   0.00000  Uiso   1.00
O1134  O     0.81607   0.83333   0.78770   0.00000  Uiso   1.00
O1135  O     0.81607   0.83333   0.87896   0.00000  Uiso   1.00
O1136  O     0.68392   0.83333   0.78770   0.00000  Uiso   1.00
C1137  C     0.66350   0.83333   0.83333   0.00000  Uiso   1.00
C1138  C     0.83650   0.83334   0.83334   0.00000  Uiso   1.00
Zn1139 Zn    0.75000   0.83333   0.89426   0.00000  Uiso   1.00
Zn1140 Zn    0.75000   0.83333   0.77241   0.00000  Uiso   1.00
N1141  N     0.75000   0.83333   0.69121   0.00000  Uiso   1.00
N1142  N     0.75000   0.83333   0.97545   0.00000  Uiso   1.00
C1143  C     0.90635   0.87918   0.82836   0.00000  Uiso   1.00
C1144  C     0.59365   0.78749   0.83824   0.00000  Uiso   1.00
C1145  C     0.90634   0.78750   0.83840   0.00000  Uiso   1.00
C1146  C     0.59366   0.87918   0.82836   0.00000  Uiso   1.00
C1147  C     0.88401   0.83334   0.83336   0.00000  Uiso   1.00
C1148  C     0.61599   0.83333   0.83331   0.00000  Uiso   1.00
C1149  C     0.95308   0.78788   0.84075   0.00000  Uiso   1.00
C1150  C     0.54692   0.87879   0.82596   0.00000  Uiso   1.00
C1151  C     0.95309   0.87879   0.82596   0.00000  Uiso   1.00
C1152  C     0.54691   0.78788   0.84068   0.00000  Uiso   1.00
C1153  C     0.97648   0.83333   0.83334   0.00000  Uiso   1.00
C1154  C     0.52352   0.83333   0.83333   0.00000  Uiso   1.00
C1155  C     0.97707   0.74389   0.85043   0.00000  Uiso   1.00
C1156  C     0.52294   0.92279   0.81630   0.00000  Uiso   1.00
C1157  C     0.97707   0.92278   0.81629   0.00000  Uiso   1.00
C1158  C     0.52293   0.74389   0.85039   0.00000  Uiso   1.00
C1159  C     0.75000   0.68839   0.83334   0.00000  Uiso   1.00
C1160  C     0.75000   0.97828   0.83333   0.00000  Uiso   1.00
C1161  C     0.87997   0.92797   0.82711   0.00000  Uiso   1.00
C1162  C     0.87010   0.94457   0.76831   0.00000  Uiso   1.00
H1163  H     0.90138   0.95212   0.74552   0.00000  Uiso   1.00
H1164  H     0.85103   0.91543   0.74612   0.00000  Uiso   1.00
H1165  H     0.84977   0.97913   0.76903   0.00000  Uiso   1.00
H1166  H     0.84798   0.92468   0.84960   0.00000  Uiso   1.00
H1167  H     0.89771   0.95761   0.85000   0.00000  Uiso   1.00
C1168  C     0.62003   0.73869   0.83941   0.00000  Uiso   1.00
C1169  C     0.62999   0.72207   0.89819   0.00000  Uiso   1.00
H1170  H     0.64909   0.75121   0.92035   0.00000  Uiso   1.00
H1171  H     0.59874   0.71451   0.92105   0.00000  Uiso   1.00
H1172  H     0.65033   0.68753   0.89740   0.00000  Uiso   1.00
H1173  H     0.60226   0.70905   0.81656   0.00000  Uiso   1.00
H1174  H     0.65198   0.74199   0.81684   0.00000  Uiso   1.00
C1175  C     0.87993   0.73871   0.83988   0.00000  Uiso   1.00
C1176  C     0.87028   0.72224   0.89880   0.00000  Uiso   1.00
H1177  H     0.90170   0.71554   0.92172   0.00000  Uiso   1.00
H1178  H     0.85069   0.75113   0.92070   0.00000  Uiso   1.00
H1179  H     0.85053   0.68723   0.89832   0.00000  Uiso   1.00
H1180  H     0.84785   0.74193   0.81755   0.00000  Uiso   1.00
H1181  H     0.89759   0.70903   0.81697   0.00000  Uiso   1.00
C1182  C     0.62007   0.92797   0.82707   0.00000  Uiso   1.00
C1183  C     0.62990   0.94453   0.76824   0.00000  Uiso   1.00
H1184  H     0.64905   0.91541   0.74611   0.00000  Uiso   1.00
H1185  H     0.59858   0.95193   0.74541   0.00000  Uiso   1.00
H1186  H     0.65015   0.97916   0.76891   0.00000  Uiso   1.00
H1187  H     0.60235   0.95763   0.84994   0.00000  Uiso   1.00
H1188  H     0.65207   0.92469   0.84955   0.00000  Uiso   1.00
loop_
_geom_bond_atom_site_label_1
_geom_bond_atom_site_label_2
_geom_bond_distance
_geom_bond_site_symmetry_2
_ccdc_geom_bond_type
O1     Zn17    1.956   .     S
O1     C9      1.263   .     A
O2     Zn18    1.956   .     S
O2     C10     1.263   .     A
O3     C10     1.263   .     A
O3     Zn17    1.956   .     S
O4     Zn18    1.956   .     S
O4     C9      1.263   .     A
H5     C33     1.079   .     S
H6     C34     1.079   .     S
H7     C35     1.079   .     S
H8     C36     1.079   .     S
C9     C37     1.367   .     S
C10    C38     1.367   .     S
O11    C15     1.269   .     A
O11    Zn17    2.017   .     S
O12    C16     1.269   .     A
O12    Zn18    2.017   .     S
O13    Zn17    2.018   .     S
O13    C16     1.269   .     A
O14    Zn18    2.018   .     S
O14    C15     1.269   .     A
C15    C26     1.426   .     S
C16    C25     1.426   .     S
Zn17   N20     1.976   .     S
Zn18   N19     1.976   .     S
N19    N812    1.195   1_554 S
N20    N415    1.195   .     S
C21    C39     1.531   .     S
C21    C25     1.406   .     A
C21    C29     1.404   .     A
C22    C46     1.531   .     S
C22    C26     1.406   .     A
C22    C30     1.404   .     A
C23    C53     1.531   .     S
C23    C27     1.404   .     A
C23    C25     1.406   .     A
C24    C26     1.406   .     A
C24    C60     1.531   .     S
C24    C28     1.404   .     A
C27    C33     1.403   .     A
C27    C31     1.419   .     A
C28    C32     1.419   .     A
C28    C34     1.403   .     A
C29    C31     1.419   .     A
C29    C35     1.403   .     A
C30    C36     1.402   .     A
C30    C32     1.419   .     A
C31    C98     1.412   .     S
C32    C97     1.412   1_455 S
C33    C102    1.376   .     S
C34    C101    1.376   1_455 S
C35    C100    1.376   .     S
C36    C99     1.376   1_455 S
C37    C302    1.166   1_545 S
C38    C169    1.166   .     S
C39    H44     1.109   .     S
C39    C40     1.528   .     S
C39    H45     1.107   .     S
C40    H42     1.109   .     S
C40    H41     1.109   .     S
C40    H43     1.110   .     S
C46    H52     1.109   .     S
C46    H51     1.107   .     S
C46    C47     1.528   .     S
C47    H50     1.110   .     S
C47    H48     1.109   .     S
C47    H49     1.109   .     S
C53    H58     1.109   .     S
C53    H59     1.108   .     S
C53    C54     1.528   .     S
C54    H56     1.110   .     S
C54    H55     1.110   .     S
C54    H57     1.111   .     S
C60    H66     1.109   .     S
C60    H65     1.107   .     S
C60    C61     1.528   .     S
C61    H64     1.110   .     S
C61    H62     1.110   .     S
C61    H63     1.110   .     S
O67    Zn83    1.956   .     S
O67    C75     1.263   .     A
O68    Zn84    1.956   .     S
O68    C76     1.263   .     A
O69    C76     1.263   .     A
O69    Zn83    1.956   .     S
O70    Zn84    1.956   .     S
O70    C75     1.263   .     A
H71    C99     1.079   .     S
H72    C100    1.079   .     S
H73    C101    1.079   .     S
H74    C102    1.079   .     S
C75    C103    1.367   .     S
C76    C104    1.367   .     S
O77    C81     1.269   .     A
O77    Zn83    2.017   .     S
O78    C82     1.269   .     A
O78    Zn84    2.017   .     S
O79    Zn83    2.018   .     S
O79    C82     1.269   .     A
O80    Zn84    2.018   .     S
O80    C81     1.269   .     A
C81    C92     1.426   .     S
C82    C91     1.426   .     S
Zn83   N86     1.976   .     S
Zn84   N85     1.976   .     S
N85    N878    1.195   1_554 S
N86    N481    1.195   .     S
C87    C105    1.531   .     S
C87    C91     1.406   .     A
C87    C95     1.404   .     A
C88    C112    1.531   .     S
C88    C92     1.406   .     A
C88    C96     1.404   .     A
C89    C119    1.531   .     S
C89    C93     1.404   .     A
C89    C91     1.406   .     A
C90    C92     1.406   .     A
C90    C126    1.531   .     S
C90    C94     1.404   .     A
C93    C99     1.403   .     A
C93    C97     1.419   .     A
C94    C98     1.419   .     A
C94    C100    1.403   .     A
C95    C97     1.419   .     A
C95    C101    1.403   .     A
C96    C102    1.402   .     A
C96    C98     1.419   .     A
C97    C32     1.412   1_655 S
C99    C36     1.376   1_655 S
C101   C34     1.376   1_655 S
C103   C368    1.166   1_545 S
C104   C235    1.166   .     S
C105   H110    1.109   .     S
C105   C106    1.528   .     S
C105   H111    1.107   .     S
C106   H108    1.109   .     S
C106   H107    1.109   .     S
C106   H109    1.110   .     S
C112   H118    1.109   .     S
C112   H117    1.107   .     S
C112   C113    1.528   .     S
C113   H116    1.110   .     S
C113   H114    1.109   .     S
C113   H115    1.109   .     S
C119   H124    1.109   .     S
C119   H125    1.108   .     S
C119   C120    1.528   .     S
C120   H122    1.110   .     S
C120   H121    1.110   .     S
C120   H123    1.111   .     S
C126   H132    1.109   .     S
C126   H131    1.107   .     S
C126   C127    1.528   .     S
C127   H130    1.110   .     S
C127   H128    1.110   .     S
C127   H129    1.110   .     S
O133   Zn149   1.956   .     S
O133   C141    1.263   .     A
O134   Zn150   1.956   .     S
O134   C142    1.263   .     A
O135   C142    1.263   .     A
O135   Zn149   1.956   .     S
O136   Zn150   1.956   .     S
O136   C141    1.263   .     A
H137   C165    1.079   .     S
H138   C166    1.079   .     S
H139   C167    1.079   .     S
H140   C168    1.079   .     S
C141   C169    1.367   .     S
C142   C170    1.367   .     S
O143   C147    1.269   .     A
O143   Zn149   2.017   .     S
O144   C148    1.269   .     A
O144   Zn150   2.017   .     S
O145   Zn149   2.018   .     S
O145   C148    1.269   .     A
O146   Zn150   2.018   .     S
O146   C147    1.269   .     A
C147   C158    1.426   .     S
C148   C157    1.426   .     S
Zn149  N152    1.976   .     S
Zn150  N151    1.976   .     S
N151   N944    1.195   1_554 S
N152   N547    1.195   .     S
C153   C171    1.531   .     S
C153   C157    1.406   .     A
C153   C161    1.404   .     A
C154   C178    1.531   .     S
C154   C158    1.406   .     A
C154   C162    1.404   .     A
C155   C185    1.531   .     S
C155   C159    1.404   .     A
C155   C157    1.406   .     A
C156   C158    1.406   .     A
C156   C192    1.531   .     S
C156   C160    1.404   .     A
C159   C165    1.403   .     A
C159   C163    1.419   .     A
C160   C164    1.419   .     A
C160   C166    1.403   .     A
C161   C163    1.419   .     A
C161   C167    1.403   .     A
C162   C168    1.402   .     A
C162   C164    1.419   .     A
C163   C230    1.412   .     S
C164   C229    1.412   1_455 S
C165   C234    1.376   .     S
C166   C233    1.376   1_455 S
C167   C232    1.376   .     S
C168   C231    1.376   1_455 S
C170   C301    1.166   .     S
C171   H176    1.109   .     S
C171   C172    1.528   .     S
C171   H177    1.107   .     S
C172   H174    1.109   .     S
C172   H173    1.109   .     S
C172   H175    1.110   .     S
C178   H184    1.109   .     S
C178   H183    1.107   .     S
C178   C179    1.528   .     S
C179   H182    1.110   .     S
C179   H180    1.109   .     S
C179   H181    1.109   .     S
C185   H190    1.109   .     S
C185   H191    1.108   .     S
C185   C186    1.528   .     S
C186   H188    1.110   .     S
C186   H187    1.110   .     S
C186   H189    1.111   .     S
C192   H198    1.109   .     S
C192   H197    1.107   .     S
C192   C193    1.528   .     S
C193   H196    1.110   .     S
C193   H194    1.110   .     S
C193   H195    1.110   .     S
O199   Zn215   1.956   .     S
O199   C207    1.263   .     A
O200   Zn216   1.956   .     S
O200   C208    1.263   .     A
O201   C208    1.263   .     A
O201   Zn215   1.956   .     S
O202   Zn216   1.956   .     S
O202   C207    1.263   .     A
H203   C231    1.079   .     S
H204   C232    1.079   .     S
H205   C233    1.079   .     S
H206   C234    1.079   .     S
C207   C235    1.367   .     S
C208   C236    1.367   .     S
O209   C213    1.269   .     A
O209   Zn215   2.017   .     S
O210   C214    1.269   .     A
O210   Zn216   2.017   .     S
O211   Zn215   2.018   .     S
O211   C214    1.269   .     A
O212   Zn216   2.018   .     S
O212   C213    1.269   .     A
C213   C224    1.426   .     S
C214   C223    1.426   .     S
Zn215  N218    1.976   .     S
Zn216  N217    1.976   .     S
N217   N1010   1.195   1_554 S
N218   N613    1.195   .     S
C219   C237    1.531   .     S
C219   C223    1.406   .     A
C219   C227    1.404   .     A
C220   C244    1.531   .     S
C220   C224    1.406   .     A
C220   C228    1.404   .     A
C221   C251    1.531   .     S
C221   C225    1.404   .     A
C221   C223    1.406   .     A
C222   C224    1.406   .     A
C222   C258    1.531   .     S
C222   C226    1.404   .     A
C225   C231    1.403   .     A
C225   C229    1.419   .     A
C226   C230    1.419   .     A
C226   C232    1.403   .     A
C227   C229    1.419   .     A
C227   C233    1.403   .     A
C228   C234    1.402   .     A
C228   C230    1.419   .     A
C229   C164    1.412   1_655 S
C231   C168    1.376   1_655 S
C233   C166    1.376   1_655 S
C236   C367    1.166   .     S
C237   H242    1.109   .     S
C237   C238    1.528   .     S
C237   H243    1.107   .     S
C238   H240    1.109   .     S
C238   H239    1.109   .     S
C238   H241    1.110   .     S
C244   H250    1.109   .     S
C244   H249    1.107   .     S
C244   C245    1.528   .     S
C245   H248    1.110   .     S
C245   H246    1.109   .     S
C245   H247    1.109   .     S
C251   H256    1.109   .     S
C251   H257    1.108   .     S
C251   C252    1.528   .     S
C252   H254    1.110   .     S
C252   H253    1.110   .     S
C252   H255    1.111   .     S
C258   H264    1.109   .     S
C258   H263    1.107   .     S
C258   C259    1.528   .     S
C259   H262    1.110   .     S
C259   H260    1.110   .     S
C259   H261    1.110   .     S
O265   Zn281   1.956   .     S
O265   C273    1.263   .     A
O266   Zn282   1.956   .     S
O266   C274    1.263   .     A
O267   C274    1.263   .     A
O267   Zn281   1.956   .     S
O268   Zn282   1.956   .     S
O268   C273    1.263   .     A
H269   C297    1.079   .     S
H270   C298    1.079   .     S
H271   C299    1.079   .     S
H272   C300    1.079   .     S
C273   C301    1.367   .     S
C274   C302    1.367   .     S
O275   C279    1.269   .     A
O275   Zn281   2.017   .     S
O276   C280    1.269   .     A
O276   Zn282   2.017   .     S
O277   Zn281   2.018   .     S
O277   C280    1.269   .     A
O278   Zn282   2.018   .     S
O278   C279    1.269   .     A
C279   C290    1.426   .     S
C280   C289    1.426   .     S
Zn281  N284    1.976   .     S
Zn282  N283    1.976   .     S
N283   N1076   1.195   1_554 S
N284   N679    1.195   .     S
C285   C303    1.531   .     S
C285   C289    1.406   .     A
C285   C293    1.404   .     A
C286   C310    1.531   .     S
C286   C290    1.406   .     A
C286   C294    1.404   .     A
C287   C317    1.531   .     S
C287   C291    1.404   .     A
C287   C289    1.406   .     A
C288   C290    1.406   .     A
C288   C324    1.531   .     S
C288   C292    1.404   .     A
C291   C297    1.403   .     A
C291   C295    1.419   .     A
C292   C296    1.419   .     A
C292   C298    1.403   .     A
C293   C295    1.419   .     A
C293   C299    1.403   .     A
C294   C300    1.402   .     A
C294   C296    1.419   .     A
C295   C362    1.412   .     S
C296   C361    1.412   1_455 S
C297   C366    1.376   .     S
C298   C365    1.376   1_455 S
C299   C364    1.376   .     S
C300   C363    1.376   1_455 S
C302   C37     1.166   1_565 S
C303   H308    1.109   .     S
C303   C304    1.528   .     S
C303   H309    1.107   .     S
C304   H306    1.109   .     S
C304   H305    1.109   .     S
C304   H307    1.110   .     S
C310   H316    1.109   .     S
C310   H315    1.107   .     S
C310   C311    1.528   .     S
C311   H314    1.110   .     S
C311   H312    1.109   .     S
C311   H313    1.109   .     S
C317   H322    1.109   .     S
C317   H323    1.108   .     S
C317   C318    1.528   .     S
C318   H320    1.110   .     S
C318   H319    1.110   .     S
C318   H321    1.111   .     S
C324   H330    1.109   .     S
C324   H329    1.107   .     S
C324   C325    1.528   .     S
C325   H328    1.110   .     S
C325   H326    1.110   .     S
C325   H327    1.110   .     S
O331   Zn347   1.956   .     S
O331   C339    1.263   .     A
O332   Zn348   1.956   .     S
O332   C340    1.263   .     A
O333   C340    1.263   .     A
O333   Zn347   1.956   .     S
O334   Zn348   1.956   .     S
O334   C339    1.263   .     A
H335   C363    1.079   .     S
H336   C364    1.079   .     S
H337   C365    1.079   .     S
H338   C366    1.079   .     S
C339   C367    1.367   .     S
C340   C368    1.367   .     S
O341   C345    1.269   .     A
O341   Zn347   2.017   .     S
O342   C346    1.269   .     A
O342   Zn348   2.017   .     S
O343   Zn347   2.018   .     S
O343   C346    1.269   .     A
O344   Zn348   2.018   .     S
O344   C345    1.269   .     A
C345   C356    1.426   .     S
C346   C355    1.426   .     S
Zn347  N350    1.976   .     S
Zn348  N349    1.976   .     S
N349   N1142   1.195   1_554 S
N350   N745    1.195   .     S
C351   C369    1.531   .     S
C351   C355    1.406   .     A
C351   C359    1.404   .     A
C352   C376    1.531   .     S
C352   C356    1.406   .     A
C352   C360    1.404   .     A
C353   C383    1.531   .     S
C353   C357    1.404   .     A
C353   C355    1.406   .     A
C354   C356    1.406   .     A
C354   C390    1.531   .     S
C354   C358    1.404   .     A
C357   C363    1.403   .     A
C357   C361    1.419   .     A
C358   C362    1.419   .     A
C358   C364    1.403   .     A
C359   C361    1.419   .     A
C359   C365    1.403   .     A
C360   C366    1.402   .     A
C360   C362    1.419   .     A
C361   C296    1.412   1_655 S
C363   C300    1.376   1_655 S
C365   C298    1.376   1_655 S
C368   C103    1.166   1_565 S
C369   H374    1.109   .     S
C369   C370    1.528   .     S
C369   H375    1.107   .     S
C370   H372    1.109   .     S
C370   H371    1.109   .     S
C370   H373    1.110   .     S
C376   H382    1.109   .     S
C376   H381    1.107   .     S
C376   C377    1.528   .     S
C377   H380    1.110   .     S
C377   H378    1.109   .     S
C377   H379    1.109   .     S
C383   H388    1.109   .     S
C383   H389    1.108   .     S
C383   C384    1.528   .     S
C384   H386    1.110   .     S
C384   H385    1.110   .     S
C384   H387    1.111   .     S
C390   H396    1.109   .     S
C390   H395    1.107   .     S
C390   C391    1.528   .     S
C391   H394    1.110   .     S
C391   H392    1.110   .     S
C391   H393    1.110   .     S
O397   Zn413   1.956   .     S
O397   C405    1.263   .     A
O398   Zn414   1.956   .     S
O398   C406    1.263   .     A
O399   C406    1.263   .     A
O399   Zn413   1.956   .     S
O400   Zn414   1.956   .     S
O400   C405    1.263   .     A
H401   C429    1.079   .     S
H402   C430    1.079   .     S
H403   C431    1.079   .     S
H404   C432    1.079   .     S
C405   C433    1.367   .     S
C406   C434    1.367   .     S
O407   C411    1.269   .     A
O407   Zn413   2.017   .     S
O408   C412    1.269   .     A
O408   Zn414   2.017   .     S
O409   Zn413   2.018   .     S
O409   C412    1.269   .     A
O410   Zn414   2.018   .     S
O410   C411    1.269   .     A
C411   C422    1.426   .     S
C412   C421    1.426   .     S
Zn413  N416    1.976   .     S
Zn414  N415    1.976   .     S
N416   N811    1.195   .     S
C417   C435    1.531   .     S
C417   C421    1.406   .     A
C417   C425    1.404   .     A
C418   C442    1.531   .     S
C418   C422    1.406   .     A
C418   C426    1.404   .     A
C419   C449    1.531   .     S
C419   C423    1.404   .     A
C419   C421    1.406   .     A
C420   C422    1.406   .     A
C420   C456    1.531   .     S
C420   C424    1.404   .     A
C423   C429    1.403   .     A
C423   C427    1.419   .     A
C424   C428    1.419   .     A
C424   C430    1.403   .     A
C425   C427    1.419   .     A
C425   C431    1.403   .     A
C426   C432    1.402   .     A
C426   C428    1.419   .     A
C427   C494    1.412   .     S
C428   C493    1.412   1_455 S
C429   C498    1.376   .     S
C430   C497    1.376   1_455 S
C431   C496    1.376   .     S
C432   C495    1.376   1_455 S
C433   C698    1.166   1_545 S
C434   C565    1.166   .     S
C435   H440    1.109   .     S
C435   C436    1.528   .     S
C435   H441    1.107   .     S
C436   H438    1.109   .     S
C436   H437    1.109   .     S
C436   H439    1.110   .     S
C442   H448    1.109   .     S
C442   H447    1.107   .     S
C442   C443    1.528   .     S
C443   H446    1.110   .     S
C443   H444    1.109   .     S
C443   H445    1.109   .     S
C449   H454    1.109   .     S
C449   H455    1.108   .     S
C449   C450    1.528   .     S
C450   H452    1.110   .     S
C450   H451    1.110   .     S
C450   H453    1.111   .     S
C456   H462    1.109   .     S
C456   H461    1.107   .     S
C456   C457    1.528   .     S
C457   H460    1.110   .     S
C457   H458    1.110   .     S
C457   H459    1.110   .     S
O463   Zn479   1.956   .     S
O463   C471    1.263   .     A
O464   Zn480   1.956   .     S
O464   C472    1.263   .     A
O465   C472    1.263   .     A
O465   Zn479   1.956   .     S
O466   Zn480   1.956   .     S
O466   C471    1.263   .     A
H467   C495    1.079   .     S
H468   C496    1.079   .     S
H469   C497    1.079   .     S
H470   C498    1.079   .     S
C471   C499    1.367   .     S
C472   C500    1.367   .     S
O473   C477    1.269   .     A
O473   Zn479   2.017   .     S
O474   C478    1.269   .     A
O474   Zn480   2.017   .     S
O475   Zn479   2.018   .     S
O475   C478    1.269   .     A
O476   Zn480   2.018   .     S
O476   C477    1.269   .     A
C477   C488    1.426   .     S
C478   C487    1.426   .     S
Zn479  N482    1.976   .     S
Zn480  N481    1.976   .     S
N482   N877    1.195   .     S
C483   C501    1.531   .     S
C483   C487    1.406   .     A
C483   C491    1.404   .     A
C484   C508    1.531   .     S
C484   C488    1.406   .     A
C484   C492    1.404   .     A
C485   C515    1.531   .     S
C485   C489    1.404   .     A
C485   C487    1.406   .     A
C486   C488    1.406   .     A
C486   C522    1.531   .     S
C486   C490    1.404   .     A
C489   C495    1.403   .     A
C489   C493    1.419   .     A
C490   C494    1.419   .     A
C490   C496    1.403   .     A
C491   C493    1.419   .     A
C491   C497    1.403   .     A
C492   C498    1.402   .     A
C492   C494    1.419   .     A
C493   C428    1.412   1_655 S
C495   C432    1.376   1_655 S
C497   C430    1.376   1_655 S
C499   C764    1.166   1_545 S
C500   C631    1.166   .     S
C501   H506    1.109   .     S
C501   C502    1.528   .     S
C501   H507    1.107   .     S
C502   H504    1.109   .     S
C502   H503    1.109   .     S
C502   H505    1.110   .     S
C508   H514    1.109   .     S
C508   H513    1.107   .     S
C508   C509    1.528   .     S
C509   H512    1.110   .     S
C509   H510    1.109   .     S
C509   H511    1.109   .     S
C515   H520    1.109   .     S
C515   H521    1.108   .     S
C515   C516    1.528   .     S
C516   H518    1.110   .     S
C516   H517    1.110   .     S
C516   H519    1.111   .     S
C522   H528    1.109   .     S
C522   H527    1.107   .     S
C522   C523    1.528   .     S
C523   H526    1.110   .     S
C523   H524    1.110   .     S
C523   H525    1.110   .     S
O529   Zn545   1.956   .     S
O529   C537    1.263   .     A
O530   Zn546   1.956   .     S
O530   C538    1.263   .     A
O531   C538    1.263   .     A
O531   Zn545   1.956   .     S
O532   Zn546   1.956   .     S
O532   C537    1.263   .     A
H533   C561    1.079   .     S
H534   C562    1.079   .     S
H535   C563    1.079   .     S
H536   C564    1.079   .     S
C537   C565    1.367   .     S
C538   C566    1.367   .     S
O539   C543    1.269   .     A
O539   Zn545   2.017   .     S
O540   C544    1.269   .     A
O540   Zn546   2.017   .     S
O541   Zn545   2.018   .     S
O541   C544    1.269   .     A
O542   Zn546   2.018   .     S
O542   C543    1.269   .     A
C543   C554    1.426   .     S
C544   C553    1.426   .     S
Zn545  N548    1.976   .     S
Zn546  N547    1.976   .     S
N548   N943    1.195   .     S
C549   C567    1.531   .     S
C549   C553    1.406   .     A
C549   C557    1.404   .     A
C550   C574    1.531   .     S
C550   C554    1.406   .     A
C550   C558    1.404   .     A
C551   C581    1.531   .     S
C551   C555    1.404   .     A
C551   C553    1.406   .     A
C552   C554    1.406   .     A
C552   C588    1.531   .     S
C552   C556    1.404   .     A
C555   C561    1.403   .     A
C555   C559    1.419   .     A
C556   C560    1.419   .     A
C556   C562    1.403   .     A
C557   C559    1.419   .     A
C557   C563    1.403   .     A
C558   C564    1.402   .     A
C558   C560    1.419   .     A
C559   C626    1.412   .     S
C560   C625    1.412   1_455 S
C561   C630    1.376   .     S
C562   C629    1.376   1_455 S
C563   C628    1.376   .     S
C564   C627    1.376   1_455 S
C566   C697    1.166   .     S
C567   H572    1.109   .     S
C567   C568    1.528   .     S
C567   H573    1.107   .     S
C568   H570    1.109   .     S
C568   H569    1.109   .     S
C568   H571    1.110   .     S
C574   H580    1.109   .     S
C574   H579    1.107   .     S
C574   C575    1.528   .     S
C575   H578    1.110   .     S
C575   H576    1.109   .     S
C575   H577    1.109   .     S
C581   H586    1.109   .     S
C581   H587    1.108   .     S
C581   C582    1.528   .     S
C582   H584    1.110   .     S
C582   H583    1.110   .     S
C582   H585    1.111   .     S
C588   H594    1.109   .     S
C588   H593    1.107   .     S
C588   C589    1.528   .     S
C589   H592    1.110   .     S
C589   H590    1.110   .     S
C589   H591    1.110   .     S
O595   Zn611   1.956   .     S
O595   C603    1.263   .     A
O596   Zn612   1.956   .     S
O596   C604    1.263   .     A
O597   C604    1.263   .     A
O597   Zn611   1.956   .     S
O598   Zn612   1.956   .     S
O598   C603    1.263   .     A
H599   C627    1.079   .     S
H600   C628    1.079   .     S
H601   C629    1.079   .     S
H602   C630    1.079   .     S
C603   C631    1.367   .     S
C604   C632    1.367   .     S
O605   C609    1.269   .     A
O605   Zn611   2.017   .     S
O606   C610    1.269   .     A
O606   Zn612   2.017   .     S
O607   Zn611   2.018   .     S
O607   C610    1.269   .     A
O608   Zn612   2.018   .     S
O608   C609    1.269   .     A
C609   C620    1.426   .     S
C610   C619    1.426   .     S
Zn611  N614    1.976   .     S
Zn612  N613    1.976   .     S
N614   N1009   1.195   .     S
C615   C633    1.531   .     S
C615   C619    1.406   .     A
C615   C623    1.404   .     A
C616   C640    1.531   .     S
C616   C620    1.406   .     A
C616   C624    1.404   .     A
C617   C647    1.531   .     S
C617   C621    1.404   .     A
C617   C619    1.406   .     A
C618   C620    1.406   .     A
C618   C654    1.531   .     S
C618   C622    1.404   .     A
C621   C627    1.403   .     A
C621   C625    1.419   .     A
C622   C626    1.419   .     A
C622   C628    1.403   .     A
C623   C625    1.419   .     A
C623   C629    1.403   .     A
C624   C630    1.402   .     A
C624   C626    1.419   .     A
C625   C560    1.412   1_655 S
C627   C564    1.376   1_655 S
C629   C562    1.376   1_655 S
C632   C763    1.166   .     S
C633   H638    1.109   .     S
C633   C634    1.528   .     S
C633   H639    1.107   .     S
C634   H636    1.109   .     S
C634   H635    1.109   .     S
C634   H637    1.110   .     S
C640   H646    1.109   .     S
C640   H645    1.107   .     S
C640   C641    1.528   .     S
C641   H644    1.110   .     S
C641   H642    1.109   .     S
C641   H643    1.109   .     S
C647   H652    1.109   .     S
C647   H653    1.108   .     S
C647   C648    1.528   .     S
C648   H650    1.110   .     S
C648   H649    1.110   .     S
C648   H651    1.111   .     S
C654   H660    1.109   .     S
C654   H659    1.107   .     S
C654   C655    1.528   .     S
C655   H658    1.110   .     S
C655   H656    1.110   .     S
C655   H657    1.110   .     S
O661   Zn677   1.956   .     S
O661   C669    1.263   .     A
O662   Zn678   1.956   .     S
O662   C670    1.263   .     A
O663   C670    1.263   .     A
O663   Zn677   1.956   .     S
O664   Zn678   1.956   .     S
O664   C669    1.263   .     A
H665   C693    1.079   .     S
H666   C694    1.079   .     S
H667   C695    1.079   .     S
H668   C696    1.079   .     S
C669   C697    1.367   .     S
C670   C698    1.367   .     S
O671   C675    1.269   .     A
O671   Zn677   2.017   .     S
O672   C676    1.269   .     A
O672   Zn678   2.017   .     S
O673   Zn677   2.018   .     S
O673   C676    1.269   .     A
O674   Zn678   2.018   .     S
O674   C675    1.269   .     A
C675   C686    1.426   .     S
C676   C685    1.426   .     S
Zn677  N680    1.976   .     S
Zn678  N679    1.976   .     S
N680   N1075   1.195   .     S
C681   C699    1.531   .     S
C681   C685    1.406   .     A
C681   C689    1.404   .     A
C682   C706    1.531   .     S
C682   C686    1.406   .     A
C682   C690    1.404   .     A
C683   C713    1.531   .     S
C683   C687    1.404   .     A
C683   C685    1.406   .     A
C684   C686    1.406   .     A
C684   C720    1.531   .     S
C684   C688    1.404   .     A
C687   C693    1.403   .     A
C687   C691    1.419   .     A
C688   C692    1.419   .     A
C688   C694    1.403   .     A
C689   C691    1.419   .     A
C689   C695    1.403   .     A
C690   C696    1.402   .     A
C690   C692    1.419   .     A
C691   C758    1.412   .     S
C692   C757    1.412   1_455 S
C693   C762    1.376   .     S
C694   C761    1.376   1_455 S
C695   C760    1.376   .     S
C696   C759    1.376   1_455 S
C698   C433    1.166   1_565 S
C699   H704    1.109   .     S
C699   C700    1.528   .     S
C699   H705    1.107   .     S
C700   H702    1.109   .     S
C700   H701    1.109   .     S
C700   H703    1.110   .     S
C706   H712    1.109   .     S
C706   H711    1.107   .     S
C706   C707    1.528   .     S
C707   H710    1.110   .     S
C707   H708    1.109   .     S
C707   H709    1.109   .     S
C713   H718    1.109   .     S
C713   H719    1.108   .     S
C713   C714    1.528   .     S
C714   H716    1.110   .     S
C714   H715    1.110   .     S
C714   H717    1.111   .     S
C720   H726    1.109   .     S
C720   H725    1.107   .     S
C720   C721    1.528   .     S
C721   H724    1.110   .     S
C721   H722    1.110   .     S
C721   H723    1.110   .     S
O727   Zn743   1.956   .     S
O727   C735    1.263   .     A
O728   Zn744   1.956   .     S
O728   C736    1.263   .     A
O729   C736    1.263   .     A
O729   Zn743   1.956   .     S
O730   Zn744   1.956   .     S
O730   C735    1.263   .     A
H731   C759    1.079   .     S
H732   C760    1.079   .     S
H733   C761    1.079   .     S
H734   C762    1.079   .     S
C735   C763    1.367   .     S
C736   C764    1.367   .     S
O737   C741    1.269   .     A
O737   Zn743   2.017   .     S
O738   C742    1.269   .     A
O738   Zn744   2.017   .     S
O739   Zn743   2.018   .     S
O739   C742    1.269   .     A
O740   Zn744   2.018   .     S
O740   C741    1.269   .     A
C741   C752    1.426   .     S
C742   C751    1.426   .     S
Zn743  N746    1.976   .     S
Zn744  N745    1.976   .     S
N746   N1141   1.195   .     S
C747   C765    1.531   .     S
C747   C751    1.406   .     A
C747   C755    1.404   .     A
C748   C772    1.531   .     S
C748   C752    1.406   .     A
C748   C756    1.404   .     A
C749   C779    1.531   .     S
C749   C753    1.404   .     A
C749   C751    1.406   .     A
C750   C752    1.406   .     A
C750   C786    1.531   .     S
C750   C754    1.404   .     A
C753   C759    1.403   .     A
C753   C757    1.419   .     A
C754   C758    1.419   .     A
C754   C760    1.403   .     A
C755   C757    1.419   .     A
C755   C761    1.403   .     A
C756   C762    1.402   .     A
C756   C758    1.419   .     A
C757   C692    1.412   1_655 S
C759   C696    1.376   1_655 S
C761   C694    1.376   1_655 S
C764   C499    1.166   1_565 S
C765   H770    1.109   .     S
C765   C766    1.528   .     S
C765   H771    1.107   .     S
C766   H768    1.109   .     S
C766   H767    1.109   .     S
C766   H769    1.110   .     S
C772   H778    1.109   .     S
C772   H777    1.107   .     S
C772   C773    1.528   .     S
C773   H776    1.110   .     S
C773   H774    1.109   .     S
C773   H775    1.109   .     S
C779   H784    1.109   .     S
C779   H785    1.108   .     S
C779   C780    1.528   .     S
C780   H782    1.110   .     S
C780   H781    1.110   .     S
C780   H783    1.111   .     S
C786   H792    1.109   .     S
C786   H791    1.107   .     S
C786   C787    1.528   .     S
C787   H790    1.110   .     S
C787   H788    1.110   .     S
C787   H789    1.110   .     S
O793   Zn809   1.956   .     S
O793   C801    1.263   .     A
O794   Zn810   1.956   .     S
O794   C802    1.263   .     A
O795   C802    1.263   .     A
O795   Zn809   1.956   .     S
O796   Zn810   1.956   .     S
O796   C801    1.263   .     A
H797   C825    1.079   .     S
H798   C826    1.079   .     S
H799   C827    1.079   .     S
H800   C828    1.079   .     S
C801   C829    1.367   .     S
C802   C830    1.367   .     S
O803   C807    1.269   .     A
O803   Zn809   2.017   .     S
O804   C808    1.269   .     A
O804   Zn810   2.017   .     S
O805   Zn809   2.018   .     S
O805   C808    1.269   .     A
O806   Zn810   2.018   .     S
O806   C807    1.269   .     A
C807   C818    1.426   .     S
C808   C817    1.426   .     S
Zn809  N812    1.976   .     S
Zn810  N811    1.976   .     S
N812   N19     1.195   1_556 S
C813   C831    1.531   .     S
C813   C817    1.406   .     A
C813   C821    1.404   .     A
C814   C838    1.531   .     S
C814   C818    1.406   .     A
C814   C822    1.404   .     A
C815   C845    1.531   .     S
C815   C819    1.404   .     A
C815   C817    1.406   .     A
C816   C818    1.406   .     A
C816   C852    1.531   .     S
C816   C820    1.404   .     A
C819   C825    1.403   .     A
C819   C823    1.419   .     A
C820   C824    1.419   .     A
C820   C826    1.403   .     A
C821   C823    1.419   .     A
C821   C827    1.403   .     A
C822   C828    1.402   .     A
C822   C824    1.419   .     A
C823   C890    1.412   .     S
C824   C889    1.412   1_455 S
C825   C894    1.376   .     S
C826   C893    1.376   1_455 S
C827   C892    1.376   .     S
C828   C891    1.376   1_455 S
C829   C1094   1.166   1_545 S
C830   C961    1.166   .     S
C831   H836    1.109   .     S
C831   C832    1.528   .     S
C831   H837    1.107   .     S
C832   H834    1.109   .     S
C832   H833    1.109   .     S
C832   H835    1.110   .     S
C838   H844    1.109   .     S
C838   H843    1.107   .     S
C838   C839    1.528   .     S
C839   H842    1.110   .     S
C839   H840    1.109   .     S
C839   H841    1.109   .     S
C845   H850    1.109   .     S
C845   H851    1.108   .     S
C845   C846    1.528   .     S
C846   H848    1.110   .     S
C846   H847    1.110   .     S
C846   H849    1.111   .     S
C852   H858    1.109   .     S
C852   H857    1.107   .     S
C852   C853    1.528   .     S
C853   H856    1.110   .     S
C853   H854    1.110   .     S
C853   H855    1.110   .     S
O859   Zn875   1.956   .     S
O859   C867    1.263   .     A
O860   Zn876   1.956   .     S
O860   C868    1.263   .     A
O861   C868    1.263   .     A
O861   Zn875   1.956   .     S
O862   Zn876   1.956   .     S
O862   C867    1.263   .     A
H863   C891    1.079   .     S
H864   C892    1.079   .     S
H865   C893    1.079   .     S
H866   C894    1.079   .     S
C867   C895    1.367   .     S
C868   C896    1.367   .     S
O869   C873    1.269   .     A
O869   Zn875   2.017   .     S
O870   C874    1.269   .     A
O870   Zn876   2.017   .     S
O871   Zn875   2.018   .     S
O871   C874    1.269   .     A
O872   Zn876   2.018   .     S
O872   C873    1.269   .     A
C873   C884    1.426   .     S
C874   C883    1.426   .     S
Zn875  N878    1.976   .     S
Zn876  N877    1.976   .     S
N878   N85     1.195   1_556 S
C879   C897    1.531   .     S
C879   C883    1.406   .     A
C879   C887    1.404   .     A
C880   C904    1.531   .     S
C880   C884    1.406   .     A
C880   C888    1.404   .     A
C881   C911    1.531   .     S
C881   C885    1.404   .     A
C881   C883    1.406   .     A
C882   C884    1.406   .     A
C882   C918    1.531   .     S
C882   C886    1.404   .     A
C885   C891    1.403   .     A
C885   C889    1.419   .     A
C886   C890    1.419   .     A
C886   C892    1.403   .     A
C887   C889    1.419   .     A
C887   C893    1.403   .     A
C888   C894    1.402   .     A
C888   C890    1.419   .     A
C889   C824    1.412   1_655 S
C891   C828    1.376   1_655 S
C893   C826    1.376   1_655 S
C895   C1160   1.166   1_545 S
C896   C1027   1.166   .     S
C897   H902    1.109   .     S
C897   C898    1.528   .     S
C897   H903    1.107   .     S
C898   H900    1.109   .     S
C898   H899    1.109   .     S
C898   H901    1.110   .     S
C904   H910    1.109   .     S
C904   H909    1.107   .     S
C904   C905    1.528   .     S
C905   H908    1.110   .     S
C905   H906    1.109   .     S
C905   H907    1.109   .     S
C911   H916    1.109   .     S
C911   H917    1.108   .     S
C911   C912    1.528   .     S
C912   H914    1.110   .     S
C912   H913    1.110   .     S
C912   H915    1.111   .     S
C918   H924    1.109   .     S
C918   H923    1.107   .     S
C918   C919    1.528   .     S
C919   H922    1.110   .     S
C919   H920    1.110   .     S
C919   H921    1.110   .     S
O925   Zn941   1.956   .     S
O925   C933    1.263   .     A
O926   Zn942   1.956   .     S
O926   C934    1.263   .     A
O927   C934    1.263   .     A
O927   Zn941   1.956   .     S
O928   Zn942   1.956   .     S
O928   C933    1.263   .     A
H929   C957    1.079   .     S
H930   C958    1.079   .     S
H931   C959    1.079   .     S
H932   C960    1.079   .     S
C933   C961    1.367   .     S
C934   C962    1.367   .     S
O935   C939    1.269   .     A
O935   Zn941   2.017   .     S
O936   C940    1.269   .     A
O936   Zn942   2.017   .     S
O937   Zn941   2.018   .     S
O937   C940    1.269   .     A
O938   Zn942   2.018   .     S
O938   C939    1.269   .     A
C939   C950    1.426   .     S
C940   C949    1.426   .     S
Zn941  N944    1.976   .     S
Zn942  N943    1.976   .     S
N944   N151    1.195   1_556 S
C945   C963    1.531   .     S
C945   C949    1.406   .     A
C945   C953    1.404   .     A
C946   C970    1.531   .     S
C946   C950    1.406   .     A
C946   C954    1.404   .     A
C947   C977    1.531   .     S
C947   C951    1.404   .     A
C947   C949    1.406   .     A
C948   C950    1.406   .     A
C948   C984    1.531   .     S
C948   C952    1.404   .     A
C951   C957    1.403   .     A
C951   C955    1.419   .     A
C952   C956    1.419   .     A
C952   C958    1.403   .     A
C953   C955    1.419   .     A
C953   C959    1.403   .     A
C954   C960    1.402   .     A
C954   C956    1.419   .     A
C955   C1022   1.412   .     S
C956   C1021   1.412   1_455 S
C957   C1026   1.376   .     S
C958   C1025   1.376   1_455 S
C959   C1024   1.376   .     S
C960   C1023   1.376   1_455 S
C962   C1093   1.166   .     S
C963   H968    1.109   .     S
C963   C964    1.528   .     S
C963   H969    1.107   .     S
C964   H966    1.109   .     S
C964   H965    1.109   .     S
C964   H967    1.110   .     S
C970   H976    1.109   .     S
C970   H975    1.107   .     S
C970   C971    1.528   .     S
C971   H974    1.110   .     S
C971   H972    1.109   .     S
C971   H973    1.109   .     S
C977   H982    1.109   .     S
C977   H983    1.108   .     S
C977   C978    1.528   .     S
C978   H980    1.110   .     S
C978   H979    1.110   .     S
C978   H981    1.111   .     S
C984   H990    1.109   .     S
C984   H989    1.107   .     S
C984   C985    1.528   .     S
C985   H988    1.110   .     S
C985   H986    1.110   .     S
C985   H987    1.110   .     S
O991   Zn1007  1.956   .     S
O991   C999    1.263   .     A
O992   Zn1008  1.956   .     S
O992   C1000   1.263   .     A
O993   C1000   1.263   .     A
O993   Zn1007  1.956   .     S
O994   Zn1008  1.956   .     S
O994   C999    1.263   .     A
H995   C1023   1.079   .     S
H996   C1024   1.079   .     S
H997   C1025   1.079   .     S
H998   C1026   1.079   .     S
C999   C1027   1.367   .     S
C1000  C1028   1.367   .     S
O1001  C1005   1.269   .     A
O1001  Zn1007  2.017   .     S
O1002  C1006   1.269   .     A
O1002  Zn1008  2.017   .     S
O1003  Zn1007  2.018   .     S
O1003  C1006   1.269   .     A
O1004  Zn1008  2.018   .     S
O1004  C1005   1.269   .     A
C1005  C1016   1.426   .     S
C1006  C1015   1.426   .     S
Zn1007 N1010   1.976   .     S
Zn1008 N1009   1.976   .     S
N1010  N217    1.195   1_556 S
C1011  C1029   1.531   .     S
C1011  C1015   1.406   .     A
C1011  C1019   1.404   .     A
C1012  C1036   1.531   .     S
C1012  C1016   1.406   .     A
C1012  C1020   1.404   .     A
C1013  C1043   1.531   .     S
C1013  C1017   1.404   .     A
C1013  C1015   1.406   .     A
C1014  C1016   1.406   .     A
C1014  C1050   1.531   .     S
C1014  C1018   1.404   .     A
C1017  C1023   1.403   .     A
C1017  C1021   1.419   .     A
C1018  C1022   1.419   .     A
C1018  C1024   1.403   .     A
C1019  C1021   1.419   .     A
C1019  C1025   1.403   .     A
C1020  C1026   1.402   .     A
C1020  C1022   1.419   .     A
C1021  C956    1.412   1_655 S
C1023  C960    1.376   1_655 S
C1025  C958    1.376   1_655 S
C1028  C1159   1.166   .     S
C1029  H1034   1.109   .     S
C1029  C1030   1.528   .     S
C1029  H1035   1.107   .     S
C1030  H1032   1.109   .     S
C1030  H1031   1.109   .     S
C1030  H1033   1.110   .     S
C1036  H1042   1.109   .     S
C1036  H1041   1.107   .     S
C1036  C1037   1.528   .     S
C1037  H1040   1.110   .     S
C1037  H1038   1.109   .     S
C1037  H1039   1.109   .     S
C1043  H1048   1.109   .     S
C1043  H1049   1.108   .     S
C1043  C1044   1.528   .     S
C1044  H1046   1.110   .     S
C1044  H1045   1.110   .     S
C1044  H1047   1.111   .     S
C1050  H1056   1.109   .     S
C1050  H1055   1.107   .     S
C1050  C1051   1.528   .     S
C1051  H1054   1.110   .     S
C1051  H1052   1.110   .     S
C1051  H1053   1.110   .     S
O1057  Zn1073  1.956   .     S
O1057  C1065   1.263   .     A
O1058  Zn1074  1.956   .     S
O1058  C1066   1.263   .     A
O1059  C1066   1.263   .     A
O1059  Zn1073  1.956   .     S
O1060  Zn1074  1.956   .     S
O1060  C1065   1.263   .     A
H1061  C1089   1.079   .     S
H1062  C1090   1.079   .     S
H1063  C1091   1.079   .     S
H1064  C1092   1.079   .     S
C1065  C1093   1.367   .     S
C1066  C1094   1.367   .     S
O1067  C1071   1.269   .     A
O1067  Zn1073  2.017   .     S
O1068  C1072   1.269   .     A
O1068  Zn1074  2.017   .     S
O1069  Zn1073  2.018   .     S
O1069  C1072   1.269   .     A
O1070  Zn1074  2.018   .     S
O1070  C1071   1.269   .     A
C1071  C1082   1.426   .     S
C1072  C1081   1.426   .     S
Zn1073 N1076   1.976   .     S
Zn1074 N1075   1.976   .     S
N1076  N283    1.195   1_556 S
C1077  C1095   1.531   .     S
C1077  C1081   1.406   .     A
C1077  C1085   1.404   .     A
C1078  C1102   1.531   .     S
C1078  C1082   1.406   .     A
C1078  C1086   1.404   .     A
C1079  C1109   1.531   .     S
C1079  C1083   1.404   .     A
C1079  C1081   1.406   .     A
C1080  C1082   1.406   .     A
C1080  C1116   1.531   .     S
C1080  C1084   1.404   .     A
C1083  C1089   1.403   .     A
C1083  C1087   1.419   .     A
C1084  C1088   1.419   .     A
C1084  C1090   1.403   .     A
C1085  C1087   1.419   .     A
C1085  C1091   1.403   .     A
C1086  C1092   1.402   .     A
C1086  C1088   1.419   .     A
C1087  C1154   1.412   .     S
C1088  C1153   1.412   1_455 S
C1089  C1158   1.376   .     S
C1090  C1157   1.376   1_455 S
C1091  C1156   1.376   .     S
C1092  C1155   1.376   1_455 S
C1094  C829    1.166   1_565 S
C1095  H1100   1.109   .     S
C1095  C1096   1.528   .     S
C1095  H1101   1.107   .     S
C1096  H1098   1.109   .     S
C1096  H1097   1.109   .     S
C1096  H1099   1.110   .     S
C1102  H1108   1.109   .     S
C1102  H1107   1.107   .     S
C1102  C1103   1.528   .     S
C1103  H1106   1.110   .     S
C1103  H1104   1.109   .     S
C1103  H1105   1.109   .     S
C1109  H1114   1.109   .     S
C1109  H1115   1.108   .     S
C1109  C1110   1.528   .     S
C1110  H1112   1.110   .     S
C1110  H1111   1.110   .     S
C1110  H1113   1.111   .     S
C1116  H1122   1.109   .     S
C1116  H1121   1.107   .     S
C1116  C1117   1.528   .     S
C1117  H1120   1.110   .     S
C1117  H1118   1.110   .     S
C1117  H1119   1.110   .     S
O1123  Zn1139  1.956   .     S
O1123  C1131   1.263   .     A
O1124  Zn1140  1.956   .     S
O1124  C1132   1.263   .     A
O1125  C1132   1.263   .     A
O1125  Zn1139  1.956   .     S
O1126  Zn1140  1.956   .     S
O1126  C1131   1.263   .     A
H1127  C1155   1.079   .     S
H1128  C1156   1.079   .     S
H1129  C1157   1.079   .     S
H1130  C1158   1.079   .     S
C1131  C1159   1.367   .     S
C1132  C1160   1.367   .     S
O1133  C1137   1.269   .     A
O1133  Zn1139  2.017   .     S
O1134  C1138   1.269   .     A
O1134  Zn1140  2.017   .     S
O1135  Zn1139  2.018   .     S
O1135  C1138   1.269   .     A
O1136  Zn1140  2.018   .     S
O1136  C1137   1.269   .     A
C1137  C1148   1.426   .     S
C1138  C1147   1.426   .     S
Zn1139 N1142   1.976   .     S
Zn1140 N1141   1.976   .     S
N1142  N349    1.195   1_556 S
C1143  C1161   1.531   .     S
C1143  C1147   1.406   .     A
C1143  C1151   1.404   .     A
C1144  C1168   1.531   .     S
C1144  C1148   1.406   .     A
C1144  C1152   1.404   .     A
C1145  C1175   1.531   .     S
C1145  C1149   1.404   .     A
C1145  C1147   1.406   .     A
C1146  C1148   1.406   .     A
C1146  C1182   1.531   .     S
C1146  C1150   1.404   .     A
C1149  C1155   1.403   .     A
C1149  C1153   1.419   .     A
C1150  C1154   1.419   .     A
C1150  C1156   1.403   .     A
C1151  C1153   1.419   .     A
C1151  C1157   1.403   .     A
C1152  C1158   1.402   .     A
C1152  C1154   1.419   .     A
C1153  C1088   1.412   1_655 S
C1155  C1092   1.376   1_655 S
C1157  C1090   1.376   1_655 S
C1160  C895    1.166   1_565 S
C1161  H1166   1.109   .     S
C1161  C1162   1.528   .     S
C1161  H1167   1.107   .     S
C1162  H1164   1.109   .     S
C1162  H1163   1.109   .     S
C1162  H1165   1.110   .     S
C1168  H1174   1.109   .     S
C1168  H1173   1.107   .     S
C1168  C1169   1.528   .     S
C1169  H1172   1.110   .     S
C1169  H1170   1.109   .     S
C1169  H1171   1.109   .     S
C1175  H1180   1.109   .     S
C1175  H1181   1.108   .     S
C1175  C1176   1.528   .     S
C1176  H1178   1.110   .     S
C1176  H1177   1.110   .     S
C1176  H1179   1.111   .     S
C1182  H1188   1.109   .     S
C1182  H1187   1.107   .     S
C1182  C1183   1.528   .     S
C1183  H1186   1.110   .     S
C1183  H1184   1.110   .     S
C1183  H1185   1.110   .     S
