data_str_m3_o1_o2_pcu_sym.102
_audit_creation_date              2020-01-03
_audit_creation_method            'Materials Studio'
_symmetry_space_group_name_H-M    'P1'
_symmetry_Int_Tables_number       1
_symmetry_cell_setting            triclinic
loop_
_symmetry_equiv_pos_as_xyz
  x,y,z
_cell_length_a                    32.1613
_cell_length_b                    29.5196
_cell_length_c                    30.0176
_cell_angle_alpha                 90.0040
_cell_angle_beta                  90.2227
_cell_angle_gamma                 90.0038
loop_
_atom_site_label
_atom_site_type_symbol
_atom_site_fract_x
_atom_site_fract_y
_atom_site_fract_z
_atom_site_U_iso_or_equiv
_atom_site_adp_type
_atom_site_occupancy
C1     C     0.08662   0.16667   0.24996   0.00000  Uiso   1.00
C2     C     0.24671   0.16667   0.25004   0.00000  Uiso   1.00
C3     C     0.16663   0.16667   0.16391   0.00000  Uiso   1.00
C4     C     0.16672   0.16667   0.33609   0.00000  Uiso   1.00
C5     C     0.19271   0.02399   0.27759   0.00000  Uiso   1.00
C6     C     0.14063   0.30934   0.22241   0.00000  Uiso   1.00
C7     C     0.14062   0.02398   0.22241   0.00000  Uiso   1.00
C8     C     0.19271   0.30935   0.27759   0.00000  Uiso   1.00
C9     C     0.02132   0.12601   0.25727   0.00000  Uiso   1.00
C10    C     0.31201   0.20732   0.24273   0.00000  Uiso   1.00
C11    C     0.31206   0.12602   0.25734   0.00000  Uiso   1.00
C12    C     0.02127   0.20732   0.24266   0.00000  Uiso   1.00
C13    C     0.18127   0.20472   0.04714   0.00000  Uiso   1.00
C14    C     0.18135   0.12861   0.45300   0.00000  Uiso   1.00
C15    C     0.15230   0.20474   0.45290   0.00000  Uiso   1.00
C16    C     0.15221   0.12859   0.04697   0.00000  Uiso   1.00
C17    C     0.18097   0.20484   0.09312   0.00000  Uiso   1.00
C18    C     0.18110   0.12850   0.40701   0.00000  Uiso   1.00
C19    C     0.15252   0.20486   0.40691   0.00000  Uiso   1.00
C20    C     0.15237   0.12849   0.09296   0.00000  Uiso   1.00
C21    C     0.16665   0.16667   0.11602   0.00000  Uiso   1.00
C22    C     0.16678   0.16668   0.38398   0.00000  Uiso   1.00
C23    C     0.16678   0.16665   0.02405   0.00000  Uiso   1.00
C24    C     0.16682   0.16667   0.47595   0.00000  Uiso   1.00
C25    C     0.29086   0.16667   0.25005   0.00000  Uiso   1.00
C26    C     0.04247   0.16666   0.24995   0.00000  Uiso   1.00
H27    H     0.19314   0.23406   0.02961   0.00000  Uiso   1.00
H28    H     0.19319   0.09927   0.47063   0.00000  Uiso   1.00
H29    H     0.14046   0.23407   0.47045   0.00000  Uiso   1.00
H30    H     0.14039   0.09926   0.02931   0.00000  Uiso   1.00
H31    H     0.19242   0.23440   0.11070   0.00000  Uiso   1.00
H32    H     0.19257   0.09895   0.38952   0.00000  Uiso   1.00
H33    H     0.14104   0.23442   0.38935   0.00000  Uiso   1.00
H34    H     0.14087   0.09894   0.11043   0.00000  Uiso   1.00
H35    H     0.03754   0.09439   0.26318   0.00000  Uiso   1.00
H36    H     0.29579   0.23894   0.23681   0.00000  Uiso   1.00
H37    H     0.29589   0.09440   0.26330   0.00000  Uiso   1.00
H38    H     0.03745   0.23893   0.23671   0.00000  Uiso   1.00
N39    N     0.16667   0.28573   0.25000   0.00000  Uiso   1.00
N40    N     0.16667   0.04760   0.25000   0.00000  Uiso   1.00
O41    O     0.10559   0.20487   0.24999   0.00000  Uiso   1.00
O42    O     0.22774   0.12846   0.25000   0.00000  Uiso   1.00
O43    O     0.22774   0.20487   0.25000   0.00000  Uiso   1.00
O44    O     0.10559   0.12846   0.24999   0.00000  Uiso   1.00
O45    O     0.16666   0.20489   0.18453   0.00000  Uiso   1.00
O46    O     0.16667   0.12845   0.31547   0.00000  Uiso   1.00
O47    O     0.16667   0.20489   0.31547   0.00000  Uiso   1.00
O48    O     0.16666   0.12845   0.18453   0.00000  Uiso   1.00
Zn49   Zn    0.16667   0.21771   0.25000   0.00000  Uiso   1.00
Zn50   Zn    0.16667   0.11563   0.25000   0.00000  Uiso   1.00
F51    F     0.21879   0.04671   0.30523   0.00000  Uiso   1.00
F52    F     0.11456   0.28662   0.19475   0.00000  Uiso   1.00
F53    F     0.11452   0.04670   0.19478   0.00000  Uiso   1.00
F54    F     0.21879   0.28664   0.30523   0.00000  Uiso   1.00
C55    C     0.41995   0.16667   0.24996   0.00000  Uiso   1.00
C56    C     0.58005   0.16667   0.25004   0.00000  Uiso   1.00
C57    C     0.49997   0.16667   0.16391   0.00000  Uiso   1.00
C58    C     0.50005   0.16667   0.33609   0.00000  Uiso   1.00
C59    C     0.52604   0.02399   0.27759   0.00000  Uiso   1.00
C60    C     0.47396   0.30934   0.22241   0.00000  Uiso   1.00
C61    C     0.47396   0.02398   0.22241   0.00000  Uiso   1.00
C62    C     0.52604   0.30935   0.27759   0.00000  Uiso   1.00
C63    C     0.35466   0.12601   0.25727   0.00000  Uiso   1.00
C64    C     0.64534   0.20732   0.24273   0.00000  Uiso   1.00
C65    C     0.64540   0.12602   0.25734   0.00000  Uiso   1.00
C66    C     0.35460   0.20732   0.24266   0.00000  Uiso   1.00
C67    C     0.51461   0.20472   0.04714   0.00000  Uiso   1.00
C68    C     0.51468   0.12861   0.45300   0.00000  Uiso   1.00
C69    C     0.48563   0.20474   0.45290   0.00000  Uiso   1.00
C70    C     0.48554   0.12859   0.04697   0.00000  Uiso   1.00
C71    C     0.51430   0.20484   0.09312   0.00000  Uiso   1.00
C72    C     0.51444   0.12850   0.40701   0.00000  Uiso   1.00
C73    C     0.48585   0.20486   0.40691   0.00000  Uiso   1.00
C74    C     0.48570   0.12849   0.09296   0.00000  Uiso   1.00
C75    C     0.49998   0.16667   0.11602   0.00000  Uiso   1.00
C76    C     0.50012   0.16668   0.38398   0.00000  Uiso   1.00
C77    C     0.50011   0.16665   0.02405   0.00000  Uiso   1.00
C78    C     0.50015   0.16667   0.47595   0.00000  Uiso   1.00
C79    C     0.62419   0.16667   0.25005   0.00000  Uiso   1.00
C80    C     0.37581   0.16666   0.24995   0.00000  Uiso   1.00
H81    H     0.52647   0.23406   0.02961   0.00000  Uiso   1.00
H82    H     0.52652   0.09927   0.47063   0.00000  Uiso   1.00
H83    H     0.47379   0.23407   0.47045   0.00000  Uiso   1.00
H84    H     0.47372   0.09926   0.02931   0.00000  Uiso   1.00
H85    H     0.52575   0.23440   0.11070   0.00000  Uiso   1.00
H86    H     0.52591   0.09895   0.38952   0.00000  Uiso   1.00
H87    H     0.47437   0.23442   0.38935   0.00000  Uiso   1.00
H88    H     0.47420   0.09894   0.11043   0.00000  Uiso   1.00
H89    H     0.37088   0.09439   0.26318   0.00000  Uiso   1.00
H90    H     0.62912   0.23894   0.23681   0.00000  Uiso   1.00
H91    H     0.62922   0.09440   0.26330   0.00000  Uiso   1.00
H92    H     0.37078   0.23893   0.23671   0.00000  Uiso   1.00
N93    N     0.50000   0.28573   0.25000   0.00000  Uiso   1.00
N94    N     0.50000   0.04760   0.25000   0.00000  Uiso   1.00
O95    O     0.43892   0.20487   0.24999   0.00000  Uiso   1.00
O96    O     0.56108   0.12846   0.25000   0.00000  Uiso   1.00
O97    O     0.56108   0.20487   0.25000   0.00000  Uiso   1.00
O98    O     0.43892   0.12846   0.24999   0.00000  Uiso   1.00
O99    O     0.50000   0.20489   0.18453   0.00000  Uiso   1.00
O100   O     0.50000   0.12845   0.31547   0.00000  Uiso   1.00
O101   O     0.50000   0.20489   0.31547   0.00000  Uiso   1.00
O102   O     0.50000   0.12845   0.18453   0.00000  Uiso   1.00
Zn103  Zn    0.50000   0.21771   0.25000   0.00000  Uiso   1.00
Zn104  Zn    0.50000   0.11563   0.25000   0.00000  Uiso   1.00
F105   F     0.55213   0.04671   0.30523   0.00000  Uiso   1.00
F106   F     0.44789   0.28662   0.19475   0.00000  Uiso   1.00
F107   F     0.44786   0.04670   0.19478   0.00000  Uiso   1.00
F108   F     0.55213   0.28664   0.30523   0.00000  Uiso   1.00
C109   C     0.75329   0.16667   0.24996   0.00000  Uiso   1.00
C110   C     0.91338   0.16667   0.25004   0.00000  Uiso   1.00
C111   C     0.83330   0.16667   0.16391   0.00000  Uiso   1.00
C112   C     0.83338   0.16667   0.33609   0.00000  Uiso   1.00
C113   C     0.85937   0.02399   0.27759   0.00000  Uiso   1.00
C114   C     0.80730   0.30934   0.22241   0.00000  Uiso   1.00
C115   C     0.80729   0.02398   0.22241   0.00000  Uiso   1.00
C116   C     0.85937   0.30935   0.27759   0.00000  Uiso   1.00
C117   C     0.68799   0.12601   0.25727   0.00000  Uiso   1.00
C118   C     0.97868   0.20732   0.24273   0.00000  Uiso   1.00
C119   C     0.97873   0.12602   0.25734   0.00000  Uiso   1.00
C120   C     0.68794   0.20732   0.24266   0.00000  Uiso   1.00
C121   C     0.84794   0.20472   0.04714   0.00000  Uiso   1.00
C122   C     0.84802   0.12861   0.45300   0.00000  Uiso   1.00
C123   C     0.81897   0.20474   0.45290   0.00000  Uiso   1.00
C124   C     0.81888   0.12859   0.04697   0.00000  Uiso   1.00
C125   C     0.84764   0.20484   0.09312   0.00000  Uiso   1.00
C126   C     0.84777   0.12850   0.40701   0.00000  Uiso   1.00
C127   C     0.81918   0.20486   0.40691   0.00000  Uiso   1.00
C128   C     0.81904   0.12849   0.09296   0.00000  Uiso   1.00
C129   C     0.83331   0.16667   0.11602   0.00000  Uiso   1.00
C130   C     0.83345   0.16668   0.38398   0.00000  Uiso   1.00
C131   C     0.83345   0.16665   0.02405   0.00000  Uiso   1.00
C132   C     0.83349   0.16667   0.47595   0.00000  Uiso   1.00
C133   C     0.95753   0.16667   0.25005   0.00000  Uiso   1.00
C134   C     0.70914   0.16666   0.24995   0.00000  Uiso   1.00
H135   H     0.85981   0.23406   0.02961   0.00000  Uiso   1.00
H136   H     0.85986   0.09927   0.47063   0.00000  Uiso   1.00
H137   H     0.80712   0.23407   0.47045   0.00000  Uiso   1.00
H138   H     0.80705   0.09926   0.02931   0.00000  Uiso   1.00
H139   H     0.85909   0.23440   0.11070   0.00000  Uiso   1.00
H140   H     0.85924   0.09895   0.38952   0.00000  Uiso   1.00
H141   H     0.80771   0.23442   0.38935   0.00000  Uiso   1.00
H142   H     0.80753   0.09894   0.11043   0.00000  Uiso   1.00
H143   H     0.70421   0.09439   0.26318   0.00000  Uiso   1.00
H144   H     0.96246   0.23894   0.23681   0.00000  Uiso   1.00
H145   H     0.96255   0.09440   0.26330   0.00000  Uiso   1.00
H146   H     0.70411   0.23893   0.23671   0.00000  Uiso   1.00
N147   N     0.83333   0.28573   0.25000   0.00000  Uiso   1.00
N148   N     0.83333   0.04760   0.25000   0.00000  Uiso   1.00
O149   O     0.77226   0.20487   0.24999   0.00000  Uiso   1.00
O150   O     0.89441   0.12846   0.25000   0.00000  Uiso   1.00
O151   O     0.89441   0.20487   0.25000   0.00000  Uiso   1.00
O152   O     0.77226   0.12846   0.24999   0.00000  Uiso   1.00
O153   O     0.83333   0.20489   0.18453   0.00000  Uiso   1.00
O154   O     0.83334   0.12845   0.31547   0.00000  Uiso   1.00
O155   O     0.83334   0.20489   0.31547   0.00000  Uiso   1.00
O156   O     0.83333   0.12845   0.18453   0.00000  Uiso   1.00
Zn157  Zn    0.83333   0.21771   0.25000   0.00000  Uiso   1.00
Zn158  Zn    0.83333   0.11563   0.25000   0.00000  Uiso   1.00
F159   F     0.88546   0.04671   0.30523   0.00000  Uiso   1.00
F160   F     0.78122   0.28662   0.19475   0.00000  Uiso   1.00
F161   F     0.78119   0.04670   0.19478   0.00000  Uiso   1.00
F162   F     0.88546   0.28664   0.30523   0.00000  Uiso   1.00
C163   C     0.08662   0.50000   0.24996   0.00000  Uiso   1.00
C164   C     0.24671   0.50000   0.25004   0.00000  Uiso   1.00
C165   C     0.16663   0.50000   0.16391   0.00000  Uiso   1.00
C166   C     0.16672   0.50000   0.33609   0.00000  Uiso   1.00
C167   C     0.19271   0.35733   0.27759   0.00000  Uiso   1.00
C168   C     0.14063   0.64268   0.22241   0.00000  Uiso   1.00
C169   C     0.14062   0.35732   0.22241   0.00000  Uiso   1.00
C170   C     0.19271   0.64268   0.27759   0.00000  Uiso   1.00
C171   C     0.02132   0.45934   0.25727   0.00000  Uiso   1.00
C172   C     0.31201   0.54066   0.24273   0.00000  Uiso   1.00
C173   C     0.31206   0.45935   0.25734   0.00000  Uiso   1.00
C174   C     0.02127   0.54065   0.24266   0.00000  Uiso   1.00
C175   C     0.18127   0.53806   0.04714   0.00000  Uiso   1.00
C176   C     0.18135   0.46194   0.45300   0.00000  Uiso   1.00
C177   C     0.15230   0.53807   0.45290   0.00000  Uiso   1.00
C178   C     0.15221   0.46193   0.04697   0.00000  Uiso   1.00
C179   C     0.18097   0.53818   0.09312   0.00000  Uiso   1.00
C180   C     0.18110   0.46184   0.40701   0.00000  Uiso   1.00
C181   C     0.15252   0.53819   0.40691   0.00000  Uiso   1.00
C182   C     0.15237   0.46182   0.09296   0.00000  Uiso   1.00
C183   C     0.16665   0.50000   0.11602   0.00000  Uiso   1.00
C184   C     0.16678   0.50001   0.38398   0.00000  Uiso   1.00
C185   C     0.16678   0.49999   0.02405   0.00000  Uiso   1.00
C186   C     0.16682   0.50000   0.47595   0.00000  Uiso   1.00
C187   C     0.29086   0.50001   0.25005   0.00000  Uiso   1.00
C188   C     0.04247   0.49999   0.24995   0.00000  Uiso   1.00
H189   H     0.19314   0.56739   0.02961   0.00000  Uiso   1.00
H190   H     0.19319   0.43261   0.47063   0.00000  Uiso   1.00
H191   H     0.14046   0.56741   0.47045   0.00000  Uiso   1.00
H192   H     0.14039   0.43259   0.02931   0.00000  Uiso   1.00
H193   H     0.19242   0.56774   0.11070   0.00000  Uiso   1.00
H194   H     0.19257   0.43228   0.38952   0.00000  Uiso   1.00
H195   H     0.14104   0.56775   0.38935   0.00000  Uiso   1.00
H196   H     0.14087   0.43227   0.11043   0.00000  Uiso   1.00
H197   H     0.03754   0.42772   0.26318   0.00000  Uiso   1.00
H198   H     0.29579   0.57228   0.23681   0.00000  Uiso   1.00
H199   H     0.29589   0.42774   0.26330   0.00000  Uiso   1.00
H200   H     0.03745   0.57226   0.23671   0.00000  Uiso   1.00
N201   N     0.16667   0.61907   0.25000   0.00000  Uiso   1.00
N202   N     0.16667   0.38093   0.25000   0.00000  Uiso   1.00
O203   O     0.10559   0.53821   0.24999   0.00000  Uiso   1.00
O204   O     0.22774   0.46179   0.25000   0.00000  Uiso   1.00
O205   O     0.22774   0.53821   0.25000   0.00000  Uiso   1.00
O206   O     0.10559   0.46179   0.24999   0.00000  Uiso   1.00
O207   O     0.16666   0.53822   0.18453   0.00000  Uiso   1.00
O208   O     0.16667   0.46178   0.31547   0.00000  Uiso   1.00
O209   O     0.16667   0.53822   0.31547   0.00000  Uiso   1.00
O210   O     0.16666   0.46178   0.18453   0.00000  Uiso   1.00
Zn211  Zn    0.16667   0.55104   0.25000   0.00000  Uiso   1.00
Zn212  Zn    0.16667   0.44896   0.25000   0.00000  Uiso   1.00
F213   F     0.21879   0.38004   0.30523   0.00000  Uiso   1.00
F214   F     0.11456   0.61996   0.19475   0.00000  Uiso   1.00
F215   F     0.11452   0.38003   0.19478   0.00000  Uiso   1.00
F216   F     0.21879   0.61997   0.30523   0.00000  Uiso   1.00
C217   C     0.41995   0.50000   0.24996   0.00000  Uiso   1.00
C218   C     0.58005   0.50000   0.25004   0.00000  Uiso   1.00
C219   C     0.49997   0.50000   0.16391   0.00000  Uiso   1.00
C220   C     0.50005   0.50000   0.33609   0.00000  Uiso   1.00
C221   C     0.52604   0.35733   0.27759   0.00000  Uiso   1.00
C222   C     0.47396   0.64268   0.22241   0.00000  Uiso   1.00
C223   C     0.47396   0.35732   0.22241   0.00000  Uiso   1.00
C224   C     0.52604   0.64268   0.27759   0.00000  Uiso   1.00
C225   C     0.35466   0.45934   0.25727   0.00000  Uiso   1.00
C226   C     0.64534   0.54066   0.24273   0.00000  Uiso   1.00
C227   C     0.64540   0.45935   0.25734   0.00000  Uiso   1.00
C228   C     0.35460   0.54065   0.24266   0.00000  Uiso   1.00
C229   C     0.51461   0.53806   0.04714   0.00000  Uiso   1.00
C230   C     0.51468   0.46194   0.45300   0.00000  Uiso   1.00
C231   C     0.48563   0.53807   0.45290   0.00000  Uiso   1.00
C232   C     0.48554   0.46193   0.04697   0.00000  Uiso   1.00
C233   C     0.51430   0.53818   0.09312   0.00000  Uiso   1.00
C234   C     0.51444   0.46184   0.40701   0.00000  Uiso   1.00
C235   C     0.48585   0.53819   0.40691   0.00000  Uiso   1.00
C236   C     0.48570   0.46182   0.09296   0.00000  Uiso   1.00
C237   C     0.49998   0.50000   0.11602   0.00000  Uiso   1.00
C238   C     0.50012   0.50001   0.38398   0.00000  Uiso   1.00
C239   C     0.50011   0.49999   0.02405   0.00000  Uiso   1.00
C240   C     0.50015   0.50000   0.47595   0.00000  Uiso   1.00
C241   C     0.62419   0.50001   0.25005   0.00000  Uiso   1.00
C242   C     0.37581   0.49999   0.24995   0.00000  Uiso   1.00
H243   H     0.52647   0.56739   0.02961   0.00000  Uiso   1.00
H244   H     0.52652   0.43261   0.47063   0.00000  Uiso   1.00
H245   H     0.47379   0.56741   0.47045   0.00000  Uiso   1.00
H246   H     0.47372   0.43259   0.02931   0.00000  Uiso   1.00
H247   H     0.52575   0.56774   0.11070   0.00000  Uiso   1.00
H248   H     0.52591   0.43228   0.38952   0.00000  Uiso   1.00
H249   H     0.47437   0.56775   0.38935   0.00000  Uiso   1.00
H250   H     0.47420   0.43227   0.11043   0.00000  Uiso   1.00
H251   H     0.37088   0.42772   0.26318   0.00000  Uiso   1.00
H252   H     0.62912   0.57228   0.23681   0.00000  Uiso   1.00
H253   H     0.62922   0.42774   0.26330   0.00000  Uiso   1.00
H254   H     0.37078   0.57226   0.23671   0.00000  Uiso   1.00
N255   N     0.50000   0.61907   0.25000   0.00000  Uiso   1.00
N256   N     0.50000   0.38093   0.25000   0.00000  Uiso   1.00
O257   O     0.43892   0.53821   0.24999   0.00000  Uiso   1.00
O258   O     0.56108   0.46179   0.25000   0.00000  Uiso   1.00
O259   O     0.56108   0.53821   0.25000   0.00000  Uiso   1.00
O260   O     0.43892   0.46179   0.24999   0.00000  Uiso   1.00
O261   O     0.50000   0.53822   0.18453   0.00000  Uiso   1.00
O262   O     0.50000   0.46178   0.31547   0.00000  Uiso   1.00
O263   O     0.50000   0.53822   0.31547   0.00000  Uiso   1.00
O264   O     0.50000   0.46178   0.18453   0.00000  Uiso   1.00
Zn265  Zn    0.50000   0.55104   0.25000   0.00000  Uiso   1.00
Zn266  Zn    0.50000   0.44896   0.25000   0.00000  Uiso   1.00
F267   F     0.55213   0.38004   0.30523   0.00000  Uiso   1.00
F268   F     0.44789   0.61996   0.19475   0.00000  Uiso   1.00
F269   F     0.44786   0.38003   0.19478   0.00000  Uiso   1.00
F270   F     0.55213   0.61997   0.30523   0.00000  Uiso   1.00
C271   C     0.75329   0.50000   0.24996   0.00000  Uiso   1.00
C272   C     0.91338   0.50000   0.25004   0.00000  Uiso   1.00
C273   C     0.83330   0.50000   0.16391   0.00000  Uiso   1.00
C274   C     0.83338   0.50000   0.33609   0.00000  Uiso   1.00
C275   C     0.85937   0.35733   0.27759   0.00000  Uiso   1.00
C276   C     0.80730   0.64268   0.22241   0.00000  Uiso   1.00
C277   C     0.80729   0.35732   0.22241   0.00000  Uiso   1.00
C278   C     0.85937   0.64268   0.27759   0.00000  Uiso   1.00
C279   C     0.68799   0.45934   0.25727   0.00000  Uiso   1.00
C280   C     0.97868   0.54066   0.24273   0.00000  Uiso   1.00
C281   C     0.97873   0.45935   0.25734   0.00000  Uiso   1.00
C282   C     0.68794   0.54065   0.24266   0.00000  Uiso   1.00
C283   C     0.84794   0.53806   0.04714   0.00000  Uiso   1.00
C284   C     0.84802   0.46194   0.45300   0.00000  Uiso   1.00
C285   C     0.81897   0.53807   0.45290   0.00000  Uiso   1.00
C286   C     0.81888   0.46193   0.04697   0.00000  Uiso   1.00
C287   C     0.84764   0.53818   0.09312   0.00000  Uiso   1.00
C288   C     0.84777   0.46184   0.40701   0.00000  Uiso   1.00
C289   C     0.81918   0.53819   0.40691   0.00000  Uiso   1.00
C290   C     0.81904   0.46182   0.09296   0.00000  Uiso   1.00
C291   C     0.83331   0.50000   0.11602   0.00000  Uiso   1.00
C292   C     0.83345   0.50001   0.38398   0.00000  Uiso   1.00
C293   C     0.83345   0.49999   0.02405   0.00000  Uiso   1.00
C294   C     0.83349   0.50000   0.47595   0.00000  Uiso   1.00
C295   C     0.95753   0.50001   0.25005   0.00000  Uiso   1.00
C296   C     0.70914   0.49999   0.24995   0.00000  Uiso   1.00
H297   H     0.85981   0.56739   0.02961   0.00000  Uiso   1.00
H298   H     0.85986   0.43261   0.47063   0.00000  Uiso   1.00
H299   H     0.80712   0.56741   0.47045   0.00000  Uiso   1.00
H300   H     0.80705   0.43259   0.02931   0.00000  Uiso   1.00
H301   H     0.85909   0.56774   0.11070   0.00000  Uiso   1.00
H302   H     0.85924   0.43228   0.38952   0.00000  Uiso   1.00
H303   H     0.80771   0.56775   0.38935   0.00000  Uiso   1.00
H304   H     0.80753   0.43227   0.11043   0.00000  Uiso   1.00
H305   H     0.70421   0.42772   0.26318   0.00000  Uiso   1.00
H306   H     0.96246   0.57228   0.23681   0.00000  Uiso   1.00
H307   H     0.96255   0.42774   0.26330   0.00000  Uiso   1.00
H308   H     0.70411   0.57226   0.23671   0.00000  Uiso   1.00
N309   N     0.83333   0.61907   0.25000   0.00000  Uiso   1.00
N310   N     0.83333   0.38093   0.25000   0.00000  Uiso   1.00
O311   O     0.77226   0.53821   0.24999   0.00000  Uiso   1.00
O312   O     0.89441   0.46179   0.25000   0.00000  Uiso   1.00
O313   O     0.89441   0.53821   0.25000   0.00000  Uiso   1.00
O314   O     0.77226   0.46179   0.24999   0.00000  Uiso   1.00
O315   O     0.83333   0.53822   0.18453   0.00000  Uiso   1.00
O316   O     0.83334   0.46178   0.31547   0.00000  Uiso   1.00
O317   O     0.83334   0.53822   0.31547   0.00000  Uiso   1.00
O318   O     0.83333   0.46178   0.18453   0.00000  Uiso   1.00
Zn319  Zn    0.83333   0.55104   0.25000   0.00000  Uiso   1.00
Zn320  Zn    0.83333   0.44896   0.25000   0.00000  Uiso   1.00
F321   F     0.88546   0.38004   0.30523   0.00000  Uiso   1.00
F322   F     0.78122   0.61996   0.19475   0.00000  Uiso   1.00
F323   F     0.78119   0.38003   0.19478   0.00000  Uiso   1.00
F324   F     0.88546   0.61997   0.30523   0.00000  Uiso   1.00
C325   C     0.08662   0.83333   0.24996   0.00000  Uiso   1.00
C326   C     0.24671   0.83334   0.25004   0.00000  Uiso   1.00
C327   C     0.16663   0.83333   0.16391   0.00000  Uiso   1.00
C328   C     0.16672   0.83333   0.33609   0.00000  Uiso   1.00
C329   C     0.19271   0.69066   0.27759   0.00000  Uiso   1.00
C330   C     0.14063   0.97601   0.22241   0.00000  Uiso   1.00
C331   C     0.14062   0.69065   0.22241   0.00000  Uiso   1.00
C332   C     0.19271   0.97602   0.27759   0.00000  Uiso   1.00
C333   C     0.02132   0.79268   0.25727   0.00000  Uiso   1.00
C334   C     0.31201   0.87399   0.24273   0.00000  Uiso   1.00
C335   C     0.31206   0.79268   0.25734   0.00000  Uiso   1.00
C336   C     0.02127   0.87398   0.24266   0.00000  Uiso   1.00
C337   C     0.18127   0.87139   0.04714   0.00000  Uiso   1.00
C338   C     0.18135   0.79528   0.45300   0.00000  Uiso   1.00
C339   C     0.15230   0.87141   0.45290   0.00000  Uiso   1.00
C340   C     0.15221   0.79526   0.04697   0.00000  Uiso   1.00
C341   C     0.18097   0.87151   0.09312   0.00000  Uiso   1.00
C342   C     0.18110   0.79517   0.40701   0.00000  Uiso   1.00
C343   C     0.15252   0.87152   0.40691   0.00000  Uiso   1.00
C344   C     0.15237   0.79516   0.09296   0.00000  Uiso   1.00
C345   C     0.16665   0.83334   0.11602   0.00000  Uiso   1.00
C346   C     0.16678   0.83334   0.38398   0.00000  Uiso   1.00
C347   C     0.16678   0.83332   0.02405   0.00000  Uiso   1.00
C348   C     0.16682   0.83333   0.47595   0.00000  Uiso   1.00
C349   C     0.29086   0.83334   0.25005   0.00000  Uiso   1.00
C350   C     0.04247   0.83333   0.24995   0.00000  Uiso   1.00
H351   H     0.19314   0.90072   0.02961   0.00000  Uiso   1.00
H352   H     0.19319   0.76594   0.47063   0.00000  Uiso   1.00
H353   H     0.14046   0.90074   0.47045   0.00000  Uiso   1.00
H354   H     0.14039   0.76592   0.02931   0.00000  Uiso   1.00
H355   H     0.19242   0.90107   0.11070   0.00000  Uiso   1.00
H356   H     0.19257   0.76562   0.38952   0.00000  Uiso   1.00
H357   H     0.14104   0.90108   0.38935   0.00000  Uiso   1.00
H358   H     0.14087   0.76561   0.11043   0.00000  Uiso   1.00
H359   H     0.03754   0.76105   0.26318   0.00000  Uiso   1.00
H360   H     0.29579   0.90561   0.23681   0.00000  Uiso   1.00
H361   H     0.29589   0.76107   0.26330   0.00000  Uiso   1.00
H362   H     0.03745   0.90560   0.23671   0.00000  Uiso   1.00
N363   N     0.16667   0.95240   0.25000   0.00000  Uiso   1.00
N364   N     0.16667   0.71427   0.25000   0.00000  Uiso   1.00
O365   O     0.10559   0.87154   0.24999   0.00000  Uiso   1.00
O366   O     0.22774   0.79513   0.25000   0.00000  Uiso   1.00
O367   O     0.22774   0.87154   0.25000   0.00000  Uiso   1.00
O368   O     0.10559   0.79513   0.24999   0.00000  Uiso   1.00
O369   O     0.16666   0.87155   0.18453   0.00000  Uiso   1.00
O370   O     0.16667   0.79511   0.31547   0.00000  Uiso   1.00
O371   O     0.16667   0.87155   0.31547   0.00000  Uiso   1.00
O372   O     0.16666   0.79511   0.18453   0.00000  Uiso   1.00
Zn373  Zn    0.16667   0.88437   0.25000   0.00000  Uiso   1.00
Zn374  Zn    0.16667   0.78229   0.25000   0.00000  Uiso   1.00
F375   F     0.21879   0.71338   0.30523   0.00000  Uiso   1.00
F376   F     0.11456   0.95329   0.19475   0.00000  Uiso   1.00
F377   F     0.11452   0.71336   0.19478   0.00000  Uiso   1.00
F378   F     0.21879   0.95330   0.30523   0.00000  Uiso   1.00
C379   C     0.41995   0.83333   0.24996   0.00000  Uiso   1.00
C380   C     0.58005   0.83334   0.25004   0.00000  Uiso   1.00
C381   C     0.49997   0.83333   0.16391   0.00000  Uiso   1.00
C382   C     0.50005   0.83333   0.33609   0.00000  Uiso   1.00
C383   C     0.52604   0.69066   0.27759   0.00000  Uiso   1.00
C384   C     0.47396   0.97601   0.22241   0.00000  Uiso   1.00
C385   C     0.47396   0.69065   0.22241   0.00000  Uiso   1.00
C386   C     0.52604   0.97602   0.27759   0.00000  Uiso   1.00
C387   C     0.35466   0.79268   0.25727   0.00000  Uiso   1.00
C388   C     0.64534   0.87399   0.24273   0.00000  Uiso   1.00
C389   C     0.64540   0.79268   0.25734   0.00000  Uiso   1.00
C390   C     0.35460   0.87398   0.24266   0.00000  Uiso   1.00
C391   C     0.51461   0.87139   0.04714   0.00000  Uiso   1.00
C392   C     0.51468   0.79528   0.45300   0.00000  Uiso   1.00
C393   C     0.48563   0.87141   0.45290   0.00000  Uiso   1.00
C394   C     0.48554   0.79526   0.04697   0.00000  Uiso   1.00
C395   C     0.51430   0.87151   0.09312   0.00000  Uiso   1.00
C396   C     0.51444   0.79517   0.40701   0.00000  Uiso   1.00
C397   C     0.48585   0.87152   0.40691   0.00000  Uiso   1.00
C398   C     0.48570   0.79516   0.09296   0.00000  Uiso   1.00
C399   C     0.49998   0.83334   0.11602   0.00000  Uiso   1.00
C400   C     0.50012   0.83334   0.38398   0.00000  Uiso   1.00
C401   C     0.50011   0.83332   0.02405   0.00000  Uiso   1.00
C402   C     0.50015   0.83333   0.47595   0.00000  Uiso   1.00
C403   C     0.62419   0.83334   0.25005   0.00000  Uiso   1.00
C404   C     0.37581   0.83333   0.24995   0.00000  Uiso   1.00
H405   H     0.52647   0.90072   0.02961   0.00000  Uiso   1.00
H406   H     0.52652   0.76594   0.47063   0.00000  Uiso   1.00
H407   H     0.47379   0.90074   0.47045   0.00000  Uiso   1.00
H408   H     0.47372   0.76592   0.02931   0.00000  Uiso   1.00
H409   H     0.52575   0.90107   0.11070   0.00000  Uiso   1.00
H410   H     0.52591   0.76562   0.38952   0.00000  Uiso   1.00
H411   H     0.47437   0.90108   0.38935   0.00000  Uiso   1.00
H412   H     0.47420   0.76561   0.11043   0.00000  Uiso   1.00
H413   H     0.37088   0.76105   0.26318   0.00000  Uiso   1.00
H414   H     0.62912   0.90561   0.23681   0.00000  Uiso   1.00
H415   H     0.62922   0.76107   0.26330   0.00000  Uiso   1.00
H416   H     0.37078   0.90560   0.23671   0.00000  Uiso   1.00
N417   N     0.50000   0.95240   0.25000   0.00000  Uiso   1.00
N418   N     0.50000   0.71427   0.25000   0.00000  Uiso   1.00
O419   O     0.43892   0.87154   0.24999   0.00000  Uiso   1.00
O420   O     0.56108   0.79513   0.25000   0.00000  Uiso   1.00
O421   O     0.56108   0.87154   0.25000   0.00000  Uiso   1.00
O422   O     0.43892   0.79513   0.24999   0.00000  Uiso   1.00
O423   O     0.50000   0.87155   0.18453   0.00000  Uiso   1.00
O424   O     0.50000   0.79511   0.31547   0.00000  Uiso   1.00
O425   O     0.50000   0.87155   0.31547   0.00000  Uiso   1.00
O426   O     0.50000   0.79511   0.18453   0.00000  Uiso   1.00
Zn427  Zn    0.50000   0.88437   0.25000   0.00000  Uiso   1.00
Zn428  Zn    0.50000   0.78229   0.25000   0.00000  Uiso   1.00
F429   F     0.55213   0.71338   0.30523   0.00000  Uiso   1.00
F430   F     0.44789   0.95329   0.19475   0.00000  Uiso   1.00
F431   F     0.44786   0.71336   0.19478   0.00000  Uiso   1.00
F432   F     0.55213   0.95330   0.30523   0.00000  Uiso   1.00
C433   C     0.75329   0.83333   0.24996   0.00000  Uiso   1.00
C434   C     0.91338   0.83334   0.25004   0.00000  Uiso   1.00
C435   C     0.83330   0.83333   0.16391   0.00000  Uiso   1.00
C436   C     0.83338   0.83333   0.33609   0.00000  Uiso   1.00
C437   C     0.85937   0.69066   0.27759   0.00000  Uiso   1.00
C438   C     0.80730   0.97601   0.22241   0.00000  Uiso   1.00
C439   C     0.80729   0.69065   0.22241   0.00000  Uiso   1.00
C440   C     0.85937   0.97602   0.27759   0.00000  Uiso   1.00
C441   C     0.68799   0.79268   0.25727   0.00000  Uiso   1.00
C442   C     0.97868   0.87399   0.24273   0.00000  Uiso   1.00
C443   C     0.97873   0.79268   0.25734   0.00000  Uiso   1.00
C444   C     0.68794   0.87398   0.24266   0.00000  Uiso   1.00
C445   C     0.84794   0.87139   0.04714   0.00000  Uiso   1.00
C446   C     0.84802   0.79528   0.45300   0.00000  Uiso   1.00
C447   C     0.81897   0.87141   0.45290   0.00000  Uiso   1.00
C448   C     0.81888   0.79526   0.04697   0.00000  Uiso   1.00
C449   C     0.84764   0.87151   0.09312   0.00000  Uiso   1.00
C450   C     0.84777   0.79517   0.40701   0.00000  Uiso   1.00
C451   C     0.81918   0.87152   0.40691   0.00000  Uiso   1.00
C452   C     0.81904   0.79516   0.09296   0.00000  Uiso   1.00
C453   C     0.83331   0.83334   0.11602   0.00000  Uiso   1.00
C454   C     0.83345   0.83334   0.38398   0.00000  Uiso   1.00
C455   C     0.83345   0.83332   0.02405   0.00000  Uiso   1.00
C456   C     0.83349   0.83333   0.47595   0.00000  Uiso   1.00
C457   C     0.95753   0.83334   0.25005   0.00000  Uiso   1.00
C458   C     0.70914   0.83333   0.24995   0.00000  Uiso   1.00
H459   H     0.85981   0.90072   0.02961   0.00000  Uiso   1.00
H460   H     0.85986   0.76594   0.47063   0.00000  Uiso   1.00
H461   H     0.80712   0.90074   0.47045   0.00000  Uiso   1.00
H462   H     0.80705   0.76592   0.02931   0.00000  Uiso   1.00
H463   H     0.85909   0.90107   0.11070   0.00000  Uiso   1.00
H464   H     0.85924   0.76562   0.38952   0.00000  Uiso   1.00
H465   H     0.80771   0.90108   0.38935   0.00000  Uiso   1.00
H466   H     0.80753   0.76561   0.11043   0.00000  Uiso   1.00
H467   H     0.70421   0.76105   0.26318   0.00000  Uiso   1.00
H468   H     0.96246   0.90561   0.23681   0.00000  Uiso   1.00
H469   H     0.96255   0.76107   0.26330   0.00000  Uiso   1.00
H470   H     0.70411   0.90560   0.23671   0.00000  Uiso   1.00
N471   N     0.83333   0.95240   0.25000   0.00000  Uiso   1.00
N472   N     0.83333   0.71427   0.25000   0.00000  Uiso   1.00
O473   O     0.77226   0.87154   0.24999   0.00000  Uiso   1.00
O474   O     0.89441   0.79513   0.25000   0.00000  Uiso   1.00
O475   O     0.89441   0.87154   0.25000   0.00000  Uiso   1.00
O476   O     0.77226   0.79513   0.24999   0.00000  Uiso   1.00
O477   O     0.83333   0.87155   0.18453   0.00000  Uiso   1.00
O478   O     0.83334   0.79511   0.31547   0.00000  Uiso   1.00
O479   O     0.83334   0.87155   0.31547   0.00000  Uiso   1.00
O480   O     0.83333   0.79511   0.18453   0.00000  Uiso   1.00
Zn481  Zn    0.83333   0.88437   0.25000   0.00000  Uiso   1.00
Zn482  Zn    0.83333   0.78229   0.25000   0.00000  Uiso   1.00
F483   F     0.88546   0.71338   0.30523   0.00000  Uiso   1.00
F484   F     0.78122   0.95329   0.19475   0.00000  Uiso   1.00
F485   F     0.78119   0.71336   0.19478   0.00000  Uiso   1.00
F486   F     0.88546   0.95330   0.30523   0.00000  Uiso   1.00
C487   C     0.08662   0.16667   0.74996   0.00000  Uiso   1.00
C488   C     0.24671   0.16667   0.75004   0.00000  Uiso   1.00
C489   C     0.16663   0.16667   0.66391   0.00000  Uiso   1.00
C490   C     0.16672   0.16667   0.83609   0.00000  Uiso   1.00
C491   C     0.19271   0.02399   0.77759   0.00000  Uiso   1.00
C492   C     0.14063   0.30934   0.72241   0.00000  Uiso   1.00
C493   C     0.14062   0.02398   0.72241   0.00000  Uiso   1.00
C494   C     0.19271   0.30935   0.77759   0.00000  Uiso   1.00
C495   C     0.02132   0.12601   0.75727   0.00000  Uiso   1.00
C496   C     0.31201   0.20732   0.74273   0.00000  Uiso   1.00
C497   C     0.31206   0.12602   0.75734   0.00000  Uiso   1.00
C498   C     0.02127   0.20732   0.74266   0.00000  Uiso   1.00
C499   C     0.18127   0.20472   0.54714   0.00000  Uiso   1.00
C500   C     0.18135   0.12861   0.95300   0.00000  Uiso   1.00
C501   C     0.15230   0.20474   0.95290   0.00000  Uiso   1.00
C502   C     0.15221   0.12859   0.54697   0.00000  Uiso   1.00
C503   C     0.18097   0.20484   0.59312   0.00000  Uiso   1.00
C504   C     0.18110   0.12850   0.90701   0.00000  Uiso   1.00
C505   C     0.15252   0.20486   0.90691   0.00000  Uiso   1.00
C506   C     0.15237   0.12849   0.59296   0.00000  Uiso   1.00
C507   C     0.16665   0.16667   0.61602   0.00000  Uiso   1.00
C508   C     0.16678   0.16668   0.88398   0.00000  Uiso   1.00
C509   C     0.16678   0.16665   0.52405   0.00000  Uiso   1.00
C510   C     0.16682   0.16667   0.97595   0.00000  Uiso   1.00
C511   C     0.29086   0.16667   0.75005   0.00000  Uiso   1.00
C512   C     0.04247   0.16666   0.74995   0.00000  Uiso   1.00
H513   H     0.19314   0.23406   0.52961   0.00000  Uiso   1.00
H514   H     0.19319   0.09927   0.97063   0.00000  Uiso   1.00
H515   H     0.14046   0.23407   0.97045   0.00000  Uiso   1.00
H516   H     0.14039   0.09926   0.52931   0.00000  Uiso   1.00
H517   H     0.19242   0.23440   0.61070   0.00000  Uiso   1.00
H518   H     0.19257   0.09895   0.88952   0.00000  Uiso   1.00
H519   H     0.14104   0.23442   0.88935   0.00000  Uiso   1.00
H520   H     0.14087   0.09894   0.61043   0.00000  Uiso   1.00
H521   H     0.03754   0.09439   0.76318   0.00000  Uiso   1.00
H522   H     0.29579   0.23894   0.73681   0.00000  Uiso   1.00
H523   H     0.29589   0.09440   0.76330   0.00000  Uiso   1.00
H524   H     0.03745   0.23893   0.73671   0.00000  Uiso   1.00
N525   N     0.16667   0.28573   0.75000   0.00000  Uiso   1.00
N526   N     0.16667   0.04760   0.75000   0.00000  Uiso   1.00
O527   O     0.10559   0.20487   0.74999   0.00000  Uiso   1.00
O528   O     0.22774   0.12846   0.75000   0.00000  Uiso   1.00
O529   O     0.22774   0.20487   0.75000   0.00000  Uiso   1.00
O530   O     0.10559   0.12846   0.74999   0.00000  Uiso   1.00
O531   O     0.16666   0.20489   0.68453   0.00000  Uiso   1.00
O532   O     0.16667   0.12845   0.81547   0.00000  Uiso   1.00
O533   O     0.16667   0.20489   0.81547   0.00000  Uiso   1.00
O534   O     0.16666   0.12845   0.68453   0.00000  Uiso   1.00
Zn535  Zn    0.16667   0.21771   0.75000   0.00000  Uiso   1.00
Zn536  Zn    0.16667   0.11563   0.75000   0.00000  Uiso   1.00
F537   F     0.21879   0.04671   0.80523   0.00000  Uiso   1.00
F538   F     0.11456   0.28662   0.69475   0.00000  Uiso   1.00
F539   F     0.11452   0.04670   0.69478   0.00000  Uiso   1.00
F540   F     0.21879   0.28664   0.80523   0.00000  Uiso   1.00
C541   C     0.41995   0.16667   0.74996   0.00000  Uiso   1.00
C542   C     0.58005   0.16667   0.75004   0.00000  Uiso   1.00
C543   C     0.49997   0.16667   0.66391   0.00000  Uiso   1.00
C544   C     0.50005   0.16667   0.83609   0.00000  Uiso   1.00
C545   C     0.52604   0.02399   0.77759   0.00000  Uiso   1.00
C546   C     0.47396   0.30934   0.72241   0.00000  Uiso   1.00
C547   C     0.47396   0.02398   0.72241   0.00000  Uiso   1.00
C548   C     0.52604   0.30935   0.77759   0.00000  Uiso   1.00
C549   C     0.35466   0.12601   0.75727   0.00000  Uiso   1.00
C550   C     0.64534   0.20732   0.74273   0.00000  Uiso   1.00
C551   C     0.64540   0.12602   0.75734   0.00000  Uiso   1.00
C552   C     0.35460   0.20732   0.74266   0.00000  Uiso   1.00
C553   C     0.51461   0.20472   0.54714   0.00000  Uiso   1.00
C554   C     0.51468   0.12861   0.95300   0.00000  Uiso   1.00
C555   C     0.48563   0.20474   0.95290   0.00000  Uiso   1.00
C556   C     0.48554   0.12859   0.54697   0.00000  Uiso   1.00
C557   C     0.51430   0.20484   0.59312   0.00000  Uiso   1.00
C558   C     0.51444   0.12850   0.90701   0.00000  Uiso   1.00
C559   C     0.48585   0.20486   0.90691   0.00000  Uiso   1.00
C560   C     0.48570   0.12849   0.59296   0.00000  Uiso   1.00
C561   C     0.49998   0.16667   0.61602   0.00000  Uiso   1.00
C562   C     0.50012   0.16668   0.88398   0.00000  Uiso   1.00
C563   C     0.50011   0.16665   0.52405   0.00000  Uiso   1.00
C564   C     0.50015   0.16667   0.97595   0.00000  Uiso   1.00
C565   C     0.62419   0.16667   0.75005   0.00000  Uiso   1.00
C566   C     0.37581   0.16666   0.74995   0.00000  Uiso   1.00
H567   H     0.52647   0.23406   0.52961   0.00000  Uiso   1.00
H568   H     0.52652   0.09927   0.97063   0.00000  Uiso   1.00
H569   H     0.47379   0.23407   0.97045   0.00000  Uiso   1.00
H570   H     0.47372   0.09926   0.52931   0.00000  Uiso   1.00
H571   H     0.52575   0.23440   0.61070   0.00000  Uiso   1.00
H572   H     0.52591   0.09895   0.88952   0.00000  Uiso   1.00
H573   H     0.47437   0.23442   0.88935   0.00000  Uiso   1.00
H574   H     0.47420   0.09894   0.61043   0.00000  Uiso   1.00
H575   H     0.37088   0.09439   0.76318   0.00000  Uiso   1.00
H576   H     0.62912   0.23894   0.73681   0.00000  Uiso   1.00
H577   H     0.62922   0.09440   0.76330   0.00000  Uiso   1.00
H578   H     0.37078   0.23893   0.73671   0.00000  Uiso   1.00
N579   N     0.50000   0.28573   0.75000   0.00000  Uiso   1.00
N580   N     0.50000   0.04760   0.75000   0.00000  Uiso   1.00
O581   O     0.43892   0.20487   0.74999   0.00000  Uiso   1.00
O582   O     0.56108   0.12846   0.75000   0.00000  Uiso   1.00
O583   O     0.56108   0.20487   0.75000   0.00000  Uiso   1.00
O584   O     0.43892   0.12846   0.74999   0.00000  Uiso   1.00
O585   O     0.50000   0.20489   0.68453   0.00000  Uiso   1.00
O586   O     0.50000   0.12845   0.81547   0.00000  Uiso   1.00
O587   O     0.50000   0.20489   0.81547   0.00000  Uiso   1.00
O588   O     0.50000   0.12845   0.68453   0.00000  Uiso   1.00
Zn589  Zn    0.50000   0.21771   0.75000   0.00000  Uiso   1.00
Zn590  Zn    0.50000   0.11563   0.75000   0.00000  Uiso   1.00
F591   F     0.55213   0.04671   0.80523   0.00000  Uiso   1.00
F592   F     0.44789   0.28662   0.69475   0.00000  Uiso   1.00
F593   F     0.44786   0.04670   0.69478   0.00000  Uiso   1.00
F594   F     0.55213   0.28664   0.80523   0.00000  Uiso   1.00
C595   C     0.75329   0.16667   0.74996   0.00000  Uiso   1.00
C596   C     0.91338   0.16667   0.75004   0.00000  Uiso   1.00
C597   C     0.83330   0.16667   0.66391   0.00000  Uiso   1.00
C598   C     0.83338   0.16667   0.83609   0.00000  Uiso   1.00
C599   C     0.85937   0.02399   0.77759   0.00000  Uiso   1.00
C600   C     0.80730   0.30934   0.72241   0.00000  Uiso   1.00
C601   C     0.80729   0.02398   0.72241   0.00000  Uiso   1.00
C602   C     0.85937   0.30935   0.77759   0.00000  Uiso   1.00
C603   C     0.68799   0.12601   0.75727   0.00000  Uiso   1.00
C604   C     0.97868   0.20732   0.74273   0.00000  Uiso   1.00
C605   C     0.97873   0.12602   0.75734   0.00000  Uiso   1.00
C606   C     0.68794   0.20732   0.74266   0.00000  Uiso   1.00
C607   C     0.84794   0.20472   0.54714   0.00000  Uiso   1.00
C608   C     0.84802   0.12861   0.95300   0.00000  Uiso   1.00
C609   C     0.81897   0.20474   0.95290   0.00000  Uiso   1.00
C610   C     0.81888   0.12859   0.54697   0.00000  Uiso   1.00
C611   C     0.84764   0.20484   0.59312   0.00000  Uiso   1.00
C612   C     0.84777   0.12850   0.90701   0.00000  Uiso   1.00
C613   C     0.81918   0.20486   0.90691   0.00000  Uiso   1.00
C614   C     0.81904   0.12849   0.59296   0.00000  Uiso   1.00
C615   C     0.83331   0.16667   0.61602   0.00000  Uiso   1.00
C616   C     0.83345   0.16668   0.88398   0.00000  Uiso   1.00
C617   C     0.83345   0.16665   0.52405   0.00000  Uiso   1.00
C618   C     0.83349   0.16667   0.97595   0.00000  Uiso   1.00
C619   C     0.95753   0.16667   0.75005   0.00000  Uiso   1.00
C620   C     0.70914   0.16666   0.74995   0.00000  Uiso   1.00
H621   H     0.85981   0.23406   0.52961   0.00000  Uiso   1.00
H622   H     0.85986   0.09927   0.97063   0.00000  Uiso   1.00
H623   H     0.80712   0.23407   0.97045   0.00000  Uiso   1.00
H624   H     0.80705   0.09926   0.52931   0.00000  Uiso   1.00
H625   H     0.85909   0.23440   0.61070   0.00000  Uiso   1.00
H626   H     0.85924   0.09895   0.88952   0.00000  Uiso   1.00
H627   H     0.80771   0.23442   0.88935   0.00000  Uiso   1.00
H628   H     0.80753   0.09894   0.61043   0.00000  Uiso   1.00
H629   H     0.70421   0.09439   0.76318   0.00000  Uiso   1.00
H630   H     0.96246   0.23894   0.73681   0.00000  Uiso   1.00
H631   H     0.96255   0.09440   0.76330   0.00000  Uiso   1.00
H632   H     0.70411   0.23893   0.73671   0.00000  Uiso   1.00
N633   N     0.83333   0.28573   0.75000   0.00000  Uiso   1.00
N634   N     0.83333   0.04760   0.75000   0.00000  Uiso   1.00
O635   O     0.77226   0.20487   0.74999   0.00000  Uiso   1.00
O636   O     0.89441   0.12846   0.75000   0.00000  Uiso   1.00
O637   O     0.89441   0.20487   0.75000   0.00000  Uiso   1.00
O638   O     0.77226   0.12846   0.74999   0.00000  Uiso   1.00
O639   O     0.83333   0.20489   0.68453   0.00000  Uiso   1.00
O640   O     0.83334   0.12845   0.81547   0.00000  Uiso   1.00
O641   O     0.83334   0.20489   0.81547   0.00000  Uiso   1.00
O642   O     0.83333   0.12845   0.68453   0.00000  Uiso   1.00
Zn643  Zn    0.83333   0.21771   0.75000   0.00000  Uiso   1.00
Zn644  Zn    0.83333   0.11563   0.75000   0.00000  Uiso   1.00
F645   F     0.88546   0.04671   0.80523   0.00000  Uiso   1.00
F646   F     0.78122   0.28662   0.69475   0.00000  Uiso   1.00
F647   F     0.78119   0.04670   0.69478   0.00000  Uiso   1.00
F648   F     0.88546   0.28664   0.80523   0.00000  Uiso   1.00
C649   C     0.08662   0.50000   0.74996   0.00000  Uiso   1.00
C650   C     0.24671   0.50000   0.75004   0.00000  Uiso   1.00
C651   C     0.16663   0.50000   0.66391   0.00000  Uiso   1.00
C652   C     0.16672   0.50000   0.83609   0.00000  Uiso   1.00
C653   C     0.19271   0.35733   0.77759   0.00000  Uiso   1.00
C654   C     0.14063   0.64268   0.72241   0.00000  Uiso   1.00
C655   C     0.14062   0.35732   0.72241   0.00000  Uiso   1.00
C656   C     0.19271   0.64268   0.77759   0.00000  Uiso   1.00
C657   C     0.02132   0.45934   0.75727   0.00000  Uiso   1.00
C658   C     0.31201   0.54066   0.74273   0.00000  Uiso   1.00
C659   C     0.31206   0.45935   0.75734   0.00000  Uiso   1.00
C660   C     0.02127   0.54065   0.74266   0.00000  Uiso   1.00
C661   C     0.18127   0.53806   0.54714   0.00000  Uiso   1.00
C662   C     0.18135   0.46194   0.95300   0.00000  Uiso   1.00
C663   C     0.15230   0.53807   0.95290   0.00000  Uiso   1.00
C664   C     0.15221   0.46193   0.54697   0.00000  Uiso   1.00
C665   C     0.18097   0.53818   0.59312   0.00000  Uiso   1.00
C666   C     0.18110   0.46184   0.90701   0.00000  Uiso   1.00
C667   C     0.15252   0.53819   0.90691   0.00000  Uiso   1.00
C668   C     0.15237   0.46182   0.59296   0.00000  Uiso   1.00
C669   C     0.16665   0.50000   0.61602   0.00000  Uiso   1.00
C670   C     0.16678   0.50001   0.88398   0.00000  Uiso   1.00
C671   C     0.16678   0.49999   0.52405   0.00000  Uiso   1.00
C672   C     0.16682   0.50000   0.97595   0.00000  Uiso   1.00
C673   C     0.29086   0.50001   0.75005   0.00000  Uiso   1.00
C674   C     0.04247   0.49999   0.74995   0.00000  Uiso   1.00
H675   H     0.19314   0.56739   0.52961   0.00000  Uiso   1.00
H676   H     0.19319   0.43261   0.97063   0.00000  Uiso   1.00
H677   H     0.14046   0.56741   0.97045   0.00000  Uiso   1.00
H678   H     0.14039   0.43259   0.52931   0.00000  Uiso   1.00
H679   H     0.19242   0.56774   0.61070   0.00000  Uiso   1.00
H680   H     0.19257   0.43228   0.88952   0.00000  Uiso   1.00
H681   H     0.14104   0.56775   0.88935   0.00000  Uiso   1.00
H682   H     0.14087   0.43227   0.61043   0.00000  Uiso   1.00
H683   H     0.03754   0.42772   0.76318   0.00000  Uiso   1.00
H684   H     0.29579   0.57228   0.73681   0.00000  Uiso   1.00
H685   H     0.29589   0.42774   0.76330   0.00000  Uiso   1.00
H686   H     0.03745   0.57226   0.73671   0.00000  Uiso   1.00
N687   N     0.16667   0.61907   0.75000   0.00000  Uiso   1.00
N688   N     0.16667   0.38093   0.75000   0.00000  Uiso   1.00
O689   O     0.10559   0.53821   0.74999   0.00000  Uiso   1.00
O690   O     0.22774   0.46179   0.75000   0.00000  Uiso   1.00
O691   O     0.22774   0.53821   0.75000   0.00000  Uiso   1.00
O692   O     0.10559   0.46179   0.74999   0.00000  Uiso   1.00
O693   O     0.16666   0.53822   0.68453   0.00000  Uiso   1.00
O694   O     0.16667   0.46178   0.81547   0.00000  Uiso   1.00
O695   O     0.16667   0.53822   0.81547   0.00000  Uiso   1.00
O696   O     0.16666   0.46178   0.68453   0.00000  Uiso   1.00
Zn697  Zn    0.16667   0.55104   0.75000   0.00000  Uiso   1.00
Zn698  Zn    0.16667   0.44896   0.75000   0.00000  Uiso   1.00
F699   F     0.21879   0.38004   0.80523   0.00000  Uiso   1.00
F700   F     0.11456   0.61996   0.69475   0.00000  Uiso   1.00
F701   F     0.11452   0.38003   0.69478   0.00000  Uiso   1.00
F702   F     0.21879   0.61997   0.80523   0.00000  Uiso   1.00
C703   C     0.41995   0.50000   0.74996   0.00000  Uiso   1.00
C704   C     0.58005   0.50000   0.75004   0.00000  Uiso   1.00
C705   C     0.49997   0.50000   0.66391   0.00000  Uiso   1.00
C706   C     0.50005   0.50000   0.83609   0.00000  Uiso   1.00
C707   C     0.52604   0.35733   0.77759   0.00000  Uiso   1.00
C708   C     0.47396   0.64268   0.72241   0.00000  Uiso   1.00
C709   C     0.47396   0.35732   0.72241   0.00000  Uiso   1.00
C710   C     0.52604   0.64268   0.77759   0.00000  Uiso   1.00
C711   C     0.35466   0.45934   0.75727   0.00000  Uiso   1.00
C712   C     0.64534   0.54066   0.74273   0.00000  Uiso   1.00
C713   C     0.64540   0.45935   0.75734   0.00000  Uiso   1.00
C714   C     0.35460   0.54065   0.74266   0.00000  Uiso   1.00
C715   C     0.51461   0.53806   0.54714   0.00000  Uiso   1.00
C716   C     0.51468   0.46194   0.95300   0.00000  Uiso   1.00
C717   C     0.48563   0.53807   0.95290   0.00000  Uiso   1.00
C718   C     0.48554   0.46193   0.54697   0.00000  Uiso   1.00
C719   C     0.51430   0.53818   0.59312   0.00000  Uiso   1.00
C720   C     0.51444   0.46184   0.90701   0.00000  Uiso   1.00
C721   C     0.48585   0.53819   0.90691   0.00000  Uiso   1.00
C722   C     0.48570   0.46182   0.59296   0.00000  Uiso   1.00
C723   C     0.49998   0.50000   0.61602   0.00000  Uiso   1.00
C724   C     0.50012   0.50001   0.88398   0.00000  Uiso   1.00
C725   C     0.50011   0.49999   0.52405   0.00000  Uiso   1.00
C726   C     0.50015   0.50000   0.97595   0.00000  Uiso   1.00
C727   C     0.62419   0.50001   0.75005   0.00000  Uiso   1.00
C728   C     0.37581   0.49999   0.74995   0.00000  Uiso   1.00
H729   H     0.52647   0.56739   0.52961   0.00000  Uiso   1.00
H730   H     0.52652   0.43261   0.97063   0.00000  Uiso   1.00
H731   H     0.47379   0.56741   0.97045   0.00000  Uiso   1.00
H732   H     0.47372   0.43259   0.52931   0.00000  Uiso   1.00
H733   H     0.52575   0.56774   0.61070   0.00000  Uiso   1.00
H734   H     0.52591   0.43228   0.88952   0.00000  Uiso   1.00
H735   H     0.47437   0.56775   0.88935   0.00000  Uiso   1.00
H736   H     0.47420   0.43227   0.61043   0.00000  Uiso   1.00
H737   H     0.37088   0.42772   0.76318   0.00000  Uiso   1.00
H738   H     0.62912   0.57228   0.73681   0.00000  Uiso   1.00
H739   H     0.62922   0.42774   0.76330   0.00000  Uiso   1.00
H740   H     0.37078   0.57226   0.73671   0.00000  Uiso   1.00
N741   N     0.50000   0.61907   0.75000   0.00000  Uiso   1.00
N742   N     0.50000   0.38093   0.75000   0.00000  Uiso   1.00
O743   O     0.43892   0.53821   0.74999   0.00000  Uiso   1.00
O744   O     0.56108   0.46179   0.75000   0.00000  Uiso   1.00
O745   O     0.56108   0.53821   0.75000   0.00000  Uiso   1.00
O746   O     0.43892   0.46179   0.74999   0.00000  Uiso   1.00
O747   O     0.50000   0.53822   0.68453   0.00000  Uiso   1.00
O748   O     0.50000   0.46178   0.81547   0.00000  Uiso   1.00
O749   O     0.50000   0.53822   0.81547   0.00000  Uiso   1.00
O750   O     0.50000   0.46178   0.68453   0.00000  Uiso   1.00
Zn751  Zn    0.50000   0.55104   0.75000   0.00000  Uiso   1.00
Zn752  Zn    0.50000   0.44896   0.75000   0.00000  Uiso   1.00
F753   F     0.55213   0.38004   0.80523   0.00000  Uiso   1.00
F754   F     0.44789   0.61996   0.69475   0.00000  Uiso   1.00
F755   F     0.44786   0.38003   0.69478   0.00000  Uiso   1.00
F756   F     0.55213   0.61997   0.80523   0.00000  Uiso   1.00
C757   C     0.75329   0.50000   0.74996   0.00000  Uiso   1.00
C758   C     0.91338   0.50000   0.75004   0.00000  Uiso   1.00
C759   C     0.83330   0.50000   0.66391   0.00000  Uiso   1.00
C760   C     0.83338   0.50000   0.83609   0.00000  Uiso   1.00
C761   C     0.85937   0.35733   0.77759   0.00000  Uiso   1.00
C762   C     0.80730   0.64268   0.72241   0.00000  Uiso   1.00
C763   C     0.80729   0.35732   0.72241   0.00000  Uiso   1.00
C764   C     0.85937   0.64268   0.77759   0.00000  Uiso   1.00
C765   C     0.68799   0.45934   0.75727   0.00000  Uiso   1.00
C766   C     0.97868   0.54066   0.74273   0.00000  Uiso   1.00
C767   C     0.97873   0.45935   0.75734   0.00000  Uiso   1.00
C768   C     0.68794   0.54065   0.74266   0.00000  Uiso   1.00
C769   C     0.84794   0.53806   0.54714   0.00000  Uiso   1.00
C770   C     0.84802   0.46194   0.95300   0.00000  Uiso   1.00
C771   C     0.81897   0.53807   0.95290   0.00000  Uiso   1.00
C772   C     0.81888   0.46193   0.54697   0.00000  Uiso   1.00
C773   C     0.84764   0.53818   0.59312   0.00000  Uiso   1.00
C774   C     0.84777   0.46184   0.90701   0.00000  Uiso   1.00
C775   C     0.81918   0.53819   0.90691   0.00000  Uiso   1.00
C776   C     0.81904   0.46182   0.59296   0.00000  Uiso   1.00
C777   C     0.83331   0.50000   0.61602   0.00000  Uiso   1.00
C778   C     0.83345   0.50001   0.88398   0.00000  Uiso   1.00
C779   C     0.83345   0.49999   0.52405   0.00000  Uiso   1.00
C780   C     0.83349   0.50000   0.97595   0.00000  Uiso   1.00
C781   C     0.95753   0.50001   0.75005   0.00000  Uiso   1.00
C782   C     0.70914   0.49999   0.74995   0.00000  Uiso   1.00
H783   H     0.85981   0.56739   0.52961   0.00000  Uiso   1.00
H784   H     0.85986   0.43261   0.97063   0.00000  Uiso   1.00
H785   H     0.80712   0.56741   0.97045   0.00000  Uiso   1.00
H786   H     0.80705   0.43259   0.52931   0.00000  Uiso   1.00
H787   H     0.85909   0.56774   0.61070   0.00000  Uiso   1.00
H788   H     0.85924   0.43228   0.88952   0.00000  Uiso   1.00
H789   H     0.80771   0.56775   0.88935   0.00000  Uiso   1.00
H790   H     0.80753   0.43227   0.61043   0.00000  Uiso   1.00
H791   H     0.70421   0.42772   0.76318   0.00000  Uiso   1.00
H792   H     0.96246   0.57228   0.73681   0.00000  Uiso   1.00
H793   H     0.96255   0.42774   0.76330   0.00000  Uiso   1.00
H794   H     0.70411   0.57226   0.73671   0.00000  Uiso   1.00
N795   N     0.83333   0.61907   0.75000   0.00000  Uiso   1.00
N796   N     0.83333   0.38093   0.75000   0.00000  Uiso   1.00
O797   O     0.77226   0.53821   0.74999   0.00000  Uiso   1.00
O798   O     0.89441   0.46179   0.75000   0.00000  Uiso   1.00
O799   O     0.89441   0.53821   0.75000   0.00000  Uiso   1.00
O800   O     0.77226   0.46179   0.74999   0.00000  Uiso   1.00
O801   O     0.83333   0.53822   0.68453   0.00000  Uiso   1.00
O802   O     0.83334   0.46178   0.81547   0.00000  Uiso   1.00
O803   O     0.83334   0.53822   0.81547   0.00000  Uiso   1.00
O804   O     0.83333   0.46178   0.68453   0.00000  Uiso   1.00
Zn805  Zn    0.83333   0.55104   0.75000   0.00000  Uiso   1.00
Zn806  Zn    0.83333   0.44896   0.75000   0.00000  Uiso   1.00
F807   F     0.88546   0.38004   0.80523   0.00000  Uiso   1.00
F808   F     0.78122   0.61996   0.69475   0.00000  Uiso   1.00
F809   F     0.78119   0.38003   0.69478   0.00000  Uiso   1.00
F810   F     0.88546   0.61997   0.80523   0.00000  Uiso   1.00
C811   C     0.08662   0.83333   0.74996   0.00000  Uiso   1.00
C812   C     0.24671   0.83334   0.75004   0.00000  Uiso   1.00
C813   C     0.16663   0.83333   0.66391   0.00000  Uiso   1.00
C814   C     0.16672   0.83333   0.83609   0.00000  Uiso   1.00
C815   C     0.19271   0.69066   0.77759   0.00000  Uiso   1.00
C816   C     0.14063   0.97601   0.72241   0.00000  Uiso   1.00
C817   C     0.14062   0.69065   0.72241   0.00000  Uiso   1.00
C818   C     0.19271   0.97602   0.77759   0.00000  Uiso   1.00
C819   C     0.02132   0.79268   0.75727   0.00000  Uiso   1.00
C820   C     0.31201   0.87399   0.74273   0.00000  Uiso   1.00
C821   C     0.31206   0.79268   0.75734   0.00000  Uiso   1.00
C822   C     0.02127   0.87398   0.74266   0.00000  Uiso   1.00
C823   C     0.18127   0.87139   0.54714   0.00000  Uiso   1.00
C824   C     0.18135   0.79528   0.95300   0.00000  Uiso   1.00
C825   C     0.15230   0.87141   0.95290   0.00000  Uiso   1.00
C826   C     0.15221   0.79526   0.54697   0.00000  Uiso   1.00
C827   C     0.18097   0.87151   0.59312   0.00000  Uiso   1.00
C828   C     0.18110   0.79517   0.90701   0.00000  Uiso   1.00
C829   C     0.15252   0.87152   0.90691   0.00000  Uiso   1.00
C830   C     0.15237   0.79516   0.59296   0.00000  Uiso   1.00
C831   C     0.16665   0.83334   0.61602   0.00000  Uiso   1.00
C832   C     0.16678   0.83334   0.88398   0.00000  Uiso   1.00
C833   C     0.16678   0.83332   0.52405   0.00000  Uiso   1.00
C834   C     0.16682   0.83333   0.97595   0.00000  Uiso   1.00
C835   C     0.29086   0.83334   0.75005   0.00000  Uiso   1.00
C836   C     0.04247   0.83333   0.74995   0.00000  Uiso   1.00
H837   H     0.19314   0.90072   0.52961   0.00000  Uiso   1.00
H838   H     0.19319   0.76594   0.97063   0.00000  Uiso   1.00
H839   H     0.14046   0.90074   0.97045   0.00000  Uiso   1.00
H840   H     0.14039   0.76592   0.52931   0.00000  Uiso   1.00
H841   H     0.19242   0.90107   0.61070   0.00000  Uiso   1.00
H842   H     0.19257   0.76562   0.88952   0.00000  Uiso   1.00
H843   H     0.14104   0.90108   0.88935   0.00000  Uiso   1.00
H844   H     0.14087   0.76561   0.61043   0.00000  Uiso   1.00
H845   H     0.03754   0.76105   0.76318   0.00000  Uiso   1.00
H846   H     0.29579   0.90561   0.73681   0.00000  Uiso   1.00
H847   H     0.29589   0.76107   0.76330   0.00000  Uiso   1.00
H848   H     0.03745   0.90560   0.73671   0.00000  Uiso   1.00
N849   N     0.16667   0.95240   0.75000   0.00000  Uiso   1.00
N850   N     0.16667   0.71427   0.75000   0.00000  Uiso   1.00
O851   O     0.10559   0.87154   0.74999   0.00000  Uiso   1.00
O852   O     0.22774   0.79513   0.75000   0.00000  Uiso   1.00
O853   O     0.22774   0.87154   0.75000   0.00000  Uiso   1.00
O854   O     0.10559   0.79513   0.74999   0.00000  Uiso   1.00
O855   O     0.16666   0.87155   0.68453   0.00000  Uiso   1.00
O856   O     0.16667   0.79511   0.81547   0.00000  Uiso   1.00
O857   O     0.16667   0.87155   0.81547   0.00000  Uiso   1.00
O858   O     0.16666   0.79511   0.68453   0.00000  Uiso   1.00
Zn859  Zn    0.16667   0.88437   0.75000   0.00000  Uiso   1.00
Zn860  Zn    0.16667   0.78229   0.75000   0.00000  Uiso   1.00
F861   F     0.21879   0.71338   0.80523   0.00000  Uiso   1.00
F862   F     0.11456   0.95329   0.69475   0.00000  Uiso   1.00
F863   F     0.11452   0.71336   0.69478   0.00000  Uiso   1.00
F864   F     0.21879   0.95330   0.80523   0.00000  Uiso   1.00
C865   C     0.41995   0.83333   0.74996   0.00000  Uiso   1.00
C866   C     0.58005   0.83334   0.75004   0.00000  Uiso   1.00
C867   C     0.49997   0.83333   0.66391   0.00000  Uiso   1.00
C868   C     0.50005   0.83333   0.83609   0.00000  Uiso   1.00
C869   C     0.52604   0.69066   0.77759   0.00000  Uiso   1.00
C870   C     0.47396   0.97601   0.72241   0.00000  Uiso   1.00
C871   C     0.47396   0.69065   0.72241   0.00000  Uiso   1.00
C872   C     0.52604   0.97602   0.77759   0.00000  Uiso   1.00
C873   C     0.35466   0.79268   0.75727   0.00000  Uiso   1.00
C874   C     0.64534   0.87399   0.74273   0.00000  Uiso   1.00
C875   C     0.64540   0.79268   0.75734   0.00000  Uiso   1.00
C876   C     0.35460   0.87398   0.74266   0.00000  Uiso   1.00
C877   C     0.51461   0.87139   0.54714   0.00000  Uiso   1.00
C878   C     0.51468   0.79528   0.95300   0.00000  Uiso   1.00
C879   C     0.48563   0.87141   0.95290   0.00000  Uiso   1.00
C880   C     0.48554   0.79526   0.54697   0.00000  Uiso   1.00
C881   C     0.51430   0.87151   0.59312   0.00000  Uiso   1.00
C882   C     0.51444   0.79517   0.90701   0.00000  Uiso   1.00
C883   C     0.48585   0.87152   0.90691   0.00000  Uiso   1.00
C884   C     0.48570   0.79516   0.59296   0.00000  Uiso   1.00
C885   C     0.49998   0.83334   0.61602   0.00000  Uiso   1.00
C886   C     0.50012   0.83334   0.88398   0.00000  Uiso   1.00
C887   C     0.50011   0.83332   0.52405   0.00000  Uiso   1.00
C888   C     0.50015   0.83333   0.97595   0.00000  Uiso   1.00
C889   C     0.62419   0.83334   0.75005   0.00000  Uiso   1.00
C890   C     0.37581   0.83333   0.74995   0.00000  Uiso   1.00
H891   H     0.52647   0.90072   0.52961   0.00000  Uiso   1.00
H892   H     0.52652   0.76594   0.97063   0.00000  Uiso   1.00
H893   H     0.47379   0.90074   0.97045   0.00000  Uiso   1.00
H894   H     0.47372   0.76592   0.52931   0.00000  Uiso   1.00
H895   H     0.52575   0.90107   0.61070   0.00000  Uiso   1.00
H896   H     0.52591   0.76562   0.88952   0.00000  Uiso   1.00
H897   H     0.47437   0.90108   0.88935   0.00000  Uiso   1.00
H898   H     0.47420   0.76561   0.61043   0.00000  Uiso   1.00
H899   H     0.37088   0.76105   0.76318   0.00000  Uiso   1.00
H900   H     0.62912   0.90561   0.73681   0.00000  Uiso   1.00
H901   H     0.62922   0.76107   0.76330   0.00000  Uiso   1.00
H902   H     0.37078   0.90560   0.73671   0.00000  Uiso   1.00
N903   N     0.50000   0.95240   0.75000   0.00000  Uiso   1.00
N904   N     0.50000   0.71427   0.75000   0.00000  Uiso   1.00
O905   O     0.43892   0.87154   0.74999   0.00000  Uiso   1.00
O906   O     0.56108   0.79513   0.75000   0.00000  Uiso   1.00
O907   O     0.56108   0.87154   0.75000   0.00000  Uiso   1.00
O908   O     0.43892   0.79513   0.74999   0.00000  Uiso   1.00
O909   O     0.50000   0.87155   0.68453   0.00000  Uiso   1.00
O910   O     0.50000   0.79511   0.81547   0.00000  Uiso   1.00
O911   O     0.50000   0.87155   0.81547   0.00000  Uiso   1.00
O912   O     0.50000   0.79511   0.68453   0.00000  Uiso   1.00
Zn913  Zn    0.50000   0.88437   0.75000   0.00000  Uiso   1.00
Zn914  Zn    0.50000   0.78229   0.75000   0.00000  Uiso   1.00
F915   F     0.55213   0.71338   0.80523   0.00000  Uiso   1.00
F916   F     0.44789   0.95329   0.69475   0.00000  Uiso   1.00
F917   F     0.44786   0.71336   0.69478   0.00000  Uiso   1.00
F918   F     0.55213   0.95330   0.80523   0.00000  Uiso   1.00
C919   C     0.75329   0.83333   0.74996   0.00000  Uiso   1.00
C920   C     0.91338   0.83334   0.75004   0.00000  Uiso   1.00
C921   C     0.83330   0.83333   0.66391   0.00000  Uiso   1.00
C922   C     0.83338   0.83333   0.83609   0.00000  Uiso   1.00
C923   C     0.85937   0.69066   0.77759   0.00000  Uiso   1.00
C924   C     0.80730   0.97601   0.72241   0.00000  Uiso   1.00
C925   C     0.80729   0.69065   0.72241   0.00000  Uiso   1.00
C926   C     0.85937   0.97602   0.77759   0.00000  Uiso   1.00
C927   C     0.68799   0.79268   0.75727   0.00000  Uiso   1.00
C928   C     0.97868   0.87399   0.74273   0.00000  Uiso   1.00
C929   C     0.97873   0.79268   0.75734   0.00000  Uiso   1.00
C930   C     0.68794   0.87398   0.74266   0.00000  Uiso   1.00
C931   C     0.84794   0.87139   0.54714   0.00000  Uiso   1.00
C932   C     0.84802   0.79528   0.95300   0.00000  Uiso   1.00
C933   C     0.81897   0.87141   0.95290   0.00000  Uiso   1.00
C934   C     0.81888   0.79526   0.54697   0.00000  Uiso   1.00
C935   C     0.84764   0.87151   0.59312   0.00000  Uiso   1.00
C936   C     0.84777   0.79517   0.90701   0.00000  Uiso   1.00
C937   C     0.81918   0.87152   0.90691   0.00000  Uiso   1.00
C938   C     0.81904   0.79516   0.59296   0.00000  Uiso   1.00
C939   C     0.83331   0.83334   0.61602   0.00000  Uiso   1.00
C940   C     0.83345   0.83334   0.88398   0.00000  Uiso   1.00
C941   C     0.83345   0.83332   0.52405   0.00000  Uiso   1.00
C942   C     0.83349   0.83333   0.97595   0.00000  Uiso   1.00
C943   C     0.95753   0.83334   0.75005   0.00000  Uiso   1.00
C944   C     0.70914   0.83333   0.74995   0.00000  Uiso   1.00
H945   H     0.85981   0.90072   0.52961   0.00000  Uiso   1.00
H946   H     0.85986   0.76594   0.97063   0.00000  Uiso   1.00
H947   H     0.80712   0.90074   0.97045   0.00000  Uiso   1.00
H948   H     0.80705   0.76592   0.52931   0.00000  Uiso   1.00
H949   H     0.85909   0.90107   0.61070   0.00000  Uiso   1.00
H950   H     0.85924   0.76562   0.88952   0.00000  Uiso   1.00
H951   H     0.80771   0.90108   0.88935   0.00000  Uiso   1.00
H952   H     0.80753   0.76561   0.61043   0.00000  Uiso   1.00
H953   H     0.70421   0.76105   0.76318   0.00000  Uiso   1.00
H954   H     0.96246   0.90561   0.73681   0.00000  Uiso   1.00
H955   H     0.96255   0.76107   0.76330   0.00000  Uiso   1.00
H956   H     0.70411   0.90560   0.73671   0.00000  Uiso   1.00
N957   N     0.83333   0.95240   0.75000   0.00000  Uiso   1.00
N958   N     0.83333   0.71427   0.75000   0.00000  Uiso   1.00
O959   O     0.77226   0.87154   0.74999   0.00000  Uiso   1.00
O960   O     0.89441   0.79513   0.75000   0.00000  Uiso   1.00
O961   O     0.89441   0.87154   0.75000   0.00000  Uiso   1.00
O962   O     0.77226   0.79513   0.74999   0.00000  Uiso   1.00
O963   O     0.83333   0.87155   0.68453   0.00000  Uiso   1.00
O964   O     0.83334   0.79511   0.81547   0.00000  Uiso   1.00
O965   O     0.83334   0.87155   0.81547   0.00000  Uiso   1.00
O966   O     0.83333   0.79511   0.68453   0.00000  Uiso   1.00
Zn967  Zn    0.83333   0.88437   0.75000   0.00000  Uiso   1.00
Zn968  Zn    0.83333   0.78229   0.75000   0.00000  Uiso   1.00
F969   F     0.88546   0.71338   0.80523   0.00000  Uiso   1.00
F970   F     0.78122   0.95329   0.69475   0.00000  Uiso   1.00
F971   F     0.78119   0.71336   0.69478   0.00000  Uiso   1.00
F972   F     0.88546   0.95330   0.80523   0.00000  Uiso   1.00
loop_
_geom_bond_atom_site_label_1
_geom_bond_atom_site_label_2
_geom_bond_distance
_geom_bond_site_symmetry_2
_ccdc_geom_bond_type
C1     O44     1.282   .     A
C1     C26     1.420   .     S
C1     O41     1.282   .     A
C2     O43     1.282   .     A
C2     O42     1.282   .     A
C2     C25     1.420   .     S
C3     C21     1.438   .     S
C3     O48     1.287   .     A
C3     O45     1.287   .     A
C4     C22     1.438   .     S
C4     O46     1.287   .     A
C4     O47     1.287   .     A
C5     N40     1.367   .     A
C5     F51     1.355   .     S
C5     C332    1.416   1_545 S
C6     N39     1.367   .     A
C6     F52     1.355   .     S
C6     C169    1.416   .     S
C7     F53     1.355   .     S
C7     N40     1.367   .     A
C7     C330    1.416   1_545 S
C8     N39     1.367   .     A
C8     F54     1.355   .     S
C8     C167    1.416   .     S
C9     C26     1.397   .     A
C9     H35     1.084   .     S
C9     C119    1.370   1_455 S
C10    C25     1.397   .     A
C10    H36     1.084   .     S
C10    C66     1.370   .     S
C11    C25     1.397   .     A
C11    H37     1.084   .     S
C11    C63     1.370   .     S
C12    H38     1.084   .     S
C12    C26     1.397   .     A
C12    C118    1.370   1_455 S
C13    C17     1.380   .     A
C13    C23     1.399   .     A
C13    H27     1.083   .     S
C14    H28     1.083   .     S
C14    C24     1.399   .     A
C14    C18     1.381   .     A
C15    C19     1.380   .     A
C15    C24     1.399   .     A
C15    H29     1.083   .     S
C16    C23     1.399   .     A
C16    C20     1.381   .     A
C16    H30     1.083   .     S
C17    H31     1.084   .     S
C17    C21     1.399   .     A
C18    H32     1.084   .     S
C18    C22     1.399   .     A
C19    C22     1.399   .     A
C19    H33     1.084   .     S
C20    H34     1.084   .     S
C20    C21     1.399   .     A
C23    C510    1.444   1_554 S
C24    C509    1.444   .     S
N39    Zn49    2.008   .     S
N40    Zn50    2.008   .     S
O41    Zn49    2.000   .     S
O42    Zn50    2.000   .     S
O43    Zn49    2.001   .     S
O44    Zn50    2.001   .     S
O45    Zn49    2.001   .     S
O46    Zn50    2.001   .     S
O47    Zn49    2.001   .     S
O48    Zn50    2.001   .     S
C55    O98     1.282   .     A
C55    C80     1.420   .     S
C55    O95     1.282   .     A
C56    O97     1.282   .     A
C56    O96     1.282   .     A
C56    C79     1.420   .     S
C57    C75     1.438   .     S
C57    O102    1.287   .     A
C57    O99     1.287   .     A
C58    C76     1.438   .     S
C58    O100    1.287   .     A
C58    O101    1.287   .     A
C59    N94     1.367   .     A
C59    F105    1.355   .     S
C59    C386    1.416   1_545 S
C60    N93     1.367   .     A
C60    F106    1.355   .     S
C60    C223    1.416   .     S
C61    F107    1.355   .     S
C61    N94     1.367   .     A
C61    C384    1.416   1_545 S
C62    N93     1.367   .     A
C62    F108    1.355   .     S
C62    C221    1.416   .     S
C63    C80     1.397   .     A
C63    H89     1.084   .     S
C64    C79     1.397   .     A
C64    H90     1.084   .     S
C64    C120    1.370   .     S
C65    C79     1.397   .     A
C65    H91     1.084   .     S
C65    C117    1.370   .     S
C66    H92     1.084   .     S
C66    C80     1.397   .     A
C67    C71     1.380   .     A
C67    C77     1.399   .     A
C67    H81     1.083   .     S
C68    H82     1.083   .     S
C68    C78     1.399   .     A
C68    C72     1.381   .     A
C69    C73     1.380   .     A
C69    C78     1.399   .     A
C69    H83     1.083   .     S
C70    C77     1.399   .     A
C70    C74     1.381   .     A
C70    H84     1.083   .     S
C71    H85     1.084   .     S
C71    C75     1.399   .     A
C72    H86     1.084   .     S
C72    C76     1.399   .     A
C73    C76     1.399   .     A
C73    H87     1.084   .     S
C74    H88     1.084   .     S
C74    C75     1.399   .     A
C77    C564    1.444   1_554 S
C78    C563    1.444   .     S
N93    Zn103   2.008   .     S
N94    Zn104   2.008   .     S
O95    Zn103   2.000   .     S
O96    Zn104   2.000   .     S
O97    Zn103   2.001   .     S
O98    Zn104   2.001   .     S
O99    Zn103   2.001   .     S
O100   Zn104   2.001   .     S
O101   Zn103   2.001   .     S
O102   Zn104   2.001   .     S
C109   O152    1.282   .     A
C109   C134    1.420   .     S
C109   O149    1.282   .     A
C110   O151    1.282   .     A
C110   O150    1.282   .     A
C110   C133    1.420   .     S
C111   C129    1.438   .     S
C111   O156    1.287   .     A
C111   O153    1.287   .     A
C112   C130    1.438   .     S
C112   O154    1.287   .     A
C112   O155    1.287   .     A
C113   N148    1.367   .     A
C113   F159    1.355   .     S
C113   C440    1.416   1_545 S
C114   N147    1.367   .     A
C114   F160    1.355   .     S
C114   C277    1.416   .     S
C115   F161    1.355   .     S
C115   N148    1.367   .     A
C115   C438    1.416   1_545 S
C116   N147    1.367   .     A
C116   F162    1.355   .     S
C116   C275    1.416   .     S
C117   C134    1.397   .     A
C117   H143    1.084   .     S
C118   C133    1.397   .     A
C118   H144    1.084   .     S
C118   C12     1.370   1_655 S
C119   C133    1.397   .     A
C119   H145    1.084   .     S
C119   C9      1.370   1_655 S
C120   H146    1.084   .     S
C120   C134    1.397   .     A
C121   C125    1.380   .     A
C121   C131    1.399   .     A
C121   H135    1.083   .     S
C122   H136    1.083   .     S
C122   C132    1.399   .     A
C122   C126    1.381   .     A
C123   C127    1.380   .     A
C123   C132    1.399   .     A
C123   H137    1.083   .     S
C124   C131    1.399   .     A
C124   C128    1.381   .     A
C124   H138    1.083   .     S
C125   H139    1.084   .     S
C125   C129    1.399   .     A
C126   H140    1.084   .     S
C126   C130    1.399   .     A
C127   C130    1.399   .     A
C127   H141    1.084   .     S
C128   H142    1.084   .     S
C128   C129    1.399   .     A
C131   C618    1.444   1_554 S
C132   C617    1.444   .     S
N147   Zn157   2.008   .     S
N148   Zn158   2.008   .     S
O149   Zn157   2.000   .     S
O150   Zn158   2.000   .     S
O151   Zn157   2.001   .     S
O152   Zn158   2.001   .     S
O153   Zn157   2.001   .     S
O154   Zn158   2.001   .     S
O155   Zn157   2.001   .     S
O156   Zn158   2.001   .     S
C163   O206    1.282   .     A
C163   C188    1.420   .     S
C163   O203    1.282   .     A
C164   O205    1.282   .     A
C164   O204    1.282   .     A
C164   C187    1.420   .     S
C165   C183    1.438   .     S
C165   O210    1.287   .     A
C165   O207    1.287   .     A
C166   C184    1.438   .     S
C166   O208    1.287   .     A
C166   O209    1.287   .     A
C167   N202    1.367   .     A
C167   F213    1.355   .     S
C168   N201    1.367   .     A
C168   F214    1.355   .     S
C168   C331    1.416   .     S
C169   F215    1.355   .     S
C169   N202    1.367   .     A
C170   N201    1.367   .     A
C170   F216    1.355   .     S
C170   C329    1.416   .     S
C171   C188    1.397   .     A
C171   H197    1.084   .     S
C171   C281    1.370   1_455 S
C172   C187    1.397   .     A
C172   H198    1.084   .     S
C172   C228    1.370   .     S
C173   C187    1.397   .     A
C173   H199    1.084   .     S
C173   C225    1.370   .     S
C174   H200    1.084   .     S
C174   C188    1.397   .     A
C174   C280    1.370   1_455 S
C175   C179    1.380   .     A
C175   C185    1.399   .     A
C175   H189    1.083   .     S
C176   H190    1.083   .     S
C176   C186    1.399   .     A
C176   C180    1.381   .     A
C177   C181    1.380   .     A
C177   C186    1.399   .     A
C177   H191    1.083   .     S
C178   C185    1.399   .     A
C178   C182    1.381   .     A
C178   H192    1.083   .     S
C179   H193    1.084   .     S
C179   C183    1.399   .     A
C180   H194    1.084   .     S
C180   C184    1.399   .     A
C181   C184    1.399   .     A
C181   H195    1.084   .     S
C182   H196    1.084   .     S
C182   C183    1.399   .     A
C185   C672    1.444   1_554 S
C186   C671    1.444   .     S
N201   Zn211   2.008   .     S
N202   Zn212   2.008   .     S
O203   Zn211   2.000   .     S
O204   Zn212   2.000   .     S
O205   Zn211   2.001   .     S
O206   Zn212   2.001   .     S
O207   Zn211   2.001   .     S
O208   Zn212   2.001   .     S
O209   Zn211   2.001   .     S
O210   Zn212   2.001   .     S
C217   O260    1.282   .     A
C217   C242    1.420   .     S
C217   O257    1.282   .     A
C218   O259    1.282   .     A
C218   O258    1.282   .     A
C218   C241    1.420   .     S
C219   C237    1.438   .     S
C219   O264    1.287   .     A
C219   O261    1.287   .     A
C220   C238    1.438   .     S
C220   O262    1.287   .     A
C220   O263    1.287   .     A
C221   N256    1.367   .     A
C221   F267    1.355   .     S
C222   N255    1.367   .     A
C222   F268    1.355   .     S
C222   C385    1.416   .     S
C223   F269    1.355   .     S
C223   N256    1.367   .     A
C224   N255    1.367   .     A
C224   F270    1.355   .     S
C224   C383    1.416   .     S
C225   C242    1.397   .     A
C225   H251    1.084   .     S
C226   C241    1.397   .     A
C226   H252    1.084   .     S
C226   C282    1.370   .     S
C227   C241    1.397   .     A
C227   H253    1.084   .     S
C227   C279    1.370   .     S
C228   H254    1.084   .     S
C228   C242    1.397   .     A
C229   C233    1.380   .     A
C229   C239    1.399   .     A
C229   H243    1.083   .     S
C230   H244    1.083   .     S
C230   C240    1.399   .     A
C230   C234    1.381   .     A
C231   C235    1.380   .     A
C231   C240    1.399   .     A
C231   H245    1.083   .     S
C232   C239    1.399   .     A
C232   C236    1.381   .     A
C232   H246    1.083   .     S
C233   H247    1.084   .     S
C233   C237    1.399   .     A
C234   H248    1.084   .     S
C234   C238    1.399   .     A
C235   C238    1.399   .     A
C235   H249    1.084   .     S
C236   H250    1.084   .     S
C236   C237    1.399   .     A
C239   C726    1.444   1_554 S
C240   C725    1.444   .     S
N255   Zn265   2.008   .     S
N256   Zn266   2.008   .     S
O257   Zn265   2.000   .     S
O258   Zn266   2.000   .     S
O259   Zn265   2.001   .     S
O260   Zn266   2.001   .     S
O261   Zn265   2.001   .     S
O262   Zn266   2.001   .     S
O263   Zn265   2.001   .     S
O264   Zn266   2.001   .     S
C271   O314    1.282   .     A
C271   C296    1.420   .     S
C271   O311    1.282   .     A
C272   O313    1.282   .     A
C272   O312    1.282   .     A
C272   C295    1.420   .     S
C273   C291    1.438   .     S
C273   O318    1.287   .     A
C273   O315    1.287   .     A
C274   C292    1.438   .     S
C274   O316    1.287   .     A
C274   O317    1.287   .     A
C275   N310    1.367   .     A
C275   F321    1.355   .     S
C276   N309    1.367   .     A
C276   F322    1.355   .     S
C276   C439    1.416   .     S
C277   F323    1.355   .     S
C277   N310    1.367   .     A
C278   N309    1.367   .     A
C278   F324    1.355   .     S
C278   C437    1.416   .     S
C279   C296    1.397   .     A
C279   H305    1.084   .     S
C280   C295    1.397   .     A
C280   H306    1.084   .     S
C280   C174    1.370   1_655 S
C281   C295    1.397   .     A
C281   H307    1.084   .     S
C281   C171    1.370   1_655 S
C282   H308    1.084   .     S
C282   C296    1.397   .     A
C283   C287    1.380   .     A
C283   C293    1.399   .     A
C283   H297    1.083   .     S
C284   H298    1.083   .     S
C284   C294    1.399   .     A
C284   C288    1.381   .     A
C285   C289    1.380   .     A
C285   C294    1.399   .     A
C285   H299    1.083   .     S
C286   C293    1.399   .     A
C286   C290    1.381   .     A
C286   H300    1.083   .     S
C287   H301    1.084   .     S
C287   C291    1.399   .     A
C288   H302    1.084   .     S
C288   C292    1.399   .     A
C289   C292    1.399   .     A
C289   H303    1.084   .     S
C290   H304    1.084   .     S
C290   C291    1.399   .     A
C293   C780    1.444   1_554 S
C294   C779    1.444   .     S
N309   Zn319   2.008   .     S
N310   Zn320   2.008   .     S
O311   Zn319   2.000   .     S
O312   Zn320   2.000   .     S
O313   Zn319   2.001   .     S
O314   Zn320   2.001   .     S
O315   Zn319   2.001   .     S
O316   Zn320   2.001   .     S
O317   Zn319   2.001   .     S
O318   Zn320   2.001   .     S
C325   O368    1.282   .     A
C325   C350    1.420   .     S
C325   O365    1.282   .     A
C326   O367    1.282   .     A
C326   O366    1.282   .     A
C326   C349    1.420   .     S
C327   C345    1.438   .     S
C327   O372    1.287   .     A
C327   O369    1.287   .     A
C328   C346    1.438   .     S
C328   O370    1.287   .     A
C328   O371    1.287   .     A
C329   N364    1.367   .     A
C329   F375    1.355   .     S
C330   N363    1.367   .     A
C330   F376    1.355   .     S
C330   C7      1.416   1_565 S
C331   F377    1.355   .     S
C331   N364    1.367   .     A
C332   N363    1.367   .     A
C332   F378    1.355   .     S
C332   C5      1.416   1_565 S
C333   C350    1.397   .     A
C333   H359    1.084   .     S
C333   C443    1.370   1_455 S
C334   C349    1.397   .     A
C334   H360    1.084   .     S
C334   C390    1.370   .     S
C335   C349    1.397   .     A
C335   H361    1.084   .     S
C335   C387    1.370   .     S
C336   H362    1.084   .     S
C336   C350    1.397   .     A
C336   C442    1.370   1_455 S
C337   C341    1.380   .     A
C337   C347    1.399   .     A
C337   H351    1.083   .     S
C338   H352    1.083   .     S
C338   C348    1.399   .     A
C338   C342    1.381   .     A
C339   C343    1.380   .     A
C339   C348    1.399   .     A
C339   H353    1.083   .     S
C340   C347    1.399   .     A
C340   C344    1.381   .     A
C340   H354    1.083   .     S
C341   H355    1.084   .     S
C341   C345    1.399   .     A
C342   H356    1.084   .     S
C342   C346    1.399   .     A
C343   C346    1.399   .     A
C343   H357    1.084   .     S
C344   H358    1.084   .     S
C344   C345    1.399   .     A
C347   C834    1.444   1_554 S
C348   C833    1.444   .     S
N363   Zn373   2.008   .     S
N364   Zn374   2.008   .     S
O365   Zn373   2.000   .     S
O366   Zn374   2.000   .     S
O367   Zn373   2.001   .     S
O368   Zn374   2.001   .     S
O369   Zn373   2.001   .     S
O370   Zn374   2.001   .     S
O371   Zn373   2.001   .     S
O372   Zn374   2.001   .     S
C379   O422    1.282   .     A
C379   C404    1.420   .     S
C379   O419    1.282   .     A
C380   O421    1.282   .     A
C380   O420    1.282   .     A
C380   C403    1.420   .     S
C381   C399    1.438   .     S
C381   O426    1.287   .     A
C381   O423    1.287   .     A
C382   C400    1.438   .     S
C382   O424    1.287   .     A
C382   O425    1.287   .     A
C383   N418    1.367   .     A
C383   F429    1.355   .     S
C384   N417    1.367   .     A
C384   F430    1.355   .     S
C384   C61     1.416   1_565 S
C385   F431    1.355   .     S
C385   N418    1.367   .     A
C386   N417    1.367   .     A
C386   F432    1.355   .     S
C386   C59     1.416   1_565 S
C387   C404    1.397   .     A
C387   H413    1.084   .     S
C388   C403    1.397   .     A
C388   H414    1.084   .     S
C388   C444    1.370   .     S
C389   C403    1.397   .     A
C389   H415    1.084   .     S
C389   C441    1.370   .     S
C390   H416    1.084   .     S
C390   C404    1.397   .     A
C391   C395    1.380   .     A
C391   C401    1.399   .     A
C391   H405    1.083   .     S
C392   H406    1.083   .     S
C392   C402    1.399   .     A
C392   C396    1.381   .     A
C393   C397    1.380   .     A
C393   C402    1.399   .     A
C393   H407    1.083   .     S
C394   C401    1.399   .     A
C394   C398    1.381   .     A
C394   H408    1.083   .     S
C395   H409    1.084   .     S
C395   C399    1.399   .     A
C396   H410    1.084   .     S
C396   C400    1.399   .     A
C397   C400    1.399   .     A
C397   H411    1.084   .     S
C398   H412    1.084   .     S
C398   C399    1.399   .     A
C401   C888    1.444   1_554 S
C402   C887    1.444   .     S
N417   Zn427   2.008   .     S
N418   Zn428   2.008   .     S
O419   Zn427   2.000   .     S
O420   Zn428   2.000   .     S
O421   Zn427   2.001   .     S
O422   Zn428   2.001   .     S
O423   Zn427   2.001   .     S
O424   Zn428   2.001   .     S
O425   Zn427   2.001   .     S
O426   Zn428   2.001   .     S
C433   O476    1.282   .     A
C433   C458    1.420   .     S
C433   O473    1.282   .     A
C434   O475    1.282   .     A
C434   O474    1.282   .     A
C434   C457    1.420   .     S
C435   C453    1.438   .     S
C435   O480    1.287   .     A
C435   O477    1.287   .     A
C436   C454    1.438   .     S
C436   O478    1.287   .     A
C436   O479    1.287   .     A
C437   N472    1.367   .     A
C437   F483    1.355   .     S
C438   N471    1.367   .     A
C438   F484    1.355   .     S
C438   C115    1.416   1_565 S
C439   F485    1.355   .     S
C439   N472    1.367   .     A
C440   N471    1.367   .     A
C440   F486    1.355   .     S
C440   C113    1.416   1_565 S
C441   C458    1.397   .     A
C441   H467    1.084   .     S
C442   C457    1.397   .     A
C442   H468    1.084   .     S
C442   C336    1.370   1_655 S
C443   C457    1.397   .     A
C443   H469    1.084   .     S
C443   C333    1.370   1_655 S
C444   H470    1.084   .     S
C444   C458    1.397   .     A
C445   C449    1.380   .     A
C445   C455    1.399   .     A
C445   H459    1.083   .     S
C446   H460    1.083   .     S
C446   C456    1.399   .     A
C446   C450    1.381   .     A
C447   C451    1.380   .     A
C447   C456    1.399   .     A
C447   H461    1.083   .     S
C448   C455    1.399   .     A
C448   C452    1.381   .     A
C448   H462    1.083   .     S
C449   H463    1.084   .     S
C449   C453    1.399   .     A
C450   H464    1.084   .     S
C450   C454    1.399   .     A
C451   C454    1.399   .     A
C451   H465    1.084   .     S
C452   H466    1.084   .     S
C452   C453    1.399   .     A
C455   C942    1.444   1_554 S
C456   C941    1.444   .     S
N471   Zn481   2.008   .     S
N472   Zn482   2.008   .     S
O473   Zn481   2.000   .     S
O474   Zn482   2.000   .     S
O475   Zn481   2.001   .     S
O476   Zn482   2.001   .     S
O477   Zn481   2.001   .     S
O478   Zn482   2.001   .     S
O479   Zn481   2.001   .     S
O480   Zn482   2.001   .     S
C487   O530    1.282   .     A
C487   C512    1.420   .     S
C487   O527    1.282   .     A
C488   O529    1.282   .     A
C488   O528    1.282   .     A
C488   C511    1.420   .     S
C489   C507    1.438   .     S
C489   O534    1.287   .     A
C489   O531    1.287   .     A
C490   C508    1.438   .     S
C490   O532    1.287   .     A
C490   O533    1.287   .     A
C491   N526    1.367   .     A
C491   F537    1.355   .     S
C491   C818    1.416   1_545 S
C492   N525    1.367   .     A
C492   F538    1.355   .     S
C492   C655    1.416   .     S
C493   F539    1.355   .     S
C493   N526    1.367   .     A
C493   C816    1.416   1_545 S
C494   N525    1.367   .     A
C494   F540    1.355   .     S
C494   C653    1.416   .     S
C495   C512    1.397   .     A
C495   H521    1.084   .     S
C495   C605    1.370   1_455 S
C496   C511    1.397   .     A
C496   H522    1.084   .     S
C496   C552    1.370   .     S
C497   C511    1.397   .     A
C497   H523    1.084   .     S
C497   C549    1.370   .     S
C498   H524    1.084   .     S
C498   C512    1.397   .     A
C498   C604    1.370   1_455 S
C499   C503    1.380   .     A
C499   C509    1.399   .     A
C499   H513    1.083   .     S
C500   H514    1.083   .     S
C500   C510    1.399   .     A
C500   C504    1.381   .     A
C501   C505    1.380   .     A
C501   C510    1.399   .     A
C501   H515    1.083   .     S
C502   C509    1.399   .     A
C502   C506    1.381   .     A
C502   H516    1.083   .     S
C503   H517    1.084   .     S
C503   C507    1.399   .     A
C504   H518    1.084   .     S
C504   C508    1.399   .     A
C505   C508    1.399   .     A
C505   H519    1.084   .     S
C506   H520    1.084   .     S
C506   C507    1.399   .     A
C510   C23     1.444   1_556 S
N525   Zn535   2.008   .     S
N526   Zn536   2.008   .     S
O527   Zn535   2.000   .     S
O528   Zn536   2.000   .     S
O529   Zn535   2.001   .     S
O530   Zn536   2.001   .     S
O531   Zn535   2.001   .     S
O532   Zn536   2.001   .     S
O533   Zn535   2.001   .     S
O534   Zn536   2.001   .     S
C541   O584    1.282   .     A
C541   C566    1.420   .     S
C541   O581    1.282   .     A
C542   O583    1.282   .     A
C542   O582    1.282   .     A
C542   C565    1.420   .     S
C543   C561    1.438   .     S
C543   O588    1.287   .     A
C543   O585    1.287   .     A
C544   C562    1.438   .     S
C544   O586    1.287   .     A
C544   O587    1.287   .     A
C545   N580    1.367   .     A
C545   F591    1.355   .     S
C545   C872    1.416   1_545 S
C546   N579    1.367   .     A
C546   F592    1.355   .     S
C546   C709    1.416   .     S
C547   F593    1.355   .     S
C547   N580    1.367   .     A
C547   C870    1.416   1_545 S
C548   N579    1.367   .     A
C548   F594    1.355   .     S
C548   C707    1.416   .     S
C549   C566    1.397   .     A
C549   H575    1.084   .     S
C550   C565    1.397   .     A
C550   H576    1.084   .     S
C550   C606    1.370   .     S
C551   C565    1.397   .     A
C551   H577    1.084   .     S
C551   C603    1.370   .     S
C552   H578    1.084   .     S
C552   C566    1.397   .     A
C553   C557    1.380   .     A
C553   C563    1.399   .     A
C553   H567    1.083   .     S
C554   H568    1.083   .     S
C554   C564    1.399   .     A
C554   C558    1.381   .     A
C555   C559    1.380   .     A
C555   C564    1.399   .     A
C555   H569    1.083   .     S
C556   C563    1.399   .     A
C556   C560    1.381   .     A
C556   H570    1.083   .     S
C557   H571    1.084   .     S
C557   C561    1.399   .     A
C558   H572    1.084   .     S
C558   C562    1.399   .     A
C559   C562    1.399   .     A
C559   H573    1.084   .     S
C560   H574    1.084   .     S
C560   C561    1.399   .     A
C564   C77     1.444   1_556 S
N579   Zn589   2.008   .     S
N580   Zn590   2.008   .     S
O581   Zn589   2.000   .     S
O582   Zn590   2.000   .     S
O583   Zn589   2.001   .     S
O584   Zn590   2.001   .     S
O585   Zn589   2.001   .     S
O586   Zn590   2.001   .     S
O587   Zn589   2.001   .     S
O588   Zn590   2.001   .     S
C595   O638    1.282   .     A
C595   C620    1.420   .     S
C595   O635    1.282   .     A
C596   O637    1.282   .     A
C596   O636    1.282   .     A
C596   C619    1.420   .     S
C597   C615    1.438   .     S
C597   O642    1.287   .     A
C597   O639    1.287   .     A
C598   C616    1.438   .     S
C598   O640    1.287   .     A
C598   O641    1.287   .     A
C599   N634    1.367   .     A
C599   F645    1.355   .     S
C599   C926    1.416   1_545 S
C600   N633    1.367   .     A
C600   F646    1.355   .     S
C600   C763    1.416   .     S
C601   F647    1.355   .     S
C601   N634    1.367   .     A
C601   C924    1.416   1_545 S
C602   N633    1.367   .     A
C602   F648    1.355   .     S
C602   C761    1.416   .     S
C603   C620    1.397   .     A
C603   H629    1.084   .     S
C604   C619    1.397   .     A
C604   H630    1.084   .     S
C604   C498    1.370   1_655 S
C605   C619    1.397   .     A
C605   H631    1.084   .     S
C605   C495    1.370   1_655 S
C606   H632    1.084   .     S
C606   C620    1.397   .     A
C607   C611    1.380   .     A
C607   C617    1.399   .     A
C607   H621    1.083   .     S
C608   H622    1.083   .     S
C608   C618    1.399   .     A
C608   C612    1.381   .     A
C609   C613    1.380   .     A
C609   C618    1.399   .     A
C609   H623    1.083   .     S
C610   C617    1.399   .     A
C610   C614    1.381   .     A
C610   H624    1.083   .     S
C611   H625    1.084   .     S
C611   C615    1.399   .     A
C612   H626    1.084   .     S
C612   C616    1.399   .     A
C613   C616    1.399   .     A
C613   H627    1.084   .     S
C614   H628    1.084   .     S
C614   C615    1.399   .     A
C618   C131    1.444   1_556 S
N633   Zn643   2.008   .     S
N634   Zn644   2.008   .     S
O635   Zn643   2.000   .     S
O636   Zn644   2.000   .     S
O637   Zn643   2.001   .     S
O638   Zn644   2.001   .     S
O639   Zn643   2.001   .     S
O640   Zn644   2.001   .     S
O641   Zn643   2.001   .     S
O642   Zn644   2.001   .     S
C649   O692    1.282   .     A
C649   C674    1.420   .     S
C649   O689    1.282   .     A
C650   O691    1.282   .     A
C650   O690    1.282   .     A
C650   C673    1.420   .     S
C651   C669    1.438   .     S
C651   O696    1.287   .     A
C651   O693    1.287   .     A
C652   C670    1.438   .     S
C652   O694    1.287   .     A
C652   O695    1.287   .     A
C653   N688    1.367   .     A
C653   F699    1.355   .     S
C654   N687    1.367   .     A
C654   F700    1.355   .     S
C654   C817    1.416   .     S
C655   F701    1.355   .     S
C655   N688    1.367   .     A
C656   N687    1.367   .     A
C656   F702    1.355   .     S
C656   C815    1.416   .     S
C657   C674    1.397   .     A
C657   H683    1.084   .     S
C657   C767    1.370   1_455 S
C658   C673    1.397   .     A
C658   H684    1.084   .     S
C658   C714    1.370   .     S
C659   C673    1.397   .     A
C659   H685    1.084   .     S
C659   C711    1.370   .     S
C660   H686    1.084   .     S
C660   C674    1.397   .     A
C660   C766    1.370   1_455 S
C661   C665    1.380   .     A
C661   C671    1.399   .     A
C661   H675    1.083   .     S
C662   H676    1.083   .     S
C662   C672    1.399   .     A
C662   C666    1.381   .     A
C663   C667    1.380   .     A
C663   C672    1.399   .     A
C663   H677    1.083   .     S
C664   C671    1.399   .     A
C664   C668    1.381   .     A
C664   H678    1.083   .     S
C665   H679    1.084   .     S
C665   C669    1.399   .     A
C666   H680    1.084   .     S
C666   C670    1.399   .     A
C667   C670    1.399   .     A
C667   H681    1.084   .     S
C668   H682    1.084   .     S
C668   C669    1.399   .     A
C672   C185    1.444   1_556 S
N687   Zn697   2.008   .     S
N688   Zn698   2.008   .     S
O689   Zn697   2.000   .     S
O690   Zn698   2.000   .     S
O691   Zn697   2.001   .     S
O692   Zn698   2.001   .     S
O693   Zn697   2.001   .     S
O694   Zn698   2.001   .     S
O695   Zn697   2.001   .     S
O696   Zn698   2.001   .     S
C703   O746    1.282   .     A
C703   C728    1.420   .     S
C703   O743    1.282   .     A
C704   O745    1.282   .     A
C704   O744    1.282   .     A
C704   C727    1.420   .     S
C705   C723    1.438   .     S
C705   O750    1.287   .     A
C705   O747    1.287   .     A
C706   C724    1.438   .     S
C706   O748    1.287   .     A
C706   O749    1.287   .     A
C707   N742    1.367   .     A
C707   F753    1.355   .     S
C708   N741    1.367   .     A
C708   F754    1.355   .     S
C708   C871    1.416   .     S
C709   F755    1.355   .     S
C709   N742    1.367   .     A
C710   N741    1.367   .     A
C710   F756    1.355   .     S
C710   C869    1.416   .     S
C711   C728    1.397   .     A
C711   H737    1.084   .     S
C712   C727    1.397   .     A
C712   H738    1.084   .     S
C712   C768    1.370   .     S
C713   C727    1.397   .     A
C713   H739    1.084   .     S
C713   C765    1.370   .     S
C714   H740    1.084   .     S
C714   C728    1.397   .     A
C715   C719    1.380   .     A
C715   C725    1.399   .     A
C715   H729    1.083   .     S
C716   H730    1.083   .     S
C716   C726    1.399   .     A
C716   C720    1.381   .     A
C717   C721    1.380   .     A
C717   C726    1.399   .     A
C717   H731    1.083   .     S
C718   C725    1.399   .     A
C718   C722    1.381   .     A
C718   H732    1.083   .     S
C719   H733    1.084   .     S
C719   C723    1.399   .     A
C720   H734    1.084   .     S
C720   C724    1.399   .     A
C721   C724    1.399   .     A
C721   H735    1.084   .     S
C722   H736    1.084   .     S
C722   C723    1.399   .     A
C726   C239    1.444   1_556 S
N741   Zn751   2.008   .     S
N742   Zn752   2.008   .     S
O743   Zn751   2.000   .     S
O744   Zn752   2.000   .     S
O745   Zn751   2.001   .     S
O746   Zn752   2.001   .     S
O747   Zn751   2.001   .     S
O748   Zn752   2.001   .     S
O749   Zn751   2.001   .     S
O750   Zn752   2.001   .     S
C757   O800    1.282   .     A
C757   C782    1.420   .     S
C757   O797    1.282   .     A
C758   O799    1.282   .     A
C758   O798    1.282   .     A
C758   C781    1.420   .     S
C759   C777    1.438   .     S
C759   O804    1.287   .     A
C759   O801    1.287   .     A
C760   C778    1.438   .     S
C760   O802    1.287   .     A
C760   O803    1.287   .     A
C761   N796    1.367   .     A
C761   F807    1.355   .     S
C762   N795    1.367   .     A
C762   F808    1.355   .     S
C762   C925    1.416   .     S
C763   F809    1.355   .     S
C763   N796    1.367   .     A
C764   N795    1.367   .     A
C764   F810    1.355   .     S
C764   C923    1.416   .     S
C765   C782    1.397   .     A
C765   H791    1.084   .     S
C766   C781    1.397   .     A
C766   H792    1.084   .     S
C766   C660    1.370   1_655 S
C767   C781    1.397   .     A
C767   H793    1.084   .     S
C767   C657    1.370   1_655 S
C768   H794    1.084   .     S
C768   C782    1.397   .     A
C769   C773    1.380   .     A
C769   C779    1.399   .     A
C769   H783    1.083   .     S
C770   H784    1.083   .     S
C770   C780    1.399   .     A
C770   C774    1.381   .     A
C771   C775    1.380   .     A
C771   C780    1.399   .     A
C771   H785    1.083   .     S
C772   C779    1.399   .     A
C772   C776    1.381   .     A
C772   H786    1.083   .     S
C773   H787    1.084   .     S
C773   C777    1.399   .     A
C774   H788    1.084   .     S
C774   C778    1.399   .     A
C775   C778    1.399   .     A
C775   H789    1.084   .     S
C776   H790    1.084   .     S
C776   C777    1.399   .     A
C780   C293    1.444   1_556 S
N795   Zn805   2.008   .     S
N796   Zn806   2.008   .     S
O797   Zn805   2.000   .     S
O798   Zn806   2.000   .     S
O799   Zn805   2.001   .     S
O800   Zn806   2.001   .     S
O801   Zn805   2.001   .     S
O802   Zn806   2.001   .     S
O803   Zn805   2.001   .     S
O804   Zn806   2.001   .     S
C811   O854    1.282   .     A
C811   C836    1.420   .     S
C811   O851    1.282   .     A
C812   O853    1.282   .     A
C812   O852    1.282   .     A
C812   C835    1.420   .     S
C813   C831    1.438   .     S
C813   O858    1.287   .     A
C813   O855    1.287   .     A
C814   C832    1.438   .     S
C814   O856    1.287   .     A
C814   O857    1.287   .     A
C815   N850    1.367   .     A
C815   F861    1.355   .     S
C816   N849    1.367   .     A
C816   F862    1.355   .     S
C816   C493    1.416   1_565 S
C817   F863    1.355   .     S
C817   N850    1.367   .     A
C818   N849    1.367   .     A
C818   F864    1.355   .     S
C818   C491    1.416   1_565 S
C819   C836    1.397   .     A
C819   H845    1.084   .     S
C819   C929    1.370   1_455 S
C820   C835    1.397   .     A
C820   H846    1.084   .     S
C820   C876    1.370   .     S
C821   C835    1.397   .     A
C821   H847    1.084   .     S
C821   C873    1.370   .     S
C822   H848    1.084   .     S
C822   C836    1.397   .     A
C822   C928    1.370   1_455 S
C823   C827    1.380   .     A
C823   C833    1.399   .     A
C823   H837    1.083   .     S
C824   H838    1.083   .     S
C824   C834    1.399   .     A
C824   C828    1.381   .     A
C825   C829    1.380   .     A
C825   C834    1.399   .     A
C825   H839    1.083   .     S
C826   C833    1.399   .     A
C826   C830    1.381   .     A
C826   H840    1.083   .     S
C827   H841    1.084   .     S
C827   C831    1.399   .     A
C828   H842    1.084   .     S
C828   C832    1.399   .     A
C829   C832    1.399   .     A
C829   H843    1.084   .     S
C830   H844    1.084   .     S
C830   C831    1.399   .     A
C834   C347    1.444   1_556 S
N849   Zn859   2.008   .     S
N850   Zn860   2.008   .     S
O851   Zn859   2.000   .     S
O852   Zn860   2.000   .     S
O853   Zn859   2.001   .     S
O854   Zn860   2.001   .     S
O855   Zn859   2.001   .     S
O856   Zn860   2.001   .     S
O857   Zn859   2.001   .     S
O858   Zn860   2.001   .     S
C865   O908    1.282   .     A
C865   C890    1.420   .     S
C865   O905    1.282   .     A
C866   O907    1.282   .     A
C866   O906    1.282   .     A
C866   C889    1.420   .     S
C867   C885    1.438   .     S
C867   O912    1.287   .     A
C867   O909    1.287   .     A
C868   C886    1.438   .     S
C868   O910    1.287   .     A
C868   O911    1.287   .     A
C869   N904    1.367   .     A
C869   F915    1.355   .     S
C870   N903    1.367   .     A
C870   F916    1.355   .     S
C870   C547    1.416   1_565 S
C871   F917    1.355   .     S
C871   N904    1.367   .     A
C872   N903    1.367   .     A
C872   F918    1.355   .     S
C872   C545    1.416   1_565 S
C873   C890    1.397   .     A
C873   H899    1.084   .     S
C874   C889    1.397   .     A
C874   H900    1.084   .     S
C874   C930    1.370   .     S
C875   C889    1.397   .     A
C875   H901    1.084   .     S
C875   C927    1.370   .     S
C876   H902    1.084   .     S
C876   C890    1.397   .     A
C877   C881    1.380   .     A
C877   C887    1.399   .     A
C877   H891    1.083   .     S
C878   H892    1.083   .     S
C878   C888    1.399   .     A
C878   C882    1.381   .     A
C879   C883    1.380   .     A
C879   C888    1.399   .     A
C879   H893    1.083   .     S
C880   C887    1.399   .     A
C880   C884    1.381   .     A
C880   H894    1.083   .     S
C881   H895    1.084   .     S
C881   C885    1.399   .     A
C882   H896    1.084   .     S
C882   C886    1.399   .     A
C883   C886    1.399   .     A
C883   H897    1.084   .     S
C884   H898    1.084   .     S
C884   C885    1.399   .     A
C888   C401    1.444   1_556 S
N903   Zn913   2.008   .     S
N904   Zn914   2.008   .     S
O905   Zn913   2.000   .     S
O906   Zn914   2.000   .     S
O907   Zn913   2.001   .     S
O908   Zn914   2.001   .     S
O909   Zn913   2.001   .     S
O910   Zn914   2.001   .     S
O911   Zn913   2.001   .     S
O912   Zn914   2.001   .     S
C919   O962    1.282   .     A
C919   C944    1.420   .     S
C919   O959    1.282   .     A
C920   O961    1.282   .     A
C920   O960    1.282   .     A
C920   C943    1.420   .     S
C921   C939    1.438   .     S
C921   O966    1.287   .     A
C921   O963    1.287   .     A
C922   C940    1.438   .     S
C922   O964    1.287   .     A
C922   O965    1.287   .     A
C923   N958    1.367   .     A
C923   F969    1.355   .     S
C924   N957    1.367   .     A
C924   F970    1.355   .     S
C924   C601    1.416   1_565 S
C925   F971    1.355   .     S
C925   N958    1.367   .     A
C926   N957    1.367   .     A
C926   F972    1.355   .     S
C926   C599    1.416   1_565 S
C927   C944    1.397   .     A
C927   H953    1.084   .     S
C928   C943    1.397   .     A
C928   H954    1.084   .     S
C928   C822    1.370   1_655 S
C929   C943    1.397   .     A
C929   H955    1.084   .     S
C929   C819    1.370   1_655 S
C930   H956    1.084   .     S
C930   C944    1.397   .     A
C931   C935    1.380   .     A
C931   C941    1.399   .     A
C931   H945    1.083   .     S
C932   H946    1.083   .     S
C932   C942    1.399   .     A
C932   C936    1.381   .     A
C933   C937    1.380   .     A
C933   C942    1.399   .     A
C933   H947    1.083   .     S
C934   C941    1.399   .     A
C934   C938    1.381   .     A
C934   H948    1.083   .     S
C935   H949    1.084   .     S
C935   C939    1.399   .     A
C936   H950    1.084   .     S
C936   C940    1.399   .     A
C937   C940    1.399   .     A
C937   H951    1.084   .     S
C938   H952    1.084   .     S
C938   C939    1.399   .     A
C942   C455    1.444   1_556 S
N957   Zn967   2.008   .     S
N958   Zn968   2.008   .     S
O959   Zn967   2.000   .     S
O960   Zn968   2.000   .     S
O961   Zn967   2.001   .     S
O962   Zn968   2.001   .     S
O963   Zn967   2.001   .     S
O964   Zn968   2.001   .     S
O965   Zn967   2.001   .     S
O966   Zn968   2.001   .     S
