data_str_m3_o2_o10_pcu_sym.174
_audit_creation_date              2020-01-03
_audit_creation_method            'Materials Studio'
_symmetry_space_group_name_H-M    'P1'
_symmetry_Int_Tables_number       1
_symmetry_cell_setting            triclinic
loop_
_symmetry_equiv_pos_as_xyz
  x,y,z
_cell_length_a                    25.7396
_cell_length_b                    29.8906
_cell_length_c                    28.2664
_cell_angle_alpha                 89.4206
_cell_angle_beta                  97.8345
_cell_angle_gamma                 89.8726
loop_
_atom_site_label
_atom_site_type_symbol
_atom_site_fract_x
_atom_site_fract_y
_atom_site_fract_z
_atom_site_U_iso_or_equiv
_atom_site_adp_type
_atom_site_occupancy
C1     C     0.16727   0.16410   0.25034   0.00000  Uiso   1.00
C2     C     0.16800   0.33637   0.24987   0.00000  Uiso   1.00
C3     C     0.12362   0.23516   0.04677   0.00000  Uiso   1.00
C4     C     0.19076   0.21573   0.45127   0.00000  Uiso   1.00
C5     C     0.12405   0.23510   0.09662   0.00000  Uiso   1.00
C6     C     0.19021   0.21603   0.40139   0.00000  Uiso   1.00
C7     C     0.20969   0.26502   0.10761   0.00000  Uiso   1.00
C8     C     0.14347   0.28441   0.39447   0.00000  Uiso   1.00
C9     C     0.21125   0.26531   0.05796   0.00000  Uiso   1.00
C10    C     0.14270   0.28538   0.44421   0.00000  Uiso   1.00
C11    C     0.16748   0.25033   0.02666   0.00000  Uiso   1.00
C12    C     0.16682   0.25060   0.47346   0.00000  Uiso   1.00
C13    C     0.06709   0.24981   0.23796   0.00000  Uiso   1.00
C14    C     0.26623   0.25016   0.26197   0.00000  Uiso   1.00
C15    C     0.01332   0.24157   0.23322   0.00000  Uiso   1.00
C16    C     0.31990   0.25868   0.26635   0.00000  Uiso   1.00
C17    C     0.22278   0.04916   0.25810   0.00000  Uiso   1.00
C18    C     0.18465   0.45488   0.20942   0.00000  Uiso   1.00
C19    C     0.22030   0.09575   0.25852   0.00000  Uiso   1.00
C20    C     0.18518   0.40830   0.20939   0.00000  Uiso   1.00
C21    C     0.17083   0.11664   0.25172   0.00000  Uiso   1.00
C22    C     0.17211   0.38470   0.24978   0.00000  Uiso   1.00
C23    C     0.12446   0.09226   0.24711   0.00000  Uiso   1.00
C24    C     0.16328   0.40766   0.29090   0.00000  Uiso   1.00
C25    C     0.12691   0.04622   0.24769   0.00000  Uiso   1.00
C26    C     0.16597   0.45366   0.29173   0.00000  Uiso   1.00
C27    C     0.17569   0.02492   0.25255   0.00000  Uiso   1.00
C28    C     0.17627   0.47701   0.25119   0.00000  Uiso   1.00
H29    H     0.08661   0.10891   0.24266   0.00000  Uiso   1.00
H30    H     0.15382   0.39016   0.32236   0.00000  Uiso   1.00
H31    H     0.09091   0.02706   0.24357   0.00000  Uiso   1.00
H32    H     0.15898   0.47124   0.32364   0.00000  Uiso   1.00
H33    H     0.08921   0.22339   0.02399   0.00000  Uiso   1.00
H34    H     0.20980   0.18843   0.47244   0.00000  Uiso   1.00
H35    H     0.09011   0.22311   0.11156   0.00000  Uiso   1.00
H36    H     0.20880   0.18901   0.38481   0.00000  Uiso   1.00
H37    H     0.24317   0.27688   0.13137   0.00000  Uiso   1.00
H38    H     0.12558   0.31144   0.37230   0.00000  Uiso   1.00
N39    N     0.16667   0.24999   0.12624   0.00000  Uiso   1.00
N40    N     0.16667   0.25001   0.37377   0.00000  Uiso   1.00
O41    O     0.16667   0.18453   0.28974   0.00000  Uiso   1.00
O42    O     0.16666   0.31546   0.21026   0.00000  Uiso   1.00
O43    O     0.16667   0.18453   0.21026   0.00000  Uiso   1.00
O44    O     0.16666   0.31547   0.28974   0.00000  Uiso   1.00
O45    O     0.09058   0.25000   0.28045   0.00000  Uiso   1.00
O46    O     0.24275   0.25000   0.21956   0.00000  Uiso   1.00
O47    O     0.09058   0.24999   0.20097   0.00000  Uiso   1.00
O48    O     0.24275   0.25000   0.29904   0.00000  Uiso   1.00
Zn49   Zn    0.16667   0.25000   0.30307   0.00000  Uiso   1.00
Zn50   Zn    0.16667   0.24999   0.19693   0.00000  Uiso   1.00
I51    I     0.32027   0.19095   0.18198   0.00000  Uiso   1.00
I52    I     0.01233   0.31104   0.31545   0.00000  Uiso   1.00
I53    I     0.29731   0.01639   0.26514   0.00000  Uiso   1.00
I54    I     0.19439   0.49069   0.14550   0.00000  Uiso   1.00
O55    O     0.26568   0.12081   0.26075   0.00000  Uiso   1.00
C56    C     0.28415   0.12976   0.30900   0.00000  Uiso   1.00
H57    H     0.25599   0.15074   0.32547   0.00000  Uiso   1.00
H58    H     0.32130   0.14878   0.31056   0.00000  Uiso   1.00
H59    H     0.29269   0.09845   0.33027   0.00000  Uiso   1.00
O60    O     0.19614   0.38626   0.16908   0.00000  Uiso   1.00
C61    C     0.25052   0.37736   0.17427   0.00000  Uiso   1.00
H62    H     0.25973   0.36102   0.14134   0.00000  Uiso   1.00
H63    H     0.26267   0.35404   0.20475   0.00000  Uiso   1.00
H64    H     0.27390   0.40869   0.17875   0.00000  Uiso   1.00
I65    I     0.28003   0.28915   0.03267   0.00000  Uiso   1.00
I66    I     0.10562   0.34023   0.47295   0.00000  Uiso   1.00
C67    C     0.50060   0.16410   0.25034   0.00000  Uiso   1.00
C68    C     0.50133   0.33637   0.24987   0.00000  Uiso   1.00
C69    C     0.45695   0.23516   0.04677   0.00000  Uiso   1.00
C70    C     0.52410   0.21573   0.45127   0.00000  Uiso   1.00
C71    C     0.45738   0.23510   0.09662   0.00000  Uiso   1.00
C72    C     0.52354   0.21603   0.40139   0.00000  Uiso   1.00
C73    C     0.54303   0.26502   0.10761   0.00000  Uiso   1.00
C74    C     0.47680   0.28441   0.39447   0.00000  Uiso   1.00
C75    C     0.54458   0.26531   0.05796   0.00000  Uiso   1.00
C76    C     0.47603   0.28538   0.44421   0.00000  Uiso   1.00
C77    C     0.50082   0.25033   0.02666   0.00000  Uiso   1.00
C78    C     0.50015   0.25060   0.47346   0.00000  Uiso   1.00
C79    C     0.40043   0.24981   0.23796   0.00000  Uiso   1.00
C80    C     0.59956   0.25016   0.26197   0.00000  Uiso   1.00
C81    C     0.34665   0.24157   0.23322   0.00000  Uiso   1.00
C82    C     0.65323   0.25868   0.26635   0.00000  Uiso   1.00
C83    C     0.55612   0.04916   0.25810   0.00000  Uiso   1.00
C84    C     0.51799   0.45488   0.20942   0.00000  Uiso   1.00
C85    C     0.55363   0.09575   0.25852   0.00000  Uiso   1.00
C86    C     0.51852   0.40830   0.20939   0.00000  Uiso   1.00
C87    C     0.50416   0.11664   0.25172   0.00000  Uiso   1.00
C88    C     0.50544   0.38470   0.24978   0.00000  Uiso   1.00
C89    C     0.45779   0.09226   0.24711   0.00000  Uiso   1.00
C90    C     0.49662   0.40766   0.29090   0.00000  Uiso   1.00
C91    C     0.46024   0.04622   0.24769   0.00000  Uiso   1.00
C92    C     0.49930   0.45366   0.29173   0.00000  Uiso   1.00
C93    C     0.50903   0.02492   0.25255   0.00000  Uiso   1.00
C94    C     0.50961   0.47701   0.25119   0.00000  Uiso   1.00
H95    H     0.41994   0.10891   0.24266   0.00000  Uiso   1.00
H96    H     0.48716   0.39016   0.32236   0.00000  Uiso   1.00
H97    H     0.42424   0.02706   0.24357   0.00000  Uiso   1.00
H98    H     0.49231   0.47124   0.32364   0.00000  Uiso   1.00
H99    H     0.42255   0.22339   0.02399   0.00000  Uiso   1.00
H100   H     0.54313   0.18843   0.47244   0.00000  Uiso   1.00
H101   H     0.42344   0.22311   0.11156   0.00000  Uiso   1.00
H102   H     0.54213   0.18901   0.38481   0.00000  Uiso   1.00
H103   H     0.57651   0.27688   0.13137   0.00000  Uiso   1.00
H104   H     0.45891   0.31144   0.37230   0.00000  Uiso   1.00
N105   N     0.50000   0.24999   0.12624   0.00000  Uiso   1.00
N106   N     0.50000   0.25001   0.37377   0.00000  Uiso   1.00
O107   O     0.50000   0.18453   0.28974   0.00000  Uiso   1.00
O108   O     0.50000   0.31546   0.21026   0.00000  Uiso   1.00
O109   O     0.50000   0.18453   0.21026   0.00000  Uiso   1.00
O110   O     0.50000   0.31547   0.28974   0.00000  Uiso   1.00
O111   O     0.42392   0.25000   0.28045   0.00000  Uiso   1.00
O112   O     0.57608   0.25000   0.21956   0.00000  Uiso   1.00
O113   O     0.42392   0.24999   0.20097   0.00000  Uiso   1.00
O114   O     0.57608   0.25000   0.29904   0.00000  Uiso   1.00
Zn115  Zn    0.50000   0.25000   0.30307   0.00000  Uiso   1.00
Zn116  Zn    0.50000   0.24999   0.19693   0.00000  Uiso   1.00
I117   I     0.65360   0.19095   0.18198   0.00000  Uiso   1.00
I118   I     0.34567   0.31104   0.31545   0.00000  Uiso   1.00
I119   I     0.63064   0.01639   0.26514   0.00000  Uiso   1.00
I120   I     0.52773   0.49069   0.14550   0.00000  Uiso   1.00
O121   O     0.59901   0.12081   0.26075   0.00000  Uiso   1.00
C122   C     0.61749   0.12976   0.30900   0.00000  Uiso   1.00
H123   H     0.58933   0.15074   0.32547   0.00000  Uiso   1.00
H124   H     0.65464   0.14878   0.31056   0.00000  Uiso   1.00
H125   H     0.62603   0.09845   0.33027   0.00000  Uiso   1.00
O126   O     0.52947   0.38626   0.16908   0.00000  Uiso   1.00
C127   C     0.58385   0.37736   0.17427   0.00000  Uiso   1.00
H128   H     0.59306   0.36102   0.14134   0.00000  Uiso   1.00
H129   H     0.59600   0.35404   0.20475   0.00000  Uiso   1.00
H130   H     0.60723   0.40869   0.17875   0.00000  Uiso   1.00
I131   I     0.61336   0.28915   0.03267   0.00000  Uiso   1.00
I132   I     0.43895   0.34023   0.47295   0.00000  Uiso   1.00
C133   C     0.83394   0.16410   0.25034   0.00000  Uiso   1.00
C134   C     0.83466   0.33637   0.24987   0.00000  Uiso   1.00
C135   C     0.79029   0.23516   0.04677   0.00000  Uiso   1.00
C136   C     0.85743   0.21573   0.45127   0.00000  Uiso   1.00
C137   C     0.79072   0.23510   0.09662   0.00000  Uiso   1.00
C138   C     0.85687   0.21603   0.40139   0.00000  Uiso   1.00
C139   C     0.87636   0.26502   0.10761   0.00000  Uiso   1.00
C140   C     0.81013   0.28441   0.39447   0.00000  Uiso   1.00
C141   C     0.87791   0.26531   0.05796   0.00000  Uiso   1.00
C142   C     0.80937   0.28538   0.44421   0.00000  Uiso   1.00
C143   C     0.83415   0.25033   0.02666   0.00000  Uiso   1.00
C144   C     0.83348   0.25060   0.47346   0.00000  Uiso   1.00
C145   C     0.73376   0.24981   0.23796   0.00000  Uiso   1.00
C146   C     0.93289   0.25016   0.26197   0.00000  Uiso   1.00
C147   C     0.67998   0.24157   0.23322   0.00000  Uiso   1.00
C148   C     0.98656   0.25868   0.26635   0.00000  Uiso   1.00
C149   C     0.88945   0.04916   0.25810   0.00000  Uiso   1.00
C150   C     0.85132   0.45488   0.20942   0.00000  Uiso   1.00
C151   C     0.88696   0.09575   0.25852   0.00000  Uiso   1.00
C152   C     0.85185   0.40830   0.20939   0.00000  Uiso   1.00
C153   C     0.83750   0.11664   0.25172   0.00000  Uiso   1.00
C154   C     0.83877   0.38470   0.24978   0.00000  Uiso   1.00
C155   C     0.79113   0.09226   0.24711   0.00000  Uiso   1.00
C156   C     0.82995   0.40766   0.29090   0.00000  Uiso   1.00
C157   C     0.79358   0.04622   0.24769   0.00000  Uiso   1.00
C158   C     0.83264   0.45366   0.29173   0.00000  Uiso   1.00
C159   C     0.84236   0.02492   0.25255   0.00000  Uiso   1.00
C160   C     0.84294   0.47701   0.25119   0.00000  Uiso   1.00
H161   H     0.75328   0.10891   0.24266   0.00000  Uiso   1.00
H162   H     0.82049   0.39016   0.32236   0.00000  Uiso   1.00
H163   H     0.75757   0.02706   0.24357   0.00000  Uiso   1.00
H164   H     0.82565   0.47124   0.32364   0.00000  Uiso   1.00
H165   H     0.75588   0.22339   0.02399   0.00000  Uiso   1.00
H166   H     0.87646   0.18843   0.47244   0.00000  Uiso   1.00
H167   H     0.75677   0.22311   0.11156   0.00000  Uiso   1.00
H168   H     0.87547   0.18901   0.38481   0.00000  Uiso   1.00
H169   H     0.90984   0.27688   0.13137   0.00000  Uiso   1.00
H170   H     0.79224   0.31144   0.37230   0.00000  Uiso   1.00
N171   N     0.83333   0.24999   0.12624   0.00000  Uiso   1.00
N172   N     0.83333   0.25001   0.37377   0.00000  Uiso   1.00
O173   O     0.83334   0.18453   0.28974   0.00000  Uiso   1.00
O174   O     0.83333   0.31546   0.21026   0.00000  Uiso   1.00
O175   O     0.83334   0.18453   0.21026   0.00000  Uiso   1.00
O176   O     0.83333   0.31547   0.28974   0.00000  Uiso   1.00
O177   O     0.75725   0.25000   0.28045   0.00000  Uiso   1.00
O178   O     0.90942   0.25000   0.21956   0.00000  Uiso   1.00
O179   O     0.75725   0.24999   0.20097   0.00000  Uiso   1.00
O180   O     0.90942   0.25000   0.29904   0.00000  Uiso   1.00
Zn181  Zn    0.83333   0.25000   0.30307   0.00000  Uiso   1.00
Zn182  Zn    0.83333   0.24999   0.19693   0.00000  Uiso   1.00
I183   I     0.98694   0.19095   0.18198   0.00000  Uiso   1.00
I184   I     0.67900   0.31104   0.31545   0.00000  Uiso   1.00
I185   I     0.96397   0.01639   0.26514   0.00000  Uiso   1.00
I186   I     0.86106   0.49069   0.14550   0.00000  Uiso   1.00
O187   O     0.93235   0.12081   0.26075   0.00000  Uiso   1.00
C188   C     0.95082   0.12976   0.30900   0.00000  Uiso   1.00
H189   H     0.92266   0.15074   0.32547   0.00000  Uiso   1.00
H190   H     0.98797   0.14878   0.31056   0.00000  Uiso   1.00
H191   H     0.95936   0.09845   0.33027   0.00000  Uiso   1.00
O192   O     0.86280   0.38626   0.16908   0.00000  Uiso   1.00
C193   C     0.91718   0.37736   0.17427   0.00000  Uiso   1.00
H194   H     0.92639   0.36102   0.14134   0.00000  Uiso   1.00
H195   H     0.92934   0.35404   0.20475   0.00000  Uiso   1.00
H196   H     0.94056   0.40869   0.17875   0.00000  Uiso   1.00
I197   I     0.94670   0.28915   0.03267   0.00000  Uiso   1.00
I198   I     0.77229   0.34023   0.47295   0.00000  Uiso   1.00
C199   C     0.16727   0.66410   0.25034   0.00000  Uiso   1.00
C200   C     0.16800   0.83637   0.24987   0.00000  Uiso   1.00
C201   C     0.12362   0.73516   0.04677   0.00000  Uiso   1.00
C202   C     0.19076   0.71573   0.45127   0.00000  Uiso   1.00
C203   C     0.12405   0.73510   0.09662   0.00000  Uiso   1.00
C204   C     0.19021   0.71603   0.40139   0.00000  Uiso   1.00
C205   C     0.20969   0.76502   0.10761   0.00000  Uiso   1.00
C206   C     0.14347   0.78441   0.39447   0.00000  Uiso   1.00
C207   C     0.21125   0.76531   0.05796   0.00000  Uiso   1.00
C208   C     0.14270   0.78538   0.44421   0.00000  Uiso   1.00
C209   C     0.16748   0.75033   0.02666   0.00000  Uiso   1.00
C210   C     0.16682   0.75060   0.47346   0.00000  Uiso   1.00
C211   C     0.06709   0.74981   0.23796   0.00000  Uiso   1.00
C212   C     0.26623   0.75016   0.26197   0.00000  Uiso   1.00
C213   C     0.01332   0.74157   0.23322   0.00000  Uiso   1.00
C214   C     0.31990   0.75868   0.26635   0.00000  Uiso   1.00
C215   C     0.22278   0.54916   0.25810   0.00000  Uiso   1.00
C216   C     0.18465   0.95488   0.20942   0.00000  Uiso   1.00
C217   C     0.22030   0.59575   0.25852   0.00000  Uiso   1.00
C218   C     0.18518   0.90830   0.20939   0.00000  Uiso   1.00
C219   C     0.17083   0.61664   0.25172   0.00000  Uiso   1.00
C220   C     0.17211   0.88470   0.24978   0.00000  Uiso   1.00
C221   C     0.12446   0.59226   0.24711   0.00000  Uiso   1.00
C222   C     0.16328   0.90766   0.29090   0.00000  Uiso   1.00
C223   C     0.12691   0.54622   0.24769   0.00000  Uiso   1.00
C224   C     0.16597   0.95366   0.29173   0.00000  Uiso   1.00
C225   C     0.17569   0.52492   0.25255   0.00000  Uiso   1.00
C226   C     0.17627   0.97701   0.25119   0.00000  Uiso   1.00
H227   H     0.08661   0.60891   0.24266   0.00000  Uiso   1.00
H228   H     0.15382   0.89016   0.32236   0.00000  Uiso   1.00
H229   H     0.09091   0.52706   0.24357   0.00000  Uiso   1.00
H230   H     0.15898   0.97124   0.32364   0.00000  Uiso   1.00
H231   H     0.08921   0.72339   0.02399   0.00000  Uiso   1.00
H232   H     0.20980   0.68843   0.47244   0.00000  Uiso   1.00
H233   H     0.09011   0.72311   0.11156   0.00000  Uiso   1.00
H234   H     0.20880   0.68901   0.38481   0.00000  Uiso   1.00
H235   H     0.24317   0.77688   0.13137   0.00000  Uiso   1.00
H236   H     0.12558   0.81144   0.37230   0.00000  Uiso   1.00
N237   N     0.16667   0.74999   0.12624   0.00000  Uiso   1.00
N238   N     0.16667   0.75001   0.37377   0.00000  Uiso   1.00
O239   O     0.16667   0.68453   0.28974   0.00000  Uiso   1.00
O240   O     0.16666   0.81546   0.21026   0.00000  Uiso   1.00
O241   O     0.16667   0.68453   0.21026   0.00000  Uiso   1.00
O242   O     0.16666   0.81547   0.28974   0.00000  Uiso   1.00
O243   O     0.09058   0.75000   0.28045   0.00000  Uiso   1.00
O244   O     0.24275   0.75000   0.21956   0.00000  Uiso   1.00
O245   O     0.09058   0.74999   0.20097   0.00000  Uiso   1.00
O246   O     0.24275   0.75000   0.29904   0.00000  Uiso   1.00
Zn247  Zn    0.16667   0.75000   0.30307   0.00000  Uiso   1.00
Zn248  Zn    0.16667   0.74999   0.19693   0.00000  Uiso   1.00
I249   I     0.32027   0.69095   0.18198   0.00000  Uiso   1.00
I250   I     0.01233   0.81104   0.31545   0.00000  Uiso   1.00
I251   I     0.29731   0.51639   0.26514   0.00000  Uiso   1.00
I252   I     0.19439   0.99069   0.14550   0.00000  Uiso   1.00
O253   O     0.26568   0.62081   0.26075   0.00000  Uiso   1.00
C254   C     0.28415   0.62976   0.30900   0.00000  Uiso   1.00
H255   H     0.25599   0.65074   0.32547   0.00000  Uiso   1.00
H256   H     0.32130   0.64878   0.31056   0.00000  Uiso   1.00
H257   H     0.29269   0.59845   0.33027   0.00000  Uiso   1.00
O258   O     0.19614   0.88626   0.16908   0.00000  Uiso   1.00
C259   C     0.25052   0.87736   0.17427   0.00000  Uiso   1.00
H260   H     0.25973   0.86102   0.14134   0.00000  Uiso   1.00
H261   H     0.26267   0.85404   0.20475   0.00000  Uiso   1.00
H262   H     0.27390   0.90869   0.17875   0.00000  Uiso   1.00
I263   I     0.28003   0.78915   0.03267   0.00000  Uiso   1.00
I264   I     0.10562   0.84023   0.47295   0.00000  Uiso   1.00
C265   C     0.50060   0.66410   0.25034   0.00000  Uiso   1.00
C266   C     0.50133   0.83637   0.24987   0.00000  Uiso   1.00
C267   C     0.45695   0.73516   0.04677   0.00000  Uiso   1.00
C268   C     0.52410   0.71573   0.45127   0.00000  Uiso   1.00
C269   C     0.45738   0.73510   0.09662   0.00000  Uiso   1.00
C270   C     0.52354   0.71603   0.40139   0.00000  Uiso   1.00
C271   C     0.54303   0.76502   0.10761   0.00000  Uiso   1.00
C272   C     0.47680   0.78441   0.39447   0.00000  Uiso   1.00
C273   C     0.54458   0.76531   0.05796   0.00000  Uiso   1.00
C274   C     0.47603   0.78538   0.44421   0.00000  Uiso   1.00
C275   C     0.50082   0.75033   0.02666   0.00000  Uiso   1.00
C276   C     0.50015   0.75060   0.47346   0.00000  Uiso   1.00
C277   C     0.40043   0.74981   0.23796   0.00000  Uiso   1.00
C278   C     0.59956   0.75016   0.26197   0.00000  Uiso   1.00
C279   C     0.34665   0.74157   0.23322   0.00000  Uiso   1.00
C280   C     0.65323   0.75868   0.26635   0.00000  Uiso   1.00
C281   C     0.55612   0.54916   0.25810   0.00000  Uiso   1.00
C282   C     0.51799   0.95488   0.20942   0.00000  Uiso   1.00
C283   C     0.55363   0.59575   0.25852   0.00000  Uiso   1.00
C284   C     0.51852   0.90830   0.20939   0.00000  Uiso   1.00
C285   C     0.50416   0.61664   0.25172   0.00000  Uiso   1.00
C286   C     0.50544   0.88470   0.24978   0.00000  Uiso   1.00
C287   C     0.45779   0.59226   0.24711   0.00000  Uiso   1.00
C288   C     0.49662   0.90766   0.29090   0.00000  Uiso   1.00
C289   C     0.46024   0.54622   0.24769   0.00000  Uiso   1.00
C290   C     0.49930   0.95366   0.29173   0.00000  Uiso   1.00
C291   C     0.50903   0.52492   0.25255   0.00000  Uiso   1.00
C292   C     0.50961   0.97701   0.25119   0.00000  Uiso   1.00
H293   H     0.41994   0.60891   0.24266   0.00000  Uiso   1.00
H294   H     0.48716   0.89016   0.32236   0.00000  Uiso   1.00
H295   H     0.42424   0.52706   0.24357   0.00000  Uiso   1.00
H296   H     0.49231   0.97124   0.32364   0.00000  Uiso   1.00
H297   H     0.42255   0.72339   0.02399   0.00000  Uiso   1.00
H298   H     0.54313   0.68843   0.47244   0.00000  Uiso   1.00
H299   H     0.42344   0.72311   0.11156   0.00000  Uiso   1.00
H300   H     0.54213   0.68901   0.38481   0.00000  Uiso   1.00
H301   H     0.57651   0.77688   0.13137   0.00000  Uiso   1.00
H302   H     0.45891   0.81144   0.37230   0.00000  Uiso   1.00
N303   N     0.50000   0.74999   0.12624   0.00000  Uiso   1.00
N304   N     0.50000   0.75001   0.37377   0.00000  Uiso   1.00
O305   O     0.50000   0.68453   0.28974   0.00000  Uiso   1.00
O306   O     0.50000   0.81546   0.21026   0.00000  Uiso   1.00
O307   O     0.50000   0.68453   0.21026   0.00000  Uiso   1.00
O308   O     0.50000   0.81547   0.28974   0.00000  Uiso   1.00
O309   O     0.42392   0.75000   0.28045   0.00000  Uiso   1.00
O310   O     0.57608   0.75000   0.21956   0.00000  Uiso   1.00
O311   O     0.42392   0.74999   0.20097   0.00000  Uiso   1.00
O312   O     0.57608   0.75000   0.29904   0.00000  Uiso   1.00
Zn313  Zn    0.50000   0.75000   0.30307   0.00000  Uiso   1.00
Zn314  Zn    0.50000   0.74999   0.19693   0.00000  Uiso   1.00
I315   I     0.65360   0.69095   0.18198   0.00000  Uiso   1.00
I316   I     0.34567   0.81104   0.31545   0.00000  Uiso   1.00
I317   I     0.63064   0.51639   0.26514   0.00000  Uiso   1.00
I318   I     0.52773   0.99069   0.14550   0.00000  Uiso   1.00
O319   O     0.59901   0.62081   0.26075   0.00000  Uiso   1.00
C320   C     0.61749   0.62976   0.30900   0.00000  Uiso   1.00
H321   H     0.58933   0.65074   0.32547   0.00000  Uiso   1.00
H322   H     0.65464   0.64878   0.31056   0.00000  Uiso   1.00
H323   H     0.62603   0.59845   0.33027   0.00000  Uiso   1.00
O324   O     0.52947   0.88626   0.16908   0.00000  Uiso   1.00
C325   C     0.58385   0.87736   0.17427   0.00000  Uiso   1.00
H326   H     0.59306   0.86102   0.14134   0.00000  Uiso   1.00
H327   H     0.59600   0.85404   0.20475   0.00000  Uiso   1.00
H328   H     0.60723   0.90869   0.17875   0.00000  Uiso   1.00
I329   I     0.61336   0.78915   0.03267   0.00000  Uiso   1.00
I330   I     0.43895   0.84023   0.47295   0.00000  Uiso   1.00
C331   C     0.83394   0.66410   0.25034   0.00000  Uiso   1.00
C332   C     0.83466   0.83637   0.24987   0.00000  Uiso   1.00
C333   C     0.79029   0.73516   0.04677   0.00000  Uiso   1.00
C334   C     0.85743   0.71573   0.45127   0.00000  Uiso   1.00
C335   C     0.79072   0.73510   0.09662   0.00000  Uiso   1.00
C336   C     0.85687   0.71603   0.40139   0.00000  Uiso   1.00
C337   C     0.87636   0.76502   0.10761   0.00000  Uiso   1.00
C338   C     0.81013   0.78441   0.39447   0.00000  Uiso   1.00
C339   C     0.87791   0.76531   0.05796   0.00000  Uiso   1.00
C340   C     0.80937   0.78538   0.44421   0.00000  Uiso   1.00
C341   C     0.83415   0.75033   0.02666   0.00000  Uiso   1.00
C342   C     0.83348   0.75060   0.47346   0.00000  Uiso   1.00
C343   C     0.73376   0.74981   0.23796   0.00000  Uiso   1.00
C344   C     0.93289   0.75016   0.26197   0.00000  Uiso   1.00
C345   C     0.67998   0.74157   0.23322   0.00000  Uiso   1.00
C346   C     0.98656   0.75868   0.26635   0.00000  Uiso   1.00
C347   C     0.88945   0.54916   0.25810   0.00000  Uiso   1.00
C348   C     0.85132   0.95488   0.20942   0.00000  Uiso   1.00
C349   C     0.88696   0.59575   0.25852   0.00000  Uiso   1.00
C350   C     0.85185   0.90830   0.20939   0.00000  Uiso   1.00
C351   C     0.83750   0.61664   0.25172   0.00000  Uiso   1.00
C352   C     0.83877   0.88470   0.24978   0.00000  Uiso   1.00
C353   C     0.79113   0.59226   0.24711   0.00000  Uiso   1.00
C354   C     0.82995   0.90766   0.29090   0.00000  Uiso   1.00
C355   C     0.79358   0.54622   0.24769   0.00000  Uiso   1.00
C356   C     0.83264   0.95366   0.29173   0.00000  Uiso   1.00
C357   C     0.84236   0.52492   0.25255   0.00000  Uiso   1.00
C358   C     0.84294   0.97701   0.25119   0.00000  Uiso   1.00
H359   H     0.75328   0.60891   0.24266   0.00000  Uiso   1.00
H360   H     0.82049   0.89016   0.32236   0.00000  Uiso   1.00
H361   H     0.75757   0.52706   0.24357   0.00000  Uiso   1.00
H362   H     0.82565   0.97124   0.32364   0.00000  Uiso   1.00
H363   H     0.75588   0.72339   0.02399   0.00000  Uiso   1.00
H364   H     0.87646   0.68843   0.47244   0.00000  Uiso   1.00
H365   H     0.75677   0.72311   0.11156   0.00000  Uiso   1.00
H366   H     0.87547   0.68901   0.38481   0.00000  Uiso   1.00
H367   H     0.90984   0.77688   0.13137   0.00000  Uiso   1.00
H368   H     0.79224   0.81144   0.37230   0.00000  Uiso   1.00
N369   N     0.83333   0.74999   0.12624   0.00000  Uiso   1.00
N370   N     0.83333   0.75001   0.37377   0.00000  Uiso   1.00
O371   O     0.83334   0.68453   0.28974   0.00000  Uiso   1.00
O372   O     0.83333   0.81546   0.21026   0.00000  Uiso   1.00
O373   O     0.83334   0.68453   0.21026   0.00000  Uiso   1.00
O374   O     0.83333   0.81547   0.28974   0.00000  Uiso   1.00
O375   O     0.75725   0.75000   0.28045   0.00000  Uiso   1.00
O376   O     0.90942   0.75000   0.21956   0.00000  Uiso   1.00
O377   O     0.75725   0.74999   0.20097   0.00000  Uiso   1.00
O378   O     0.90942   0.75000   0.29904   0.00000  Uiso   1.00
Zn379  Zn    0.83333   0.75000   0.30307   0.00000  Uiso   1.00
Zn380  Zn    0.83333   0.74999   0.19693   0.00000  Uiso   1.00
I381   I     0.98694   0.69095   0.18198   0.00000  Uiso   1.00
I382   I     0.67900   0.81104   0.31545   0.00000  Uiso   1.00
I383   I     0.96397   0.51639   0.26514   0.00000  Uiso   1.00
I384   I     0.86106   0.99069   0.14550   0.00000  Uiso   1.00
O385   O     0.93235   0.62081   0.26075   0.00000  Uiso   1.00
C386   C     0.95082   0.62976   0.30900   0.00000  Uiso   1.00
H387   H     0.92266   0.65074   0.32547   0.00000  Uiso   1.00
H388   H     0.98797   0.64878   0.31056   0.00000  Uiso   1.00
H389   H     0.95936   0.59845   0.33027   0.00000  Uiso   1.00
O390   O     0.86280   0.88626   0.16908   0.00000  Uiso   1.00
C391   C     0.91718   0.87736   0.17427   0.00000  Uiso   1.00
H392   H     0.92639   0.86102   0.14134   0.00000  Uiso   1.00
H393   H     0.92934   0.85404   0.20475   0.00000  Uiso   1.00
H394   H     0.94056   0.90869   0.17875   0.00000  Uiso   1.00
I395   I     0.94670   0.78915   0.03267   0.00000  Uiso   1.00
I396   I     0.77229   0.84023   0.47295   0.00000  Uiso   1.00
C397   C     0.16727   0.16410   0.75034   0.00000  Uiso   1.00
C398   C     0.16800   0.33637   0.74987   0.00000  Uiso   1.00
C399   C     0.12362   0.23516   0.54677   0.00000  Uiso   1.00
C400   C     0.19076   0.21573   0.95127   0.00000  Uiso   1.00
C401   C     0.12405   0.23510   0.59662   0.00000  Uiso   1.00
C402   C     0.19021   0.21603   0.90139   0.00000  Uiso   1.00
C403   C     0.20969   0.26502   0.60761   0.00000  Uiso   1.00
C404   C     0.14347   0.28441   0.89447   0.00000  Uiso   1.00
C405   C     0.21125   0.26531   0.55796   0.00000  Uiso   1.00
C406   C     0.14270   0.28538   0.94421   0.00000  Uiso   1.00
C407   C     0.16748   0.25033   0.52666   0.00000  Uiso   1.00
C408   C     0.16682   0.25060   0.97346   0.00000  Uiso   1.00
C409   C     0.06709   0.24981   0.73796   0.00000  Uiso   1.00
C410   C     0.26623   0.25016   0.76197   0.00000  Uiso   1.00
C411   C     0.01332   0.24157   0.73322   0.00000  Uiso   1.00
C412   C     0.31990   0.25868   0.76635   0.00000  Uiso   1.00
C413   C     0.22278   0.04916   0.75810   0.00000  Uiso   1.00
C414   C     0.18465   0.45488   0.70942   0.00000  Uiso   1.00
C415   C     0.22030   0.09575   0.75852   0.00000  Uiso   1.00
C416   C     0.18518   0.40830   0.70939   0.00000  Uiso   1.00
C417   C     0.17083   0.11664   0.75172   0.00000  Uiso   1.00
C418   C     0.17211   0.38470   0.74978   0.00000  Uiso   1.00
C419   C     0.12446   0.09226   0.74711   0.00000  Uiso   1.00
C420   C     0.16328   0.40766   0.79090   0.00000  Uiso   1.00
C421   C     0.12691   0.04622   0.74769   0.00000  Uiso   1.00
C422   C     0.16597   0.45366   0.79173   0.00000  Uiso   1.00
C423   C     0.17569   0.02492   0.75255   0.00000  Uiso   1.00
C424   C     0.17627   0.47701   0.75119   0.00000  Uiso   1.00
H425   H     0.08661   0.10891   0.74266   0.00000  Uiso   1.00
H426   H     0.15382   0.39016   0.82236   0.00000  Uiso   1.00
H427   H     0.09091   0.02706   0.74357   0.00000  Uiso   1.00
H428   H     0.15898   0.47124   0.82364   0.00000  Uiso   1.00
H429   H     0.08921   0.22339   0.52399   0.00000  Uiso   1.00
H430   H     0.20980   0.18843   0.97244   0.00000  Uiso   1.00
H431   H     0.09011   0.22311   0.61156   0.00000  Uiso   1.00
H432   H     0.20880   0.18901   0.88481   0.00000  Uiso   1.00
H433   H     0.24317   0.27688   0.63137   0.00000  Uiso   1.00
H434   H     0.12558   0.31144   0.87230   0.00000  Uiso   1.00
N435   N     0.16667   0.24999   0.62624   0.00000  Uiso   1.00
N436   N     0.16667   0.25001   0.87377   0.00000  Uiso   1.00
O437   O     0.16667   0.18453   0.78974   0.00000  Uiso   1.00
O438   O     0.16666   0.31546   0.71026   0.00000  Uiso   1.00
O439   O     0.16667   0.18453   0.71026   0.00000  Uiso   1.00
O440   O     0.16666   0.31547   0.78974   0.00000  Uiso   1.00
O441   O     0.09058   0.25000   0.78045   0.00000  Uiso   1.00
O442   O     0.24275   0.25000   0.71956   0.00000  Uiso   1.00
O443   O     0.09058   0.24999   0.70097   0.00000  Uiso   1.00
O444   O     0.24275   0.25000   0.79904   0.00000  Uiso   1.00
Zn445  Zn    0.16667   0.25000   0.80307   0.00000  Uiso   1.00
Zn446  Zn    0.16667   0.24999   0.69693   0.00000  Uiso   1.00
I447   I     0.32027   0.19095   0.68198   0.00000  Uiso   1.00
I448   I     0.01233   0.31104   0.81545   0.00000  Uiso   1.00
I449   I     0.29731   0.01639   0.76514   0.00000  Uiso   1.00
I450   I     0.19439   0.49069   0.64550   0.00000  Uiso   1.00
O451   O     0.26568   0.12081   0.76075   0.00000  Uiso   1.00
C452   C     0.28415   0.12976   0.80900   0.00000  Uiso   1.00
H453   H     0.25599   0.15074   0.82547   0.00000  Uiso   1.00
H454   H     0.32130   0.14878   0.81056   0.00000  Uiso   1.00
H455   H     0.29269   0.09845   0.83027   0.00000  Uiso   1.00
O456   O     0.19614   0.38626   0.66908   0.00000  Uiso   1.00
C457   C     0.25052   0.37736   0.67427   0.00000  Uiso   1.00
H458   H     0.25973   0.36102   0.64134   0.00000  Uiso   1.00
H459   H     0.26267   0.35404   0.70475   0.00000  Uiso   1.00
H460   H     0.27390   0.40869   0.67875   0.00000  Uiso   1.00
I461   I     0.28003   0.28915   0.53267   0.00000  Uiso   1.00
I462   I     0.10562   0.34023   0.97295   0.00000  Uiso   1.00
C463   C     0.50060   0.16410   0.75034   0.00000  Uiso   1.00
C464   C     0.50133   0.33637   0.74987   0.00000  Uiso   1.00
C465   C     0.45695   0.23516   0.54677   0.00000  Uiso   1.00
C466   C     0.52410   0.21573   0.95127   0.00000  Uiso   1.00
C467   C     0.45738   0.23510   0.59662   0.00000  Uiso   1.00
C468   C     0.52354   0.21603   0.90139   0.00000  Uiso   1.00
C469   C     0.54303   0.26502   0.60761   0.00000  Uiso   1.00
C470   C     0.47680   0.28441   0.89447   0.00000  Uiso   1.00
C471   C     0.54458   0.26531   0.55796   0.00000  Uiso   1.00
C472   C     0.47603   0.28538   0.94421   0.00000  Uiso   1.00
C473   C     0.50082   0.25033   0.52666   0.00000  Uiso   1.00
C474   C     0.50015   0.25060   0.97346   0.00000  Uiso   1.00
C475   C     0.40043   0.24981   0.73796   0.00000  Uiso   1.00
C476   C     0.59956   0.25016   0.76197   0.00000  Uiso   1.00
C477   C     0.34665   0.24157   0.73322   0.00000  Uiso   1.00
C478   C     0.65323   0.25868   0.76635   0.00000  Uiso   1.00
C479   C     0.55612   0.04916   0.75810   0.00000  Uiso   1.00
C480   C     0.51799   0.45488   0.70942   0.00000  Uiso   1.00
C481   C     0.55363   0.09575   0.75852   0.00000  Uiso   1.00
C482   C     0.51852   0.40830   0.70939   0.00000  Uiso   1.00
C483   C     0.50416   0.11664   0.75172   0.00000  Uiso   1.00
C484   C     0.50544   0.38470   0.74978   0.00000  Uiso   1.00
C485   C     0.45779   0.09226   0.74711   0.00000  Uiso   1.00
C486   C     0.49662   0.40766   0.79090   0.00000  Uiso   1.00
C487   C     0.46024   0.04622   0.74769   0.00000  Uiso   1.00
C488   C     0.49930   0.45366   0.79173   0.00000  Uiso   1.00
C489   C     0.50903   0.02492   0.75255   0.00000  Uiso   1.00
C490   C     0.50961   0.47701   0.75119   0.00000  Uiso   1.00
H491   H     0.41994   0.10891   0.74266   0.00000  Uiso   1.00
H492   H     0.48716   0.39016   0.82236   0.00000  Uiso   1.00
H493   H     0.42424   0.02706   0.74357   0.00000  Uiso   1.00
H494   H     0.49231   0.47124   0.82364   0.00000  Uiso   1.00
H495   H     0.42255   0.22339   0.52399   0.00000  Uiso   1.00
H496   H     0.54313   0.18843   0.97244   0.00000  Uiso   1.00
H497   H     0.42344   0.22311   0.61156   0.00000  Uiso   1.00
H498   H     0.54213   0.18901   0.88481   0.00000  Uiso   1.00
H499   H     0.57651   0.27688   0.63137   0.00000  Uiso   1.00
H500   H     0.45891   0.31144   0.87230   0.00000  Uiso   1.00
N501   N     0.50000   0.24999   0.62624   0.00000  Uiso   1.00
N502   N     0.50000   0.25001   0.87377   0.00000  Uiso   1.00
O503   O     0.50000   0.18453   0.78974   0.00000  Uiso   1.00
O504   O     0.50000   0.31546   0.71026   0.00000  Uiso   1.00
O505   O     0.50000   0.18453   0.71026   0.00000  Uiso   1.00
O506   O     0.50000   0.31547   0.78974   0.00000  Uiso   1.00
O507   O     0.42392   0.25000   0.78045   0.00000  Uiso   1.00
O508   O     0.57608   0.25000   0.71956   0.00000  Uiso   1.00
O509   O     0.42392   0.24999   0.70097   0.00000  Uiso   1.00
O510   O     0.57608   0.25000   0.79904   0.00000  Uiso   1.00
Zn511  Zn    0.50000   0.25000   0.80307   0.00000  Uiso   1.00
Zn512  Zn    0.50000   0.24999   0.69693   0.00000  Uiso   1.00
I513   I     0.65360   0.19095   0.68198   0.00000  Uiso   1.00
I514   I     0.34567   0.31104   0.81545   0.00000  Uiso   1.00
I515   I     0.63064   0.01639   0.76514   0.00000  Uiso   1.00
I516   I     0.52773   0.49069   0.64550   0.00000  Uiso   1.00
O517   O     0.59901   0.12081   0.76075   0.00000  Uiso   1.00
C518   C     0.61749   0.12976   0.80900   0.00000  Uiso   1.00
H519   H     0.58933   0.15074   0.82547   0.00000  Uiso   1.00
H520   H     0.65464   0.14878   0.81056   0.00000  Uiso   1.00
H521   H     0.62603   0.09845   0.83027   0.00000  Uiso   1.00
O522   O     0.52947   0.38626   0.66908   0.00000  Uiso   1.00
C523   C     0.58385   0.37736   0.67427   0.00000  Uiso   1.00
H524   H     0.59306   0.36102   0.64134   0.00000  Uiso   1.00
H525   H     0.59600   0.35404   0.70475   0.00000  Uiso   1.00
H526   H     0.60723   0.40869   0.67875   0.00000  Uiso   1.00
I527   I     0.61336   0.28915   0.53267   0.00000  Uiso   1.00
I528   I     0.43895   0.34023   0.97295   0.00000  Uiso   1.00
C529   C     0.83394   0.16410   0.75034   0.00000  Uiso   1.00
C530   C     0.83466   0.33637   0.74987   0.00000  Uiso   1.00
C531   C     0.79029   0.23516   0.54677   0.00000  Uiso   1.00
C532   C     0.85743   0.21573   0.95127   0.00000  Uiso   1.00
C533   C     0.79072   0.23510   0.59662   0.00000  Uiso   1.00
C534   C     0.85687   0.21603   0.90139   0.00000  Uiso   1.00
C535   C     0.87636   0.26502   0.60761   0.00000  Uiso   1.00
C536   C     0.81013   0.28441   0.89447   0.00000  Uiso   1.00
C537   C     0.87791   0.26531   0.55796   0.00000  Uiso   1.00
C538   C     0.80937   0.28538   0.94421   0.00000  Uiso   1.00
C539   C     0.83415   0.25033   0.52666   0.00000  Uiso   1.00
C540   C     0.83348   0.25060   0.97346   0.00000  Uiso   1.00
C541   C     0.73376   0.24981   0.73796   0.00000  Uiso   1.00
C542   C     0.93289   0.25016   0.76197   0.00000  Uiso   1.00
C543   C     0.67998   0.24157   0.73322   0.00000  Uiso   1.00
C544   C     0.98656   0.25868   0.76635   0.00000  Uiso   1.00
C545   C     0.88945   0.04916   0.75810   0.00000  Uiso   1.00
C546   C     0.85132   0.45488   0.70942   0.00000  Uiso   1.00
C547   C     0.88696   0.09575   0.75852   0.00000  Uiso   1.00
C548   C     0.85185   0.40830   0.70939   0.00000  Uiso   1.00
C549   C     0.83750   0.11664   0.75172   0.00000  Uiso   1.00
C550   C     0.83877   0.38470   0.74978   0.00000  Uiso   1.00
C551   C     0.79113   0.09226   0.74711   0.00000  Uiso   1.00
C552   C     0.82995   0.40766   0.79090   0.00000  Uiso   1.00
C553   C     0.79358   0.04622   0.74769   0.00000  Uiso   1.00
C554   C     0.83264   0.45366   0.79173   0.00000  Uiso   1.00
C555   C     0.84236   0.02492   0.75255   0.00000  Uiso   1.00
C556   C     0.84294   0.47701   0.75119   0.00000  Uiso   1.00
H557   H     0.75328   0.10891   0.74266   0.00000  Uiso   1.00
H558   H     0.82049   0.39016   0.82236   0.00000  Uiso   1.00
H559   H     0.75757   0.02706   0.74357   0.00000  Uiso   1.00
H560   H     0.82565   0.47124   0.82364   0.00000  Uiso   1.00
H561   H     0.75588   0.22339   0.52399   0.00000  Uiso   1.00
H562   H     0.87646   0.18843   0.97244   0.00000  Uiso   1.00
H563   H     0.75677   0.22311   0.61156   0.00000  Uiso   1.00
H564   H     0.87547   0.18901   0.88481   0.00000  Uiso   1.00
H565   H     0.90984   0.27688   0.63137   0.00000  Uiso   1.00
H566   H     0.79224   0.31144   0.87230   0.00000  Uiso   1.00
N567   N     0.83333   0.24999   0.62624   0.00000  Uiso   1.00
N568   N     0.83333   0.25001   0.87377   0.00000  Uiso   1.00
O569   O     0.83334   0.18453   0.78974   0.00000  Uiso   1.00
O570   O     0.83333   0.31546   0.71026   0.00000  Uiso   1.00
O571   O     0.83334   0.18453   0.71026   0.00000  Uiso   1.00
O572   O     0.83333   0.31547   0.78974   0.00000  Uiso   1.00
O573   O     0.75725   0.25000   0.78045   0.00000  Uiso   1.00
O574   O     0.90942   0.25000   0.71956   0.00000  Uiso   1.00
O575   O     0.75725   0.24999   0.70097   0.00000  Uiso   1.00
O576   O     0.90942   0.25000   0.79904   0.00000  Uiso   1.00
Zn577  Zn    0.83333   0.25000   0.80307   0.00000  Uiso   1.00
Zn578  Zn    0.83333   0.24999   0.69693   0.00000  Uiso   1.00
I579   I     0.98694   0.19095   0.68198   0.00000  Uiso   1.00
I580   I     0.67900   0.31104   0.81545   0.00000  Uiso   1.00
I581   I     0.96397   0.01639   0.76514   0.00000  Uiso   1.00
I582   I     0.86106   0.49069   0.64550   0.00000  Uiso   1.00
O583   O     0.93235   0.12081   0.76075   0.00000  Uiso   1.00
C584   C     0.95082   0.12976   0.80900   0.00000  Uiso   1.00
H585   H     0.92266   0.15074   0.82547   0.00000  Uiso   1.00
H586   H     0.98797   0.14878   0.81056   0.00000  Uiso   1.00
H587   H     0.95936   0.09845   0.83027   0.00000  Uiso   1.00
O588   O     0.86280   0.38626   0.66908   0.00000  Uiso   1.00
C589   C     0.91718   0.37736   0.67427   0.00000  Uiso   1.00
H590   H     0.92639   0.36102   0.64134   0.00000  Uiso   1.00
H591   H     0.92934   0.35404   0.70475   0.00000  Uiso   1.00
H592   H     0.94056   0.40869   0.67875   0.00000  Uiso   1.00
I593   I     0.94670   0.28915   0.53267   0.00000  Uiso   1.00
I594   I     0.77229   0.34023   0.97295   0.00000  Uiso   1.00
C595   C     0.16727   0.66410   0.75034   0.00000  Uiso   1.00
C596   C     0.16800   0.83637   0.74987   0.00000  Uiso   1.00
C597   C     0.12362   0.73516   0.54677   0.00000  Uiso   1.00
C598   C     0.19076   0.71573   0.95127   0.00000  Uiso   1.00
C599   C     0.12405   0.73510   0.59662   0.00000  Uiso   1.00
C600   C     0.19021   0.71603   0.90139   0.00000  Uiso   1.00
C601   C     0.20969   0.76502   0.60761   0.00000  Uiso   1.00
C602   C     0.14347   0.78441   0.89447   0.00000  Uiso   1.00
C603   C     0.21125   0.76531   0.55796   0.00000  Uiso   1.00
C604   C     0.14270   0.78538   0.94421   0.00000  Uiso   1.00
C605   C     0.16748   0.75033   0.52666   0.00000  Uiso   1.00
C606   C     0.16682   0.75060   0.97346   0.00000  Uiso   1.00
C607   C     0.06709   0.74981   0.73796   0.00000  Uiso   1.00
C608   C     0.26623   0.75016   0.76197   0.00000  Uiso   1.00
C609   C     0.01332   0.74157   0.73322   0.00000  Uiso   1.00
C610   C     0.31990   0.75868   0.76635   0.00000  Uiso   1.00
C611   C     0.22278   0.54916   0.75810   0.00000  Uiso   1.00
C612   C     0.18465   0.95488   0.70942   0.00000  Uiso   1.00
C613   C     0.22030   0.59575   0.75852   0.00000  Uiso   1.00
C614   C     0.18518   0.90830   0.70939   0.00000  Uiso   1.00
C615   C     0.17083   0.61664   0.75172   0.00000  Uiso   1.00
C616   C     0.17211   0.88470   0.74978   0.00000  Uiso   1.00
C617   C     0.12446   0.59226   0.74711   0.00000  Uiso   1.00
C618   C     0.16328   0.90766   0.79090   0.00000  Uiso   1.00
C619   C     0.12691   0.54622   0.74769   0.00000  Uiso   1.00
C620   C     0.16597   0.95366   0.79173   0.00000  Uiso   1.00
C621   C     0.17569   0.52492   0.75255   0.00000  Uiso   1.00
C622   C     0.17627   0.97701   0.75119   0.00000  Uiso   1.00
H623   H     0.08661   0.60891   0.74266   0.00000  Uiso   1.00
H624   H     0.15382   0.89016   0.82236   0.00000  Uiso   1.00
H625   H     0.09091   0.52706   0.74357   0.00000  Uiso   1.00
H626   H     0.15898   0.97124   0.82364   0.00000  Uiso   1.00
H627   H     0.08921   0.72339   0.52399   0.00000  Uiso   1.00
H628   H     0.20980   0.68843   0.97244   0.00000  Uiso   1.00
H629   H     0.09011   0.72311   0.61156   0.00000  Uiso   1.00
H630   H     0.20880   0.68901   0.88481   0.00000  Uiso   1.00
H631   H     0.24317   0.77688   0.63137   0.00000  Uiso   1.00
H632   H     0.12558   0.81144   0.87230   0.00000  Uiso   1.00
N633   N     0.16667   0.74999   0.62624   0.00000  Uiso   1.00
N634   N     0.16667   0.75001   0.87377   0.00000  Uiso   1.00
O635   O     0.16667   0.68453   0.78974   0.00000  Uiso   1.00
O636   O     0.16666   0.81546   0.71026   0.00000  Uiso   1.00
O637   O     0.16667   0.68453   0.71026   0.00000  Uiso   1.00
O638   O     0.16666   0.81547   0.78974   0.00000  Uiso   1.00
O639   O     0.09058   0.75000   0.78045   0.00000  Uiso   1.00
O640   O     0.24275   0.75000   0.71956   0.00000  Uiso   1.00
O641   O     0.09058   0.74999   0.70097   0.00000  Uiso   1.00
O642   O     0.24275   0.75000   0.79904   0.00000  Uiso   1.00
Zn643  Zn    0.16667   0.75000   0.80307   0.00000  Uiso   1.00
Zn644  Zn    0.16667   0.74999   0.69693   0.00000  Uiso   1.00
I645   I     0.32027   0.69095   0.68198   0.00000  Uiso   1.00
I646   I     0.01233   0.81104   0.81545   0.00000  Uiso   1.00
I647   I     0.29731   0.51639   0.76514   0.00000  Uiso   1.00
I648   I     0.19439   0.99069   0.64550   0.00000  Uiso   1.00
O649   O     0.26568   0.62081   0.76075   0.00000  Uiso   1.00
C650   C     0.28415   0.62976   0.80900   0.00000  Uiso   1.00
H651   H     0.25599   0.65074   0.82547   0.00000  Uiso   1.00
H652   H     0.32130   0.64878   0.81056   0.00000  Uiso   1.00
H653   H     0.29269   0.59845   0.83027   0.00000  Uiso   1.00
O654   O     0.19614   0.88626   0.66908   0.00000  Uiso   1.00
C655   C     0.25052   0.87736   0.67427   0.00000  Uiso   1.00
H656   H     0.25973   0.86102   0.64134   0.00000  Uiso   1.00
H657   H     0.26267   0.85404   0.70475   0.00000  Uiso   1.00
H658   H     0.27390   0.90869   0.67875   0.00000  Uiso   1.00
I659   I     0.28003   0.78915   0.53267   0.00000  Uiso   1.00
I660   I     0.10562   0.84023   0.97295   0.00000  Uiso   1.00
C661   C     0.50060   0.66410   0.75034   0.00000  Uiso   1.00
C662   C     0.50133   0.83637   0.74987   0.00000  Uiso   1.00
C663   C     0.45695   0.73516   0.54677   0.00000  Uiso   1.00
C664   C     0.52410   0.71573   0.95127   0.00000  Uiso   1.00
C665   C     0.45738   0.73510   0.59662   0.00000  Uiso   1.00
C666   C     0.52354   0.71603   0.90139   0.00000  Uiso   1.00
C667   C     0.54303   0.76502   0.60761   0.00000  Uiso   1.00
C668   C     0.47680   0.78441   0.89447   0.00000  Uiso   1.00
C669   C     0.54458   0.76531   0.55796   0.00000  Uiso   1.00
C670   C     0.47603   0.78538   0.94421   0.00000  Uiso   1.00
C671   C     0.50082   0.75033   0.52666   0.00000  Uiso   1.00
C672   C     0.50015   0.75060   0.97346   0.00000  Uiso   1.00
C673   C     0.40043   0.74981   0.73796   0.00000  Uiso   1.00
C674   C     0.59956   0.75016   0.76197   0.00000  Uiso   1.00
C675   C     0.34665   0.74157   0.73322   0.00000  Uiso   1.00
C676   C     0.65323   0.75868   0.76635   0.00000  Uiso   1.00
C677   C     0.55612   0.54916   0.75810   0.00000  Uiso   1.00
C678   C     0.51799   0.95488   0.70942   0.00000  Uiso   1.00
C679   C     0.55363   0.59575   0.75852   0.00000  Uiso   1.00
C680   C     0.51852   0.90830   0.70939   0.00000  Uiso   1.00
C681   C     0.50416   0.61664   0.75172   0.00000  Uiso   1.00
C682   C     0.50544   0.88470   0.74978   0.00000  Uiso   1.00
C683   C     0.45779   0.59226   0.74711   0.00000  Uiso   1.00
C684   C     0.49662   0.90766   0.79090   0.00000  Uiso   1.00
C685   C     0.46024   0.54622   0.74769   0.00000  Uiso   1.00
C686   C     0.49930   0.95366   0.79173   0.00000  Uiso   1.00
C687   C     0.50903   0.52492   0.75255   0.00000  Uiso   1.00
C688   C     0.50961   0.97701   0.75119   0.00000  Uiso   1.00
H689   H     0.41994   0.60891   0.74266   0.00000  Uiso   1.00
H690   H     0.48716   0.89016   0.82236   0.00000  Uiso   1.00
H691   H     0.42424   0.52706   0.74357   0.00000  Uiso   1.00
H692   H     0.49231   0.97124   0.82364   0.00000  Uiso   1.00
H693   H     0.42255   0.72339   0.52399   0.00000  Uiso   1.00
H694   H     0.54313   0.68843   0.97244   0.00000  Uiso   1.00
H695   H     0.42344   0.72311   0.61156   0.00000  Uiso   1.00
H696   H     0.54213   0.68901   0.88481   0.00000  Uiso   1.00
H697   H     0.57651   0.77688   0.63137   0.00000  Uiso   1.00
H698   H     0.45891   0.81144   0.87230   0.00000  Uiso   1.00
N699   N     0.50000   0.74999   0.62624   0.00000  Uiso   1.00
N700   N     0.50000   0.75001   0.87377   0.00000  Uiso   1.00
O701   O     0.50000   0.68453   0.78974   0.00000  Uiso   1.00
O702   O     0.50000   0.81546   0.71026   0.00000  Uiso   1.00
O703   O     0.50000   0.68453   0.71026   0.00000  Uiso   1.00
O704   O     0.50000   0.81547   0.78974   0.00000  Uiso   1.00
O705   O     0.42392   0.75000   0.78045   0.00000  Uiso   1.00
O706   O     0.57608   0.75000   0.71956   0.00000  Uiso   1.00
O707   O     0.42392   0.74999   0.70097   0.00000  Uiso   1.00
O708   O     0.57608   0.75000   0.79904   0.00000  Uiso   1.00
Zn709  Zn    0.50000   0.75000   0.80307   0.00000  Uiso   1.00
Zn710  Zn    0.50000   0.74999   0.69693   0.00000  Uiso   1.00
I711   I     0.65360   0.69095   0.68198   0.00000  Uiso   1.00
I712   I     0.34567   0.81104   0.81545   0.00000  Uiso   1.00
I713   I     0.63064   0.51639   0.76514   0.00000  Uiso   1.00
I714   I     0.52773   0.99069   0.64550   0.00000  Uiso   1.00
O715   O     0.59901   0.62081   0.76075   0.00000  Uiso   1.00
C716   C     0.61749   0.62976   0.80900   0.00000  Uiso   1.00
H717   H     0.58933   0.65074   0.82547   0.00000  Uiso   1.00
H718   H     0.65464   0.64878   0.81056   0.00000  Uiso   1.00
H719   H     0.62603   0.59845   0.83027   0.00000  Uiso   1.00
O720   O     0.52947   0.88626   0.66908   0.00000  Uiso   1.00
C721   C     0.58385   0.87736   0.67427   0.00000  Uiso   1.00
H722   H     0.59306   0.86102   0.64134   0.00000  Uiso   1.00
H723   H     0.59600   0.85404   0.70475   0.00000  Uiso   1.00
H724   H     0.60723   0.90869   0.67875   0.00000  Uiso   1.00
I725   I     0.61336   0.78915   0.53267   0.00000  Uiso   1.00
I726   I     0.43895   0.84023   0.97295   0.00000  Uiso   1.00
C727   C     0.83394   0.66410   0.75034   0.00000  Uiso   1.00
C728   C     0.83466   0.83637   0.74987   0.00000  Uiso   1.00
C729   C     0.79029   0.73516   0.54677   0.00000  Uiso   1.00
C730   C     0.85743   0.71573   0.95127   0.00000  Uiso   1.00
C731   C     0.79072   0.73510   0.59662   0.00000  Uiso   1.00
C732   C     0.85687   0.71603   0.90139   0.00000  Uiso   1.00
C733   C     0.87636   0.76502   0.60761   0.00000  Uiso   1.00
C734   C     0.81013   0.78441   0.89447   0.00000  Uiso   1.00
C735   C     0.87791   0.76531   0.55796   0.00000  Uiso   1.00
C736   C     0.80937   0.78538   0.94421   0.00000  Uiso   1.00
C737   C     0.83415   0.75033   0.52666   0.00000  Uiso   1.00
C738   C     0.83348   0.75060   0.97346   0.00000  Uiso   1.00
C739   C     0.73376   0.74981   0.73796   0.00000  Uiso   1.00
C740   C     0.93289   0.75016   0.76197   0.00000  Uiso   1.00
C741   C     0.67998   0.74157   0.73322   0.00000  Uiso   1.00
C742   C     0.98656   0.75868   0.76635   0.00000  Uiso   1.00
C743   C     0.88945   0.54916   0.75810   0.00000  Uiso   1.00
C744   C     0.85132   0.95488   0.70942   0.00000  Uiso   1.00
C745   C     0.88696   0.59575   0.75852   0.00000  Uiso   1.00
C746   C     0.85185   0.90830   0.70939   0.00000  Uiso   1.00
C747   C     0.83750   0.61664   0.75172   0.00000  Uiso   1.00
C748   C     0.83877   0.88470   0.74978   0.00000  Uiso   1.00
C749   C     0.79113   0.59226   0.74711   0.00000  Uiso   1.00
C750   C     0.82995   0.90766   0.79090   0.00000  Uiso   1.00
C751   C     0.79358   0.54622   0.74769   0.00000  Uiso   1.00
C752   C     0.83264   0.95366   0.79173   0.00000  Uiso   1.00
C753   C     0.84236   0.52492   0.75255   0.00000  Uiso   1.00
C754   C     0.84294   0.97701   0.75119   0.00000  Uiso   1.00
H755   H     0.75328   0.60891   0.74266   0.00000  Uiso   1.00
H756   H     0.82049   0.89016   0.82236   0.00000  Uiso   1.00
H757   H     0.75757   0.52706   0.74357   0.00000  Uiso   1.00
H758   H     0.82565   0.97124   0.82364   0.00000  Uiso   1.00
H759   H     0.75588   0.72339   0.52399   0.00000  Uiso   1.00
H760   H     0.87646   0.68843   0.97244   0.00000  Uiso   1.00
H761   H     0.75677   0.72311   0.61156   0.00000  Uiso   1.00
H762   H     0.87547   0.68901   0.88481   0.00000  Uiso   1.00
H763   H     0.90984   0.77688   0.63137   0.00000  Uiso   1.00
H764   H     0.79224   0.81144   0.87230   0.00000  Uiso   1.00
N765   N     0.83333   0.74999   0.62624   0.00000  Uiso   1.00
N766   N     0.83333   0.75001   0.87377   0.00000  Uiso   1.00
O767   O     0.83334   0.68453   0.78974   0.00000  Uiso   1.00
O768   O     0.83333   0.81546   0.71026   0.00000  Uiso   1.00
O769   O     0.83334   0.68453   0.71026   0.00000  Uiso   1.00
O770   O     0.83333   0.81547   0.78974   0.00000  Uiso   1.00
O771   O     0.75725   0.75000   0.78045   0.00000  Uiso   1.00
O772   O     0.90942   0.75000   0.71956   0.00000  Uiso   1.00
O773   O     0.75725   0.74999   0.70097   0.00000  Uiso   1.00
O774   O     0.90942   0.75000   0.79904   0.00000  Uiso   1.00
Zn775  Zn    0.83333   0.75000   0.80307   0.00000  Uiso   1.00
Zn776  Zn    0.83333   0.74999   0.69693   0.00000  Uiso   1.00
I777   I     0.98694   0.69095   0.68198   0.00000  Uiso   1.00
I778   I     0.67900   0.81104   0.81545   0.00000  Uiso   1.00
I779   I     0.96397   0.51639   0.76514   0.00000  Uiso   1.00
I780   I     0.86106   0.99069   0.64550   0.00000  Uiso   1.00
O781   O     0.93235   0.62081   0.76075   0.00000  Uiso   1.00
C782   C     0.95082   0.62976   0.80900   0.00000  Uiso   1.00
H783   H     0.92266   0.65074   0.82547   0.00000  Uiso   1.00
H784   H     0.98797   0.64878   0.81056   0.00000  Uiso   1.00
H785   H     0.95936   0.59845   0.83027   0.00000  Uiso   1.00
O786   O     0.86280   0.88626   0.66908   0.00000  Uiso   1.00
C787   C     0.91718   0.87736   0.67427   0.00000  Uiso   1.00
H788   H     0.92639   0.86102   0.64134   0.00000  Uiso   1.00
H789   H     0.92934   0.85404   0.70475   0.00000  Uiso   1.00
H790   H     0.94056   0.90869   0.67875   0.00000  Uiso   1.00
I791   I     0.94670   0.78915   0.53267   0.00000  Uiso   1.00
I792   I     0.77229   0.84023   0.97295   0.00000  Uiso   1.00
loop_
_geom_bond_atom_site_label_1
_geom_bond_atom_site_label_2
_geom_bond_distance
_geom_bond_site_symmetry_2
_ccdc_geom_bond_type
C1     C21     1.421   .     S
C1     O41     1.277   .     A
C1     O43     1.280   .     A
C2     C22     1.449   .     S
C2     O42     1.284   .     A
C2     O44     1.288   .     A
C3     C11     1.405   .     A
C3     C5      1.408   .     A
C3     H33     1.083   .     S
C4     H34     1.083   .     S
C4     C12     1.405   .     A
C4     C6      1.408   .     A
C5     H35     1.081   .     S
C5     N39     1.364   .     A
C6     H36     1.081   .     S
C6     N40     1.364   .     A
C7     C9      1.409   .     A
C7     H37     1.081   .     S
C7     N39     1.365   .     A
C8     H38     1.080   .     S
C8     N40     1.364   .     A
C8     C10     1.409   .     A
C9     C11     1.411   .     A
C9     I65     2.120   .     S
C10    I66     2.119   .     S
C10    C12     1.411   .     A
C11    C408    1.502   1_554 S
C12    C407    1.502   .     S
C13    O45     1.269   .     A
C13    C15     1.395   .     S
C13    O47     1.277   .     A
C14    O48     1.279   .     A
C14    O46     1.267   .     A
C14    C16     1.394   .     S
C15    C148    1.340   1_455 S
C15    I183    2.152   1_455 S
C16    C81     1.340   .     S
C16    I118    2.148   .     S
C17    I53     2.136   .     S
C17    C27     1.405   .     A
C17    C19     1.394   .     A
C18    C28     1.401   .     A
C18    I54     2.135   .     S
C18    C20     1.392   .     A
C19    C21     1.405   .     A
C19    O55     1.384   .     S
C20    O60     1.383   .     S
C20    C22     1.415   .     A
C21    C23     1.391   .     A
C22    C24     1.401   .     A
C23    H29     1.084   .     S
C23    C25     1.377   .     A
C24    C26     1.377   .     A
C24    H30     1.083   .     S
C25    H31     1.084   .     S
C25    C27     1.396   .     A
C26    C28     1.392   .     A
C26    H32     1.084   .     S
C27    C226    1.433   1_545 S
C28    C225    1.433   .     S
N39    Zn50    1.998   .     S
N40    Zn49    1.998   .     S
O41    Zn49    1.997   .     S
O42    Zn50    1.997   .     S
O43    Zn50    1.989   .     S
O44    Zn49    1.989   .     S
O45    Zn49    1.976   .     S
O46    Zn50    1.976   .     S
O47    Zn50    1.977   .     S
O48    Zn49    1.977   .     S
I51    C81     2.152   .     S
I52    C148    2.148   1_455 S
O55    C56     1.410   .     S
C56    H58     1.110   .     S
C56    H59     1.112   .     S
C56    H57     1.110   .     S
O60    C61     1.412   .     S
C61    H64     1.113   .     S
C61    H62     1.109   .     S
C61    H63     1.113   .     S
C67    C87     1.421   .     S
C67    O107    1.277   .     A
C67    O109    1.280   .     A
C68    C88     1.449   .     S
C68    O108    1.284   .     A
C68    O110    1.288   .     A
C69    C77     1.405   .     A
C69    C71     1.408   .     A
C69    H99     1.083   .     S
C70    H100    1.083   .     S
C70    C78     1.405   .     A
C70    C72     1.408   .     A
C71    H101    1.081   .     S
C71    N105    1.364   .     A
C72    H102    1.081   .     S
C72    N106    1.364   .     A
C73    C75     1.409   .     A
C73    H103    1.081   .     S
C73    N105    1.365   .     A
C74    H104    1.080   .     S
C74    N106    1.364   .     A
C74    C76     1.409   .     A
C75    C77     1.411   .     A
C75    I131    2.120   .     S
C76    I132    2.119   .     S
C76    C78     1.411   .     A
C77    C474    1.502   1_554 S
C78    C473    1.502   .     S
C79    O111    1.269   .     A
C79    C81     1.395   .     S
C79    O113    1.277   .     A
C80    O114    1.279   .     A
C80    O112    1.267   .     A
C80    C82     1.394   .     S
C82    C147    1.340   .     S
C82    I184    2.148   .     S
C83    I119    2.136   .     S
C83    C93     1.405   .     A
C83    C85     1.394   .     A
C84    C94     1.401   .     A
C84    I120    2.135   .     S
C84    C86     1.392   .     A
C85    C87     1.405   .     A
C85    O121    1.384   .     S
C86    O126    1.383   .     S
C86    C88     1.415   .     A
C87    C89     1.391   .     A
C88    C90     1.401   .     A
C89    H95     1.084   .     S
C89    C91     1.377   .     A
C90    C92     1.377   .     A
C90    H96     1.083   .     S
C91    H97     1.084   .     S
C91    C93     1.396   .     A
C92    C94     1.392   .     A
C92    H98     1.084   .     S
C93    C292    1.433   1_545 S
C94    C291    1.433   .     S
N105   Zn116   1.998   .     S
N106   Zn115   1.998   .     S
O107   Zn115   1.997   .     S
O108   Zn116   1.997   .     S
O109   Zn116   1.989   .     S
O110   Zn115   1.989   .     S
O111   Zn115   1.976   .     S
O112   Zn116   1.976   .     S
O113   Zn116   1.977   .     S
O114   Zn115   1.977   .     S
I117   C147    2.152   .     S
O121   C122    1.410   .     S
C122   H124    1.110   .     S
C122   H125    1.112   .     S
C122   H123    1.110   .     S
O126   C127    1.412   .     S
C127   H130    1.113   .     S
C127   H128    1.109   .     S
C127   H129    1.113   .     S
C133   C153    1.421   .     S
C133   O173    1.277   .     A
C133   O175    1.280   .     A
C134   C154    1.449   .     S
C134   O174    1.284   .     A
C134   O176    1.288   .     A
C135   C143    1.405   .     A
C135   C137    1.408   .     A
C135   H165    1.083   .     S
C136   H166    1.083   .     S
C136   C144    1.405   .     A
C136   C138    1.408   .     A
C137   H167    1.081   .     S
C137   N171    1.364   .     A
C138   H168    1.081   .     S
C138   N172    1.364   .     A
C139   C141    1.409   .     A
C139   H169    1.081   .     S
C139   N171    1.365   .     A
C140   H170    1.080   .     S
C140   N172    1.364   .     A
C140   C142    1.409   .     A
C141   C143    1.411   .     A
C141   I197    2.120   .     S
C142   I198    2.119   .     S
C142   C144    1.411   .     A
C143   C540    1.502   1_554 S
C144   C539    1.502   .     S
C145   O177    1.269   .     A
C145   C147    1.395   .     S
C145   O179    1.277   .     A
C146   O180    1.279   .     A
C146   O178    1.267   .     A
C146   C148    1.394   .     S
C148   C15     1.340   1_655 S
C148   I52     2.148   1_655 S
C149   I185    2.136   .     S
C149   C159    1.405   .     A
C149   C151    1.394   .     A
C150   C160    1.401   .     A
C150   I186    2.135   .     S
C150   C152    1.392   .     A
C151   C153    1.405   .     A
C151   O187    1.384   .     S
C152   O192    1.383   .     S
C152   C154    1.415   .     A
C153   C155    1.391   .     A
C154   C156    1.401   .     A
C155   H161    1.084   .     S
C155   C157    1.377   .     A
C156   C158    1.377   .     A
C156   H162    1.083   .     S
C157   H163    1.084   .     S
C157   C159    1.396   .     A
C158   C160    1.392   .     A
C158   H164    1.084   .     S
C159   C358    1.433   1_545 S
C160   C357    1.433   .     S
N171   Zn182   1.998   .     S
N172   Zn181   1.998   .     S
O173   Zn181   1.997   .     S
O174   Zn182   1.997   .     S
O175   Zn182   1.989   .     S
O176   Zn181   1.989   .     S
O177   Zn181   1.976   .     S
O178   Zn182   1.976   .     S
O179   Zn182   1.977   .     S
O180   Zn181   1.977   .     S
I183   C15     2.152   1_655 S
O187   C188    1.410   .     S
C188   H190    1.110   .     S
C188   H191    1.112   .     S
C188   H189    1.110   .     S
O192   C193    1.412   .     S
C193   H196    1.113   .     S
C193   H194    1.109   .     S
C193   H195    1.113   .     S
C199   C219    1.421   .     S
C199   O239    1.277   .     A
C199   O241    1.280   .     A
C200   C220    1.449   .     S
C200   O240    1.284   .     A
C200   O242    1.288   .     A
C201   C209    1.405   .     A
C201   C203    1.408   .     A
C201   H231    1.083   .     S
C202   H232    1.083   .     S
C202   C210    1.405   .     A
C202   C204    1.408   .     A
C203   H233    1.081   .     S
C203   N237    1.364   .     A
C204   H234    1.081   .     S
C204   N238    1.364   .     A
C205   C207    1.409   .     A
C205   H235    1.081   .     S
C205   N237    1.365   .     A
C206   H236    1.080   .     S
C206   N238    1.364   .     A
C206   C208    1.409   .     A
C207   C209    1.411   .     A
C207   I263    2.120   .     S
C208   I264    2.119   .     S
C208   C210    1.411   .     A
C209   C606    1.502   1_554 S
C210   C605    1.502   .     S
C211   O243    1.269   .     A
C211   C213    1.395   .     S
C211   O245    1.277   .     A
C212   O246    1.279   .     A
C212   O244    1.267   .     A
C212   C214    1.394   .     S
C213   C346    1.340   1_455 S
C213   I381    2.152   1_455 S
C214   C279    1.340   .     S
C214   I316    2.148   .     S
C215   I251    2.136   .     S
C215   C225    1.405   .     A
C215   C217    1.394   .     A
C216   C226    1.401   .     A
C216   I252    2.135   .     S
C216   C218    1.392   .     A
C217   C219    1.405   .     A
C217   O253    1.384   .     S
C218   O258    1.383   .     S
C218   C220    1.415   .     A
C219   C221    1.391   .     A
C220   C222    1.401   .     A
C221   H227    1.084   .     S
C221   C223    1.377   .     A
C222   C224    1.377   .     A
C222   H228    1.083   .     S
C223   H229    1.084   .     S
C223   C225    1.396   .     A
C224   C226    1.392   .     A
C224   H230    1.084   .     S
C226   C27     1.433   1_565 S
N237   Zn248   1.998   .     S
N238   Zn247   1.998   .     S
O239   Zn247   1.997   .     S
O240   Zn248   1.997   .     S
O241   Zn248   1.989   .     S
O242   Zn247   1.989   .     S
O243   Zn247   1.976   .     S
O244   Zn248   1.976   .     S
O245   Zn248   1.977   .     S
O246   Zn247   1.977   .     S
I249   C279    2.152   .     S
I250   C346    2.148   1_455 S
O253   C254    1.410   .     S
C254   H256    1.110   .     S
C254   H257    1.112   .     S
C254   H255    1.110   .     S
O258   C259    1.412   .     S
C259   H262    1.113   .     S
C259   H260    1.109   .     S
C259   H261    1.113   .     S
C265   C285    1.421   .     S
C265   O305    1.277   .     A
C265   O307    1.280   .     A
C266   C286    1.449   .     S
C266   O306    1.284   .     A
C266   O308    1.288   .     A
C267   C275    1.405   .     A
C267   C269    1.408   .     A
C267   H297    1.083   .     S
C268   H298    1.083   .     S
C268   C276    1.405   .     A
C268   C270    1.408   .     A
C269   H299    1.081   .     S
C269   N303    1.364   .     A
C270   H300    1.081   .     S
C270   N304    1.364   .     A
C271   C273    1.409   .     A
C271   H301    1.081   .     S
C271   N303    1.365   .     A
C272   H302    1.080   .     S
C272   N304    1.364   .     A
C272   C274    1.409   .     A
C273   C275    1.411   .     A
C273   I329    2.120   .     S
C274   I330    2.119   .     S
C274   C276    1.411   .     A
C275   C672    1.502   1_554 S
C276   C671    1.502   .     S
C277   O309    1.269   .     A
C277   C279    1.395   .     S
C277   O311    1.277   .     A
C278   O312    1.279   .     A
C278   O310    1.267   .     A
C278   C280    1.394   .     S
C280   C345    1.340   .     S
C280   I382    2.148   .     S
C281   I317    2.136   .     S
C281   C291    1.405   .     A
C281   C283    1.394   .     A
C282   C292    1.401   .     A
C282   I318    2.135   .     S
C282   C284    1.392   .     A
C283   C285    1.405   .     A
C283   O319    1.384   .     S
C284   O324    1.383   .     S
C284   C286    1.415   .     A
C285   C287    1.391   .     A
C286   C288    1.401   .     A
C287   H293    1.084   .     S
C287   C289    1.377   .     A
C288   C290    1.377   .     A
C288   H294    1.083   .     S
C289   H295    1.084   .     S
C289   C291    1.396   .     A
C290   C292    1.392   .     A
C290   H296    1.084   .     S
C292   C93     1.433   1_565 S
N303   Zn314   1.998   .     S
N304   Zn313   1.998   .     S
O305   Zn313   1.997   .     S
O306   Zn314   1.997   .     S
O307   Zn314   1.989   .     S
O308   Zn313   1.989   .     S
O309   Zn313   1.976   .     S
O310   Zn314   1.976   .     S
O311   Zn314   1.977   .     S
O312   Zn313   1.977   .     S
I315   C345    2.152   .     S
O319   C320    1.410   .     S
C320   H322    1.110   .     S
C320   H323    1.112   .     S
C320   H321    1.110   .     S
O324   C325    1.412   .     S
C325   H328    1.113   .     S
C325   H326    1.109   .     S
C325   H327    1.113   .     S
C331   C351    1.421   .     S
C331   O371    1.277   .     A
C331   O373    1.280   .     A
C332   C352    1.449   .     S
C332   O372    1.284   .     A
C332   O374    1.288   .     A
C333   C341    1.405   .     A
C333   C335    1.408   .     A
C333   H363    1.083   .     S
C334   H364    1.083   .     S
C334   C342    1.405   .     A
C334   C336    1.408   .     A
C335   H365    1.081   .     S
C335   N369    1.364   .     A
C336   H366    1.081   .     S
C336   N370    1.364   .     A
C337   C339    1.409   .     A
C337   H367    1.081   .     S
C337   N369    1.365   .     A
C338   H368    1.080   .     S
C338   N370    1.364   .     A
C338   C340    1.409   .     A
C339   C341    1.411   .     A
C339   I395    2.120   .     S
C340   I396    2.119   .     S
C340   C342    1.411   .     A
C341   C738    1.502   1_554 S
C342   C737    1.502   .     S
C343   O375    1.269   .     A
C343   C345    1.395   .     S
C343   O377    1.277   .     A
C344   O378    1.279   .     A
C344   O376    1.267   .     A
C344   C346    1.394   .     S
C346   C213    1.340   1_655 S
C346   I250    2.148   1_655 S
C347   I383    2.136   .     S
C347   C357    1.405   .     A
C347   C349    1.394   .     A
C348   C358    1.401   .     A
C348   I384    2.135   .     S
C348   C350    1.392   .     A
C349   C351    1.405   .     A
C349   O385    1.384   .     S
C350   O390    1.383   .     S
C350   C352    1.415   .     A
C351   C353    1.391   .     A
C352   C354    1.401   .     A
C353   H359    1.084   .     S
C353   C355    1.377   .     A
C354   C356    1.377   .     A
C354   H360    1.083   .     S
C355   H361    1.084   .     S
C355   C357    1.396   .     A
C356   C358    1.392   .     A
C356   H362    1.084   .     S
C358   C159    1.433   1_565 S
N369   Zn380   1.998   .     S
N370   Zn379   1.998   .     S
O371   Zn379   1.997   .     S
O372   Zn380   1.997   .     S
O373   Zn380   1.989   .     S
O374   Zn379   1.989   .     S
O375   Zn379   1.976   .     S
O376   Zn380   1.976   .     S
O377   Zn380   1.977   .     S
O378   Zn379   1.977   .     S
I381   C213    2.152   1_655 S
O385   C386    1.410   .     S
C386   H388    1.110   .     S
C386   H389    1.112   .     S
C386   H387    1.110   .     S
O390   C391    1.412   .     S
C391   H394    1.113   .     S
C391   H392    1.109   .     S
C391   H393    1.113   .     S
C397   C417    1.421   .     S
C397   O437    1.277   .     A
C397   O439    1.280   .     A
C398   C418    1.449   .     S
C398   O438    1.284   .     A
C398   O440    1.288   .     A
C399   C407    1.405   .     A
C399   C401    1.408   .     A
C399   H429    1.083   .     S
C400   H430    1.083   .     S
C400   C408    1.405   .     A
C400   C402    1.408   .     A
C401   H431    1.081   .     S
C401   N435    1.364   .     A
C402   H432    1.081   .     S
C402   N436    1.364   .     A
C403   C405    1.409   .     A
C403   H433    1.081   .     S
C403   N435    1.365   .     A
C404   H434    1.080   .     S
C404   N436    1.364   .     A
C404   C406    1.409   .     A
C405   C407    1.411   .     A
C405   I461    2.120   .     S
C406   I462    2.119   .     S
C406   C408    1.411   .     A
C408   C11     1.502   1_556 S
C409   O441    1.269   .     A
C409   C411    1.395   .     S
C409   O443    1.277   .     A
C410   O444    1.279   .     A
C410   O442    1.267   .     A
C410   C412    1.394   .     S
C411   C544    1.340   1_455 S
C411   I579    2.152   1_455 S
C412   C477    1.340   .     S
C412   I514    2.148   .     S
C413   I449    2.136   .     S
C413   C423    1.405   .     A
C413   C415    1.394   .     A
C414   C424    1.401   .     A
C414   I450    2.135   .     S
C414   C416    1.392   .     A
C415   C417    1.405   .     A
C415   O451    1.384   .     S
C416   O456    1.383   .     S
C416   C418    1.415   .     A
C417   C419    1.391   .     A
C418   C420    1.401   .     A
C419   H425    1.084   .     S
C419   C421    1.377   .     A
C420   C422    1.377   .     A
C420   H426    1.083   .     S
C421   H427    1.084   .     S
C421   C423    1.396   .     A
C422   C424    1.392   .     A
C422   H428    1.084   .     S
C423   C622    1.433   1_545 S
C424   C621    1.433   .     S
N435   Zn446   1.998   .     S
N436   Zn445   1.998   .     S
O437   Zn445   1.997   .     S
O438   Zn446   1.997   .     S
O439   Zn446   1.989   .     S
O440   Zn445   1.989   .     S
O441   Zn445   1.976   .     S
O442   Zn446   1.976   .     S
O443   Zn446   1.977   .     S
O444   Zn445   1.977   .     S
I447   C477    2.152   .     S
I448   C544    2.148   1_455 S
O451   C452    1.410   .     S
C452   H454    1.110   .     S
C452   H455    1.112   .     S
C452   H453    1.110   .     S
O456   C457    1.412   .     S
C457   H460    1.113   .     S
C457   H458    1.109   .     S
C457   H459    1.113   .     S
C463   C483    1.421   .     S
C463   O503    1.277   .     A
C463   O505    1.280   .     A
C464   C484    1.449   .     S
C464   O504    1.284   .     A
C464   O506    1.288   .     A
C465   C473    1.405   .     A
C465   C467    1.408   .     A
C465   H495    1.083   .     S
C466   H496    1.083   .     S
C466   C474    1.405   .     A
C466   C468    1.408   .     A
C467   H497    1.081   .     S
C467   N501    1.364   .     A
C468   H498    1.081   .     S
C468   N502    1.364   .     A
C469   C471    1.409   .     A
C469   H499    1.081   .     S
C469   N501    1.365   .     A
C470   H500    1.080   .     S
C470   N502    1.364   .     A
C470   C472    1.409   .     A
C471   C473    1.411   .     A
C471   I527    2.120   .     S
C472   I528    2.119   .     S
C472   C474    1.411   .     A
C474   C77     1.502   1_556 S
C475   O507    1.269   .     A
C475   C477    1.395   .     S
C475   O509    1.277   .     A
C476   O510    1.279   .     A
C476   O508    1.267   .     A
C476   C478    1.394   .     S
C478   C543    1.340   .     S
C478   I580    2.148   .     S
C479   I515    2.136   .     S
C479   C489    1.405   .     A
C479   C481    1.394   .     A
C480   C490    1.401   .     A
C480   I516    2.135   .     S
C480   C482    1.392   .     A
C481   C483    1.405   .     A
C481   O517    1.384   .     S
C482   O522    1.383   .     S
C482   C484    1.415   .     A
C483   C485    1.391   .     A
C484   C486    1.401   .     A
C485   H491    1.084   .     S
C485   C487    1.377   .     A
C486   C488    1.377   .     A
C486   H492    1.083   .     S
C487   H493    1.084   .     S
C487   C489    1.396   .     A
C488   C490    1.392   .     A
C488   H494    1.084   .     S
C489   C688    1.433   1_545 S
C490   C687    1.433   .     S
N501   Zn512   1.998   .     S
N502   Zn511   1.998   .     S
O503   Zn511   1.997   .     S
O504   Zn512   1.997   .     S
O505   Zn512   1.989   .     S
O506   Zn511   1.989   .     S
O507   Zn511   1.976   .     S
O508   Zn512   1.976   .     S
O509   Zn512   1.977   .     S
O510   Zn511   1.977   .     S
I513   C543    2.152   .     S
O517   C518    1.410   .     S
C518   H520    1.110   .     S
C518   H521    1.112   .     S
C518   H519    1.110   .     S
O522   C523    1.412   .     S
C523   H526    1.113   .     S
C523   H524    1.109   .     S
C523   H525    1.113   .     S
C529   C549    1.421   .     S
C529   O569    1.277   .     A
C529   O571    1.280   .     A
C530   C550    1.449   .     S
C530   O570    1.284   .     A
C530   O572    1.288   .     A
C531   C539    1.405   .     A
C531   C533    1.408   .     A
C531   H561    1.083   .     S
C532   H562    1.083   .     S
C532   C540    1.405   .     A
C532   C534    1.408   .     A
C533   H563    1.081   .     S
C533   N567    1.364   .     A
C534   H564    1.081   .     S
C534   N568    1.364   .     A
C535   C537    1.409   .     A
C535   H565    1.081   .     S
C535   N567    1.365   .     A
C536   H566    1.080   .     S
C536   N568    1.364   .     A
C536   C538    1.409   .     A
C537   C539    1.411   .     A
C537   I593    2.120   .     S
C538   I594    2.119   .     S
C538   C540    1.411   .     A
C540   C143    1.502   1_556 S
C541   O573    1.269   .     A
C541   C543    1.395   .     S
C541   O575    1.277   .     A
C542   O576    1.279   .     A
C542   O574    1.267   .     A
C542   C544    1.394   .     S
C544   C411    1.340   1_655 S
C544   I448    2.148   1_655 S
C545   I581    2.136   .     S
C545   C555    1.405   .     A
C545   C547    1.394   .     A
C546   C556    1.401   .     A
C546   I582    2.135   .     S
C546   C548    1.392   .     A
C547   C549    1.405   .     A
C547   O583    1.384   .     S
C548   O588    1.383   .     S
C548   C550    1.415   .     A
C549   C551    1.391   .     A
C550   C552    1.401   .     A
C551   H557    1.084   .     S
C551   C553    1.377   .     A
C552   C554    1.377   .     A
C552   H558    1.083   .     S
C553   H559    1.084   .     S
C553   C555    1.396   .     A
C554   C556    1.392   .     A
C554   H560    1.084   .     S
C555   C754    1.433   1_545 S
C556   C753    1.433   .     S
N567   Zn578   1.998   .     S
N568   Zn577   1.998   .     S
O569   Zn577   1.997   .     S
O570   Zn578   1.997   .     S
O571   Zn578   1.989   .     S
O572   Zn577   1.989   .     S
O573   Zn577   1.976   .     S
O574   Zn578   1.976   .     S
O575   Zn578   1.977   .     S
O576   Zn577   1.977   .     S
I579   C411    2.152   1_655 S
O583   C584    1.410   .     S
C584   H586    1.110   .     S
C584   H587    1.112   .     S
C584   H585    1.110   .     S
O588   C589    1.412   .     S
C589   H592    1.113   .     S
C589   H590    1.109   .     S
C589   H591    1.113   .     S
C595   C615    1.421   .     S
C595   O635    1.277   .     A
C595   O637    1.280   .     A
C596   C616    1.449   .     S
C596   O636    1.284   .     A
C596   O638    1.288   .     A
C597   C605    1.405   .     A
C597   C599    1.408   .     A
C597   H627    1.083   .     S
C598   H628    1.083   .     S
C598   C606    1.405   .     A
C598   C600    1.408   .     A
C599   H629    1.081   .     S
C599   N633    1.364   .     A
C600   H630    1.081   .     S
C600   N634    1.364   .     A
C601   C603    1.409   .     A
C601   H631    1.081   .     S
C601   N633    1.365   .     A
C602   H632    1.080   .     S
C602   N634    1.364   .     A
C602   C604    1.409   .     A
C603   C605    1.411   .     A
C603   I659    2.120   .     S
C604   I660    2.119   .     S
C604   C606    1.411   .     A
C606   C209    1.502   1_556 S
C607   O639    1.269   .     A
C607   C609    1.395   .     S
C607   O641    1.277   .     A
C608   O642    1.279   .     A
C608   O640    1.267   .     A
C608   C610    1.394   .     S
C609   C742    1.340   1_455 S
C609   I777    2.152   1_455 S
C610   C675    1.340   .     S
C610   I712    2.148   .     S
C611   I647    2.136   .     S
C611   C621    1.405   .     A
C611   C613    1.394   .     A
C612   C622    1.401   .     A
C612   I648    2.135   .     S
C612   C614    1.392   .     A
C613   C615    1.405   .     A
C613   O649    1.384   .     S
C614   O654    1.383   .     S
C614   C616    1.415   .     A
C615   C617    1.391   .     A
C616   C618    1.401   .     A
C617   H623    1.084   .     S
C617   C619    1.377   .     A
C618   C620    1.377   .     A
C618   H624    1.083   .     S
C619   H625    1.084   .     S
C619   C621    1.396   .     A
C620   C622    1.392   .     A
C620   H626    1.084   .     S
C622   C423    1.433   1_565 S
N633   Zn644   1.998   .     S
N634   Zn643   1.998   .     S
O635   Zn643   1.997   .     S
O636   Zn644   1.997   .     S
O637   Zn644   1.989   .     S
O638   Zn643   1.989   .     S
O639   Zn643   1.976   .     S
O640   Zn644   1.976   .     S
O641   Zn644   1.977   .     S
O642   Zn643   1.977   .     S
I645   C675    2.152   .     S
I646   C742    2.148   1_455 S
O649   C650    1.410   .     S
C650   H652    1.110   .     S
C650   H653    1.112   .     S
C650   H651    1.110   .     S
O654   C655    1.412   .     S
C655   H658    1.113   .     S
C655   H656    1.109   .     S
C655   H657    1.113   .     S
C661   C681    1.421   .     S
C661   O701    1.277   .     A
C661   O703    1.280   .     A
C662   C682    1.449   .     S
C662   O702    1.284   .     A
C662   O704    1.288   .     A
C663   C671    1.405   .     A
C663   C665    1.408   .     A
C663   H693    1.083   .     S
C664   H694    1.083   .     S
C664   C672    1.405   .     A
C664   C666    1.408   .     A
C665   H695    1.081   .     S
C665   N699    1.364   .     A
C666   H696    1.081   .     S
C666   N700    1.364   .     A
C667   C669    1.409   .     A
C667   H697    1.081   .     S
C667   N699    1.365   .     A
C668   H698    1.080   .     S
C668   N700    1.364   .     A
C668   C670    1.409   .     A
C669   C671    1.411   .     A
C669   I725    2.120   .     S
C670   I726    2.119   .     S
C670   C672    1.411   .     A
C672   C275    1.502   1_556 S
C673   O705    1.269   .     A
C673   C675    1.395   .     S
C673   O707    1.277   .     A
C674   O708    1.279   .     A
C674   O706    1.267   .     A
C674   C676    1.394   .     S
C676   C741    1.340   .     S
C676   I778    2.148   .     S
C677   I713    2.136   .     S
C677   C687    1.405   .     A
C677   C679    1.394   .     A
C678   C688    1.401   .     A
C678   I714    2.135   .     S
C678   C680    1.392   .     A
C679   C681    1.405   .     A
C679   O715    1.384   .     S
C680   O720    1.383   .     S
C680   C682    1.415   .     A
C681   C683    1.391   .     A
C682   C684    1.401   .     A
C683   H689    1.084   .     S
C683   C685    1.377   .     A
C684   C686    1.377   .     A
C684   H690    1.083   .     S
C685   H691    1.084   .     S
C685   C687    1.396   .     A
C686   C688    1.392   .     A
C686   H692    1.084   .     S
C688   C489    1.433   1_565 S
N699   Zn710   1.998   .     S
N700   Zn709   1.998   .     S
O701   Zn709   1.997   .     S
O702   Zn710   1.997   .     S
O703   Zn710   1.989   .     S
O704   Zn709   1.989   .     S
O705   Zn709   1.976   .     S
O706   Zn710   1.976   .     S
O707   Zn710   1.977   .     S
O708   Zn709   1.977   .     S
I711   C741    2.152   .     S
O715   C716    1.410   .     S
C716   H718    1.110   .     S
C716   H719    1.112   .     S
C716   H717    1.110   .     S
O720   C721    1.412   .     S
C721   H724    1.113   .     S
C721   H722    1.109   .     S
C721   H723    1.113   .     S
C727   C747    1.421   .     S
C727   O767    1.277   .     A
C727   O769    1.280   .     A
C728   C748    1.449   .     S
C728   O768    1.284   .     A
C728   O770    1.288   .     A
C729   C737    1.405   .     A
C729   C731    1.408   .     A
C729   H759    1.083   .     S
C730   H760    1.083   .     S
C730   C738    1.405   .     A
C730   C732    1.408   .     A
C731   H761    1.081   .     S
C731   N765    1.364   .     A
C732   H762    1.081   .     S
C732   N766    1.364   .     A
C733   C735    1.409   .     A
C733   H763    1.081   .     S
C733   N765    1.365   .     A
C734   H764    1.080   .     S
C734   N766    1.364   .     A
C734   C736    1.409   .     A
C735   C737    1.411   .     A
C735   I791    2.120   .     S
C736   I792    2.119   .     S
C736   C738    1.411   .     A
C738   C341    1.502   1_556 S
C739   O771    1.269   .     A
C739   C741    1.395   .     S
C739   O773    1.277   .     A
C740   O774    1.279   .     A
C740   O772    1.267   .     A
C740   C742    1.394   .     S
C742   C609    1.340   1_655 S
C742   I646    2.148   1_655 S
C743   I779    2.136   .     S
C743   C753    1.405   .     A
C743   C745    1.394   .     A
C744   C754    1.401   .     A
C744   I780    2.135   .     S
C744   C746    1.392   .     A
C745   C747    1.405   .     A
C745   O781    1.384   .     S
C746   O786    1.383   .     S
C746   C748    1.415   .     A
C747   C749    1.391   .     A
C748   C750    1.401   .     A
C749   H755    1.084   .     S
C749   C751    1.377   .     A
C750   C752    1.377   .     A
C750   H756    1.083   .     S
C751   H757    1.084   .     S
C751   C753    1.396   .     A
C752   C754    1.392   .     A
C752   H758    1.084   .     S
C754   C555    1.433   1_565 S
N765   Zn776   1.998   .     S
N766   Zn775   1.998   .     S
O767   Zn775   1.997   .     S
O768   Zn776   1.997   .     S
O769   Zn776   1.989   .     S
O770   Zn775   1.989   .     S
O771   Zn775   1.976   .     S
O772   Zn776   1.976   .     S
O773   Zn776   1.977   .     S
O774   Zn775   1.977   .     S
I777   C609    2.152   1_655 S
O781   C782    1.410   .     S
C782   H784    1.110   .     S
C782   H785    1.112   .     S
C782   H783    1.110   .     S
O786   C787    1.412   .     S
C787   H790    1.113   .     S
C787   H788    1.109   .     S
C787   H789    1.113   .     S
