data_str_m3_o2_o10_pcu_sym.185
_audit_creation_date              2020-01-03
_audit_creation_method            'Materials Studio'
_symmetry_space_group_name_H-M    'P1'
_symmetry_Int_Tables_number       1
_symmetry_cell_setting            triclinic
loop_
_symmetry_equiv_pos_as_xyz
  x,y,z
_cell_length_a                    25.7278
_cell_length_b                    29.9781
_cell_length_c                    28.4824
_cell_angle_alpha                 88.9958
_cell_angle_beta                  97.3162
_cell_angle_gamma                 90.6235
loop_
_atom_site_label
_atom_site_type_symbol
_atom_site_fract_x
_atom_site_fract_y
_atom_site_fract_z
_atom_site_U_iso_or_equiv
_atom_site_adp_type
_atom_site_occupancy
C1     C     0.16665   0.16389   0.25032   0.00000  Uiso   1.00
C2     C     0.16666   0.33601   0.24970   0.00000  Uiso   1.00
C3     C     0.15624   0.20883   0.05318   0.00000  Uiso   1.00
C4     C     0.21311   0.25849   0.45221   0.00000  Uiso   1.00
C5     C     0.15371   0.21156   0.10225   0.00000  Uiso   1.00
C6     C     0.21082   0.26192   0.40264   0.00000  Uiso   1.00
C7     C     0.18299   0.28648   0.10157   0.00000  Uiso   1.00
C8     C     0.12418   0.23344   0.39326   0.00000  Uiso   1.00
C9     C     0.18245   0.28607   0.05199   0.00000  Uiso   1.00
C10    C     0.12342   0.23257   0.44298   0.00000  Uiso   1.00
C11    C     0.16961   0.24649   0.02677   0.00000  Uiso   1.00
C12    C     0.16881   0.24505   0.47351   0.00000  Uiso   1.00
C13    C     0.06728   0.24945   0.23816   0.00000  Uiso   1.00
C14    C     0.26605   0.25081   0.26178   0.00000  Uiso   1.00
C15    C     0.01341   0.24126   0.23382   0.00000  Uiso   1.00
C16    C     0.31982   0.25949   0.26575   0.00000  Uiso   1.00
C17    C     0.15092   0.04617   0.28978   0.00000  Uiso   1.00
C18    C     0.13970   0.45311   0.21068   0.00000  Uiso   1.00
C19    C     0.15215   0.09225   0.29007   0.00000  Uiso   1.00
C20    C     0.14095   0.40707   0.21021   0.00000  Uiso   1.00
C21    C     0.16622   0.11586   0.25071   0.00000  Uiso   1.00
C22    C     0.16632   0.38384   0.24937   0.00000  Uiso   1.00
C23    C     0.17926   0.09336   0.21120   0.00000  Uiso   1.00
C24    C     0.19029   0.40642   0.28905   0.00000  Uiso   1.00
C25    C     0.17827   0.04736   0.21105   0.00000  Uiso   1.00
C26    C     0.18928   0.45242   0.28942   0.00000  Uiso   1.00
C27    C     0.16403   0.02380   0.25028   0.00000  Uiso   1.00
C28    C     0.16399   0.47572   0.25025   0.00000  Uiso   1.00
H29    H     0.13945   0.02797   0.32008   0.00000  Uiso   1.00
H30    H     0.11951   0.47106   0.18051   0.00000  Uiso   1.00
H31    H     0.14156   0.10931   0.32065   0.00000  Uiso   1.00
H32    H     0.12125   0.38968   0.17990   0.00000  Uiso   1.00
H33    H     0.19063   0.11122   0.18066   0.00000  Uiso   1.00
H34    H     0.21019   0.38854   0.31941   0.00000  Uiso   1.00
H35    H     0.18923   0.03015   0.18070   0.00000  Uiso   1.00
H36    H     0.20875   0.46982   0.31986   0.00000  Uiso   1.00
H37    H     0.14791   0.17716   0.03610   0.00000  Uiso   1.00
H38    H     0.24960   0.26648   0.47379   0.00000  Uiso   1.00
H39    H     0.14228   0.18226   0.12120   0.00000  Uiso   1.00
H40    H     0.24511   0.27317   0.38732   0.00000  Uiso   1.00
N41    N     0.16667   0.24999   0.12623   0.00000  Uiso   1.00
N42    N     0.16667   0.25001   0.37376   0.00000  Uiso   1.00
O43    O     0.16667   0.18454   0.28974   0.00000  Uiso   1.00
O44    O     0.16666   0.31547   0.21026   0.00000  Uiso   1.00
O45    O     0.16667   0.18453   0.21026   0.00000  Uiso   1.00
O46    O     0.16666   0.31547   0.28974   0.00000  Uiso   1.00
O47    O     0.09058   0.25000   0.28044   0.00000  Uiso   1.00
O48    O     0.24275   0.25000   0.21955   0.00000  Uiso   1.00
O49    O     0.09058   0.25000   0.20096   0.00000  Uiso   1.00
O50    O     0.24275   0.25001   0.29903   0.00000  Uiso   1.00
Zn51   Zn    0.16667   0.25001   0.30307   0.00000  Uiso   1.00
Zn52   Zn    0.16667   0.25000   0.19693   0.00000  Uiso   1.00
Br53   Br    0.32143   0.19434   0.19039   0.00000  Uiso   1.00
Br54   Br    0.01128   0.30803   0.30716   0.00000  Uiso   1.00
N55    N     0.20296   0.32581   0.12522   0.00000  Uiso   1.00
H56    H     0.22977   0.31698   0.15449   0.00000  Uiso   1.00
H57    H     0.17157   0.34402   0.13436   0.00000  Uiso   1.00
N58    N     0.08099   0.21477   0.36318   0.00000  Uiso   1.00
H59    H     0.07740   0.18110   0.37252   0.00000  Uiso   1.00
H60    H     0.04676   0.23085   0.36944   0.00000  Uiso   1.00
N61    N     0.19317   0.32715   0.02824   0.00000  Uiso   1.00
H62    H     0.22932   0.32510   0.01554   0.00000  Uiso   1.00
H63    H     0.16371   0.33272   0.49997   0.00000  Uiso   1.00
N64    N     0.07562   0.22013   0.46100   0.00000  Uiso   1.00
H65    H     0.08066   0.18956   0.47896   0.00000  Uiso   1.00
H66    H     0.06645   0.24450   0.48437   0.00000  Uiso   1.00
C67    C     0.49998   0.16389   0.25032   0.00000  Uiso   1.00
C68    C     0.49999   0.33601   0.24970   0.00000  Uiso   1.00
C69    C     0.48957   0.20883   0.05318   0.00000  Uiso   1.00
C70    C     0.54644   0.25849   0.45221   0.00000  Uiso   1.00
C71    C     0.48704   0.21156   0.10225   0.00000  Uiso   1.00
C72    C     0.54415   0.26192   0.40264   0.00000  Uiso   1.00
C73    C     0.51632   0.28648   0.10157   0.00000  Uiso   1.00
C74    C     0.45751   0.23344   0.39326   0.00000  Uiso   1.00
C75    C     0.51579   0.28607   0.05199   0.00000  Uiso   1.00
C76    C     0.45675   0.23257   0.44298   0.00000  Uiso   1.00
C77    C     0.50294   0.24649   0.02677   0.00000  Uiso   1.00
C78    C     0.50215   0.24505   0.47351   0.00000  Uiso   1.00
C79    C     0.40061   0.24945   0.23816   0.00000  Uiso   1.00
C80    C     0.59938   0.25081   0.26178   0.00000  Uiso   1.00
C81    C     0.34675   0.24126   0.23382   0.00000  Uiso   1.00
C82    C     0.65315   0.25949   0.26575   0.00000  Uiso   1.00
C83    C     0.48425   0.04617   0.28978   0.00000  Uiso   1.00
C84    C     0.47303   0.45311   0.21068   0.00000  Uiso   1.00
C85    C     0.48548   0.09225   0.29007   0.00000  Uiso   1.00
C86    C     0.47429   0.40707   0.21021   0.00000  Uiso   1.00
C87    C     0.49955   0.11586   0.25071   0.00000  Uiso   1.00
C88    C     0.49965   0.38384   0.24937   0.00000  Uiso   1.00
C89    C     0.51259   0.09336   0.21120   0.00000  Uiso   1.00
C90    C     0.52362   0.40642   0.28905   0.00000  Uiso   1.00
C91    C     0.51161   0.04736   0.21105   0.00000  Uiso   1.00
C92    C     0.52262   0.45242   0.28942   0.00000  Uiso   1.00
C93    C     0.49737   0.02380   0.25028   0.00000  Uiso   1.00
C94    C     0.49732   0.47572   0.25025   0.00000  Uiso   1.00
H95    H     0.47278   0.02797   0.32008   0.00000  Uiso   1.00
H96    H     0.45284   0.47106   0.18051   0.00000  Uiso   1.00
H97    H     0.47490   0.10931   0.32065   0.00000  Uiso   1.00
H98    H     0.45458   0.38968   0.17990   0.00000  Uiso   1.00
H99    H     0.52397   0.11122   0.18066   0.00000  Uiso   1.00
H100   H     0.54353   0.38854   0.31941   0.00000  Uiso   1.00
H101   H     0.52257   0.03015   0.18070   0.00000  Uiso   1.00
H102   H     0.54208   0.46982   0.31986   0.00000  Uiso   1.00
H103   H     0.48124   0.17716   0.03610   0.00000  Uiso   1.00
H104   H     0.58294   0.26648   0.47379   0.00000  Uiso   1.00
H105   H     0.47561   0.18226   0.12120   0.00000  Uiso   1.00
H106   H     0.57845   0.27317   0.38732   0.00000  Uiso   1.00
N107   N     0.50000   0.24999   0.12623   0.00000  Uiso   1.00
N108   N     0.50000   0.25001   0.37376   0.00000  Uiso   1.00
O109   O     0.50000   0.18454   0.28974   0.00000  Uiso   1.00
O110   O     0.50000   0.31547   0.21026   0.00000  Uiso   1.00
O111   O     0.50000   0.18453   0.21026   0.00000  Uiso   1.00
O112   O     0.50000   0.31547   0.28974   0.00000  Uiso   1.00
O113   O     0.42392   0.25000   0.28044   0.00000  Uiso   1.00
O114   O     0.57608   0.25000   0.21955   0.00000  Uiso   1.00
O115   O     0.42392   0.25000   0.20096   0.00000  Uiso   1.00
O116   O     0.57608   0.25001   0.29903   0.00000  Uiso   1.00
Zn117  Zn    0.50000   0.25001   0.30307   0.00000  Uiso   1.00
Zn118  Zn    0.50000   0.25000   0.19693   0.00000  Uiso   1.00
Br119  Br    0.65476   0.19434   0.19039   0.00000  Uiso   1.00
Br120  Br    0.34461   0.30803   0.30716   0.00000  Uiso   1.00
N121   N     0.53629   0.32581   0.12522   0.00000  Uiso   1.00
H122   H     0.56311   0.31698   0.15449   0.00000  Uiso   1.00
H123   H     0.50491   0.34402   0.13436   0.00000  Uiso   1.00
N124   N     0.41432   0.21477   0.36318   0.00000  Uiso   1.00
H125   H     0.41073   0.18110   0.37252   0.00000  Uiso   1.00
H126   H     0.38009   0.23085   0.36944   0.00000  Uiso   1.00
N127   N     0.52650   0.32715   0.02824   0.00000  Uiso   1.00
H128   H     0.56266   0.32510   0.01554   0.00000  Uiso   1.00
H129   H     0.49705   0.33272   0.49997   0.00000  Uiso   1.00
N130   N     0.40895   0.22013   0.46100   0.00000  Uiso   1.00
H131   H     0.41399   0.18956   0.47896   0.00000  Uiso   1.00
H132   H     0.39978   0.24450   0.48437   0.00000  Uiso   1.00
C133   C     0.83331   0.16389   0.25032   0.00000  Uiso   1.00
C134   C     0.83333   0.33601   0.24970   0.00000  Uiso   1.00
C135   C     0.82291   0.20883   0.05318   0.00000  Uiso   1.00
C136   C     0.87978   0.25849   0.45221   0.00000  Uiso   1.00
C137   C     0.82037   0.21156   0.10225   0.00000  Uiso   1.00
C138   C     0.87749   0.26192   0.40264   0.00000  Uiso   1.00
C139   C     0.84965   0.28648   0.10157   0.00000  Uiso   1.00
C140   C     0.79084   0.23344   0.39326   0.00000  Uiso   1.00
C141   C     0.84912   0.28607   0.05199   0.00000  Uiso   1.00
C142   C     0.79008   0.23257   0.44298   0.00000  Uiso   1.00
C143   C     0.83627   0.24649   0.02677   0.00000  Uiso   1.00
C144   C     0.83548   0.24505   0.47351   0.00000  Uiso   1.00
C145   C     0.73395   0.24945   0.23816   0.00000  Uiso   1.00
C146   C     0.93271   0.25081   0.26178   0.00000  Uiso   1.00
C147   C     0.68008   0.24126   0.23382   0.00000  Uiso   1.00
C148   C     0.98649   0.25949   0.26575   0.00000  Uiso   1.00
C149   C     0.81759   0.04617   0.28978   0.00000  Uiso   1.00
C150   C     0.80637   0.45311   0.21068   0.00000  Uiso   1.00
C151   C     0.81882   0.09225   0.29007   0.00000  Uiso   1.00
C152   C     0.80762   0.40707   0.21021   0.00000  Uiso   1.00
C153   C     0.83289   0.11586   0.25071   0.00000  Uiso   1.00
C154   C     0.83299   0.38384   0.24937   0.00000  Uiso   1.00
C155   C     0.84592   0.09336   0.21120   0.00000  Uiso   1.00
C156   C     0.85695   0.40642   0.28905   0.00000  Uiso   1.00
C157   C     0.84494   0.04736   0.21105   0.00000  Uiso   1.00
C158   C     0.85595   0.45242   0.28942   0.00000  Uiso   1.00
C159   C     0.83070   0.02380   0.25028   0.00000  Uiso   1.00
C160   C     0.83066   0.47572   0.25025   0.00000  Uiso   1.00
H161   H     0.80612   0.02797   0.32008   0.00000  Uiso   1.00
H162   H     0.78617   0.47106   0.18051   0.00000  Uiso   1.00
H163   H     0.80823   0.10931   0.32065   0.00000  Uiso   1.00
H164   H     0.78792   0.38968   0.17990   0.00000  Uiso   1.00
H165   H     0.85730   0.11122   0.18066   0.00000  Uiso   1.00
H166   H     0.87686   0.38854   0.31941   0.00000  Uiso   1.00
H167   H     0.85590   0.03015   0.18070   0.00000  Uiso   1.00
H168   H     0.87542   0.46982   0.31986   0.00000  Uiso   1.00
H169   H     0.81457   0.17716   0.03610   0.00000  Uiso   1.00
H170   H     0.91627   0.26648   0.47379   0.00000  Uiso   1.00
H171   H     0.80895   0.18226   0.12120   0.00000  Uiso   1.00
H172   H     0.91178   0.27317   0.38732   0.00000  Uiso   1.00
N173   N     0.83333   0.24999   0.12623   0.00000  Uiso   1.00
N174   N     0.83333   0.25001   0.37376   0.00000  Uiso   1.00
O175   O     0.83334   0.18454   0.28974   0.00000  Uiso   1.00
O176   O     0.83333   0.31547   0.21026   0.00000  Uiso   1.00
O177   O     0.83334   0.18453   0.21026   0.00000  Uiso   1.00
O178   O     0.83333   0.31547   0.28974   0.00000  Uiso   1.00
O179   O     0.75725   0.25000   0.28044   0.00000  Uiso   1.00
O180   O     0.90942   0.25000   0.21955   0.00000  Uiso   1.00
O181   O     0.75725   0.25000   0.20096   0.00000  Uiso   1.00
O182   O     0.90942   0.25001   0.29903   0.00000  Uiso   1.00
Zn183  Zn    0.83333   0.25001   0.30307   0.00000  Uiso   1.00
Zn184  Zn    0.83333   0.25000   0.19693   0.00000  Uiso   1.00
Br185  Br    0.98809   0.19434   0.19039   0.00000  Uiso   1.00
Br186  Br    0.67795   0.30803   0.30716   0.00000  Uiso   1.00
N187   N     0.86963   0.32581   0.12522   0.00000  Uiso   1.00
H188   H     0.89644   0.31698   0.15449   0.00000  Uiso   1.00
H189   H     0.83824   0.34402   0.13436   0.00000  Uiso   1.00
N190   N     0.74765   0.21477   0.36318   0.00000  Uiso   1.00
H191   H     0.74407   0.18110   0.37252   0.00000  Uiso   1.00
H192   H     0.71343   0.23085   0.36944   0.00000  Uiso   1.00
N193   N     0.85984   0.32715   0.02824   0.00000  Uiso   1.00
H194   H     0.89599   0.32510   0.01554   0.00000  Uiso   1.00
H195   H     0.83038   0.33272   0.49997   0.00000  Uiso   1.00
N196   N     0.74228   0.22013   0.46100   0.00000  Uiso   1.00
H197   H     0.74733   0.18956   0.47896   0.00000  Uiso   1.00
H198   H     0.73311   0.24450   0.48437   0.00000  Uiso   1.00
C199   C     0.16665   0.66389   0.25032   0.00000  Uiso   1.00
C200   C     0.16666   0.83601   0.24970   0.00000  Uiso   1.00
C201   C     0.15624   0.70883   0.05318   0.00000  Uiso   1.00
C202   C     0.21311   0.75849   0.45221   0.00000  Uiso   1.00
C203   C     0.15371   0.71156   0.10225   0.00000  Uiso   1.00
C204   C     0.21082   0.76192   0.40264   0.00000  Uiso   1.00
C205   C     0.18299   0.78648   0.10157   0.00000  Uiso   1.00
C206   C     0.12418   0.73344   0.39326   0.00000  Uiso   1.00
C207   C     0.18245   0.78607   0.05199   0.00000  Uiso   1.00
C208   C     0.12342   0.73257   0.44298   0.00000  Uiso   1.00
C209   C     0.16961   0.74649   0.02677   0.00000  Uiso   1.00
C210   C     0.16881   0.74505   0.47351   0.00000  Uiso   1.00
C211   C     0.06728   0.74945   0.23816   0.00000  Uiso   1.00
C212   C     0.26605   0.75081   0.26178   0.00000  Uiso   1.00
C213   C     0.01341   0.74126   0.23382   0.00000  Uiso   1.00
C214   C     0.31982   0.75949   0.26575   0.00000  Uiso   1.00
C215   C     0.15092   0.54617   0.28978   0.00000  Uiso   1.00
C216   C     0.13970   0.95311   0.21068   0.00000  Uiso   1.00
C217   C     0.15215   0.59225   0.29007   0.00000  Uiso   1.00
C218   C     0.14095   0.90707   0.21021   0.00000  Uiso   1.00
C219   C     0.16622   0.61586   0.25071   0.00000  Uiso   1.00
C220   C     0.16632   0.88384   0.24937   0.00000  Uiso   1.00
C221   C     0.17926   0.59336   0.21120   0.00000  Uiso   1.00
C222   C     0.19029   0.90642   0.28905   0.00000  Uiso   1.00
C223   C     0.17827   0.54736   0.21105   0.00000  Uiso   1.00
C224   C     0.18928   0.95242   0.28942   0.00000  Uiso   1.00
C225   C     0.16403   0.52380   0.25028   0.00000  Uiso   1.00
C226   C     0.16399   0.97572   0.25025   0.00000  Uiso   1.00
H227   H     0.13945   0.52797   0.32008   0.00000  Uiso   1.00
H228   H     0.11951   0.97106   0.18051   0.00000  Uiso   1.00
H229   H     0.14156   0.60931   0.32065   0.00000  Uiso   1.00
H230   H     0.12125   0.88968   0.17990   0.00000  Uiso   1.00
H231   H     0.19063   0.61122   0.18066   0.00000  Uiso   1.00
H232   H     0.21019   0.88854   0.31941   0.00000  Uiso   1.00
H233   H     0.18923   0.53015   0.18070   0.00000  Uiso   1.00
H234   H     0.20875   0.96982   0.31986   0.00000  Uiso   1.00
H235   H     0.14791   0.67716   0.03610   0.00000  Uiso   1.00
H236   H     0.24960   0.76648   0.47379   0.00000  Uiso   1.00
H237   H     0.14228   0.68226   0.12120   0.00000  Uiso   1.00
H238   H     0.24511   0.77317   0.38732   0.00000  Uiso   1.00
N239   N     0.16667   0.74999   0.12623   0.00000  Uiso   1.00
N240   N     0.16667   0.75001   0.37376   0.00000  Uiso   1.00
O241   O     0.16667   0.68454   0.28974   0.00000  Uiso   1.00
O242   O     0.16666   0.81547   0.21026   0.00000  Uiso   1.00
O243   O     0.16667   0.68453   0.21026   0.00000  Uiso   1.00
O244   O     0.16666   0.81547   0.28974   0.00000  Uiso   1.00
O245   O     0.09058   0.75000   0.28044   0.00000  Uiso   1.00
O246   O     0.24275   0.75000   0.21955   0.00000  Uiso   1.00
O247   O     0.09058   0.75000   0.20096   0.00000  Uiso   1.00
O248   O     0.24275   0.75001   0.29903   0.00000  Uiso   1.00
Zn249  Zn    0.16667   0.75001   0.30307   0.00000  Uiso   1.00
Zn250  Zn    0.16667   0.75000   0.19693   0.00000  Uiso   1.00
Br251  Br    0.32143   0.69434   0.19039   0.00000  Uiso   1.00
Br252  Br    0.01128   0.80803   0.30716   0.00000  Uiso   1.00
N253   N     0.20296   0.82581   0.12522   0.00000  Uiso   1.00
H254   H     0.22977   0.81698   0.15449   0.00000  Uiso   1.00
H255   H     0.17157   0.84402   0.13436   0.00000  Uiso   1.00
N256   N     0.08099   0.71477   0.36318   0.00000  Uiso   1.00
H257   H     0.07740   0.68110   0.37252   0.00000  Uiso   1.00
H258   H     0.04676   0.73085   0.36944   0.00000  Uiso   1.00
N259   N     0.19317   0.82715   0.02824   0.00000  Uiso   1.00
H260   H     0.22932   0.82510   0.01554   0.00000  Uiso   1.00
H261   H     0.16371   0.83272   0.49997   0.00000  Uiso   1.00
N262   N     0.07562   0.72013   0.46100   0.00000  Uiso   1.00
H263   H     0.08066   0.68956   0.47896   0.00000  Uiso   1.00
H264   H     0.06645   0.74450   0.48437   0.00000  Uiso   1.00
C265   C     0.49998   0.66389   0.25032   0.00000  Uiso   1.00
C266   C     0.49999   0.83601   0.24970   0.00000  Uiso   1.00
C267   C     0.48957   0.70883   0.05318   0.00000  Uiso   1.00
C268   C     0.54644   0.75849   0.45221   0.00000  Uiso   1.00
C269   C     0.48704   0.71156   0.10225   0.00000  Uiso   1.00
C270   C     0.54415   0.76192   0.40264   0.00000  Uiso   1.00
C271   C     0.51632   0.78648   0.10157   0.00000  Uiso   1.00
C272   C     0.45751   0.73344   0.39326   0.00000  Uiso   1.00
C273   C     0.51579   0.78607   0.05199   0.00000  Uiso   1.00
C274   C     0.45675   0.73257   0.44298   0.00000  Uiso   1.00
C275   C     0.50294   0.74649   0.02677   0.00000  Uiso   1.00
C276   C     0.50215   0.74505   0.47351   0.00000  Uiso   1.00
C277   C     0.40061   0.74945   0.23816   0.00000  Uiso   1.00
C278   C     0.59938   0.75081   0.26178   0.00000  Uiso   1.00
C279   C     0.34675   0.74126   0.23382   0.00000  Uiso   1.00
C280   C     0.65315   0.75949   0.26575   0.00000  Uiso   1.00
C281   C     0.48425   0.54617   0.28978   0.00000  Uiso   1.00
C282   C     0.47303   0.95311   0.21068   0.00000  Uiso   1.00
C283   C     0.48548   0.59225   0.29007   0.00000  Uiso   1.00
C284   C     0.47429   0.90707   0.21021   0.00000  Uiso   1.00
C285   C     0.49955   0.61586   0.25071   0.00000  Uiso   1.00
C286   C     0.49965   0.88384   0.24937   0.00000  Uiso   1.00
C287   C     0.51259   0.59336   0.21120   0.00000  Uiso   1.00
C288   C     0.52362   0.90642   0.28905   0.00000  Uiso   1.00
C289   C     0.51161   0.54736   0.21105   0.00000  Uiso   1.00
C290   C     0.52262   0.95242   0.28942   0.00000  Uiso   1.00
C291   C     0.49737   0.52380   0.25028   0.00000  Uiso   1.00
C292   C     0.49732   0.97572   0.25025   0.00000  Uiso   1.00
H293   H     0.47278   0.52797   0.32008   0.00000  Uiso   1.00
H294   H     0.45284   0.97106   0.18051   0.00000  Uiso   1.00
H295   H     0.47490   0.60931   0.32065   0.00000  Uiso   1.00
H296   H     0.45458   0.88968   0.17990   0.00000  Uiso   1.00
H297   H     0.52397   0.61122   0.18066   0.00000  Uiso   1.00
H298   H     0.54353   0.88854   0.31941   0.00000  Uiso   1.00
H299   H     0.52257   0.53015   0.18070   0.00000  Uiso   1.00
H300   H     0.54208   0.96982   0.31986   0.00000  Uiso   1.00
H301   H     0.48124   0.67716   0.03610   0.00000  Uiso   1.00
H302   H     0.58294   0.76648   0.47379   0.00000  Uiso   1.00
H303   H     0.47561   0.68226   0.12120   0.00000  Uiso   1.00
H304   H     0.57845   0.77317   0.38732   0.00000  Uiso   1.00
N305   N     0.50000   0.74999   0.12623   0.00000  Uiso   1.00
N306   N     0.50000   0.75001   0.37376   0.00000  Uiso   1.00
O307   O     0.50000   0.68454   0.28974   0.00000  Uiso   1.00
O308   O     0.50000   0.81547   0.21026   0.00000  Uiso   1.00
O309   O     0.50000   0.68453   0.21026   0.00000  Uiso   1.00
O310   O     0.50000   0.81547   0.28974   0.00000  Uiso   1.00
O311   O     0.42392   0.75000   0.28044   0.00000  Uiso   1.00
O312   O     0.57608   0.75000   0.21955   0.00000  Uiso   1.00
O313   O     0.42392   0.75000   0.20096   0.00000  Uiso   1.00
O314   O     0.57608   0.75001   0.29903   0.00000  Uiso   1.00
Zn315  Zn    0.50000   0.75001   0.30307   0.00000  Uiso   1.00
Zn316  Zn    0.50000   0.75000   0.19693   0.00000  Uiso   1.00
Br317  Br    0.65476   0.69434   0.19039   0.00000  Uiso   1.00
Br318  Br    0.34461   0.80803   0.30716   0.00000  Uiso   1.00
N319   N     0.53629   0.82581   0.12522   0.00000  Uiso   1.00
H320   H     0.56311   0.81698   0.15449   0.00000  Uiso   1.00
H321   H     0.50491   0.84402   0.13436   0.00000  Uiso   1.00
N322   N     0.41432   0.71477   0.36318   0.00000  Uiso   1.00
H323   H     0.41073   0.68110   0.37252   0.00000  Uiso   1.00
H324   H     0.38009   0.73085   0.36944   0.00000  Uiso   1.00
N325   N     0.52650   0.82715   0.02824   0.00000  Uiso   1.00
H326   H     0.56266   0.82510   0.01554   0.00000  Uiso   1.00
H327   H     0.49705   0.83272   0.49997   0.00000  Uiso   1.00
N328   N     0.40895   0.72013   0.46100   0.00000  Uiso   1.00
H329   H     0.41399   0.68956   0.47896   0.00000  Uiso   1.00
H330   H     0.39978   0.74450   0.48437   0.00000  Uiso   1.00
C331   C     0.83331   0.66389   0.25032   0.00000  Uiso   1.00
C332   C     0.83333   0.83601   0.24970   0.00000  Uiso   1.00
C333   C     0.82291   0.70883   0.05318   0.00000  Uiso   1.00
C334   C     0.87978   0.75849   0.45221   0.00000  Uiso   1.00
C335   C     0.82037   0.71156   0.10225   0.00000  Uiso   1.00
C336   C     0.87749   0.76192   0.40264   0.00000  Uiso   1.00
C337   C     0.84965   0.78648   0.10157   0.00000  Uiso   1.00
C338   C     0.79084   0.73344   0.39326   0.00000  Uiso   1.00
C339   C     0.84912   0.78607   0.05199   0.00000  Uiso   1.00
C340   C     0.79008   0.73257   0.44298   0.00000  Uiso   1.00
C341   C     0.83627   0.74649   0.02677   0.00000  Uiso   1.00
C342   C     0.83548   0.74505   0.47351   0.00000  Uiso   1.00
C343   C     0.73395   0.74945   0.23816   0.00000  Uiso   1.00
C344   C     0.93271   0.75081   0.26178   0.00000  Uiso   1.00
C345   C     0.68008   0.74126   0.23382   0.00000  Uiso   1.00
C346   C     0.98649   0.75949   0.26575   0.00000  Uiso   1.00
C347   C     0.81759   0.54617   0.28978   0.00000  Uiso   1.00
C348   C     0.80637   0.95311   0.21068   0.00000  Uiso   1.00
C349   C     0.81882   0.59225   0.29007   0.00000  Uiso   1.00
C350   C     0.80762   0.90707   0.21021   0.00000  Uiso   1.00
C351   C     0.83289   0.61586   0.25071   0.00000  Uiso   1.00
C352   C     0.83299   0.88384   0.24937   0.00000  Uiso   1.00
C353   C     0.84592   0.59336   0.21120   0.00000  Uiso   1.00
C354   C     0.85695   0.90642   0.28905   0.00000  Uiso   1.00
C355   C     0.84494   0.54736   0.21105   0.00000  Uiso   1.00
C356   C     0.85595   0.95242   0.28942   0.00000  Uiso   1.00
C357   C     0.83070   0.52380   0.25028   0.00000  Uiso   1.00
C358   C     0.83066   0.97572   0.25025   0.00000  Uiso   1.00
H359   H     0.80612   0.52797   0.32008   0.00000  Uiso   1.00
H360   H     0.78617   0.97106   0.18051   0.00000  Uiso   1.00
H361   H     0.80823   0.60931   0.32065   0.00000  Uiso   1.00
H362   H     0.78792   0.88968   0.17990   0.00000  Uiso   1.00
H363   H     0.85730   0.61122   0.18066   0.00000  Uiso   1.00
H364   H     0.87686   0.88854   0.31941   0.00000  Uiso   1.00
H365   H     0.85590   0.53015   0.18070   0.00000  Uiso   1.00
H366   H     0.87542   0.96982   0.31986   0.00000  Uiso   1.00
H367   H     0.81457   0.67716   0.03610   0.00000  Uiso   1.00
H368   H     0.91627   0.76648   0.47379   0.00000  Uiso   1.00
H369   H     0.80895   0.68226   0.12120   0.00000  Uiso   1.00
H370   H     0.91178   0.77317   0.38732   0.00000  Uiso   1.00
N371   N     0.83333   0.74999   0.12623   0.00000  Uiso   1.00
N372   N     0.83333   0.75001   0.37376   0.00000  Uiso   1.00
O373   O     0.83334   0.68454   0.28974   0.00000  Uiso   1.00
O374   O     0.83333   0.81547   0.21026   0.00000  Uiso   1.00
O375   O     0.83334   0.68453   0.21026   0.00000  Uiso   1.00
O376   O     0.83333   0.81547   0.28974   0.00000  Uiso   1.00
O377   O     0.75725   0.75000   0.28044   0.00000  Uiso   1.00
O378   O     0.90942   0.75000   0.21955   0.00000  Uiso   1.00
O379   O     0.75725   0.75000   0.20096   0.00000  Uiso   1.00
O380   O     0.90942   0.75001   0.29903   0.00000  Uiso   1.00
Zn381  Zn    0.83333   0.75001   0.30307   0.00000  Uiso   1.00
Zn382  Zn    0.83333   0.75000   0.19693   0.00000  Uiso   1.00
Br383  Br    0.98809   0.69434   0.19039   0.00000  Uiso   1.00
Br384  Br    0.67795   0.80803   0.30716   0.00000  Uiso   1.00
N385   N     0.86963   0.82581   0.12522   0.00000  Uiso   1.00
H386   H     0.89644   0.81698   0.15449   0.00000  Uiso   1.00
H387   H     0.83824   0.84402   0.13436   0.00000  Uiso   1.00
N388   N     0.74765   0.71477   0.36318   0.00000  Uiso   1.00
H389   H     0.74407   0.68110   0.37252   0.00000  Uiso   1.00
H390   H     0.71343   0.73085   0.36944   0.00000  Uiso   1.00
N391   N     0.85984   0.82715   0.02824   0.00000  Uiso   1.00
H392   H     0.89599   0.82510   0.01554   0.00000  Uiso   1.00
H393   H     0.83038   0.83272   0.49997   0.00000  Uiso   1.00
N394   N     0.74228   0.72013   0.46100   0.00000  Uiso   1.00
H395   H     0.74733   0.68956   0.47896   0.00000  Uiso   1.00
H396   H     0.73311   0.74450   0.48437   0.00000  Uiso   1.00
C397   C     0.16665   0.16389   0.75032   0.00000  Uiso   1.00
C398   C     0.16666   0.33601   0.74970   0.00000  Uiso   1.00
C399   C     0.15624   0.20883   0.55318   0.00000  Uiso   1.00
C400   C     0.21311   0.25849   0.95221   0.00000  Uiso   1.00
C401   C     0.15371   0.21156   0.60225   0.00000  Uiso   1.00
C402   C     0.21082   0.26192   0.90264   0.00000  Uiso   1.00
C403   C     0.18299   0.28648   0.60157   0.00000  Uiso   1.00
C404   C     0.12418   0.23344   0.89326   0.00000  Uiso   1.00
C405   C     0.18245   0.28607   0.55199   0.00000  Uiso   1.00
C406   C     0.12342   0.23257   0.94298   0.00000  Uiso   1.00
C407   C     0.16961   0.24649   0.52677   0.00000  Uiso   1.00
C408   C     0.16881   0.24505   0.97351   0.00000  Uiso   1.00
C409   C     0.06728   0.24945   0.73816   0.00000  Uiso   1.00
C410   C     0.26605   0.25081   0.76178   0.00000  Uiso   1.00
C411   C     0.01341   0.24126   0.73382   0.00000  Uiso   1.00
C412   C     0.31982   0.25949   0.76575   0.00000  Uiso   1.00
C413   C     0.15092   0.04617   0.78978   0.00000  Uiso   1.00
C414   C     0.13970   0.45311   0.71068   0.00000  Uiso   1.00
C415   C     0.15215   0.09225   0.79007   0.00000  Uiso   1.00
C416   C     0.14095   0.40707   0.71021   0.00000  Uiso   1.00
C417   C     0.16622   0.11586   0.75071   0.00000  Uiso   1.00
C418   C     0.16632   0.38384   0.74937   0.00000  Uiso   1.00
C419   C     0.17926   0.09336   0.71120   0.00000  Uiso   1.00
C420   C     0.19029   0.40642   0.78905   0.00000  Uiso   1.00
C421   C     0.17827   0.04736   0.71105   0.00000  Uiso   1.00
C422   C     0.18928   0.45242   0.78942   0.00000  Uiso   1.00
C423   C     0.16403   0.02380   0.75028   0.00000  Uiso   1.00
C424   C     0.16399   0.47572   0.75025   0.00000  Uiso   1.00
H425   H     0.13945   0.02797   0.82008   0.00000  Uiso   1.00
H426   H     0.11951   0.47106   0.68051   0.00000  Uiso   1.00
H427   H     0.14156   0.10931   0.82065   0.00000  Uiso   1.00
H428   H     0.12125   0.38968   0.67990   0.00000  Uiso   1.00
H429   H     0.19063   0.11122   0.68066   0.00000  Uiso   1.00
H430   H     0.21019   0.38854   0.81941   0.00000  Uiso   1.00
H431   H     0.18923   0.03015   0.68070   0.00000  Uiso   1.00
H432   H     0.20875   0.46982   0.81986   0.00000  Uiso   1.00
H433   H     0.14791   0.17716   0.53610   0.00000  Uiso   1.00
H434   H     0.24960   0.26648   0.97379   0.00000  Uiso   1.00
H435   H     0.14228   0.18226   0.62120   0.00000  Uiso   1.00
H436   H     0.24511   0.27317   0.88732   0.00000  Uiso   1.00
N437   N     0.16667   0.24999   0.62623   0.00000  Uiso   1.00
N438   N     0.16667   0.25001   0.87376   0.00000  Uiso   1.00
O439   O     0.16667   0.18454   0.78974   0.00000  Uiso   1.00
O440   O     0.16666   0.31547   0.71026   0.00000  Uiso   1.00
O441   O     0.16667   0.18453   0.71026   0.00000  Uiso   1.00
O442   O     0.16666   0.31547   0.78974   0.00000  Uiso   1.00
O443   O     0.09058   0.25000   0.78044   0.00000  Uiso   1.00
O444   O     0.24275   0.25000   0.71955   0.00000  Uiso   1.00
O445   O     0.09058   0.25000   0.70096   0.00000  Uiso   1.00
O446   O     0.24275   0.25001   0.79903   0.00000  Uiso   1.00
Zn447  Zn    0.16667   0.25001   0.80307   0.00000  Uiso   1.00
Zn448  Zn    0.16667   0.25000   0.69693   0.00000  Uiso   1.00
Br449  Br    0.32143   0.19434   0.69039   0.00000  Uiso   1.00
Br450  Br    0.01128   0.30803   0.80716   0.00000  Uiso   1.00
N451   N     0.20296   0.32581   0.62522   0.00000  Uiso   1.00
H452   H     0.22977   0.31698   0.65449   0.00000  Uiso   1.00
H453   H     0.17157   0.34402   0.63436   0.00000  Uiso   1.00
N454   N     0.08099   0.21477   0.86318   0.00000  Uiso   1.00
H455   H     0.07740   0.18110   0.87252   0.00000  Uiso   1.00
H456   H     0.04676   0.23085   0.86944   0.00000  Uiso   1.00
N457   N     0.19317   0.32715   0.52824   0.00000  Uiso   1.00
H458   H     0.22932   0.32510   0.51554   0.00000  Uiso   1.00
H459   H     0.16371   0.33272   0.99997   0.00000  Uiso   1.00
N460   N     0.07562   0.22013   0.96100   0.00000  Uiso   1.00
H461   H     0.08066   0.18956   0.97896   0.00000  Uiso   1.00
H462   H     0.06645   0.24450   0.98437   0.00000  Uiso   1.00
C463   C     0.49998   0.16389   0.75032   0.00000  Uiso   1.00
C464   C     0.49999   0.33601   0.74970   0.00000  Uiso   1.00
C465   C     0.48957   0.20883   0.55318   0.00000  Uiso   1.00
C466   C     0.54644   0.25849   0.95221   0.00000  Uiso   1.00
C467   C     0.48704   0.21156   0.60225   0.00000  Uiso   1.00
C468   C     0.54415   0.26192   0.90264   0.00000  Uiso   1.00
C469   C     0.51632   0.28648   0.60157   0.00000  Uiso   1.00
C470   C     0.45751   0.23344   0.89326   0.00000  Uiso   1.00
C471   C     0.51579   0.28607   0.55199   0.00000  Uiso   1.00
C472   C     0.45675   0.23257   0.94298   0.00000  Uiso   1.00
C473   C     0.50294   0.24649   0.52677   0.00000  Uiso   1.00
C474   C     0.50215   0.24505   0.97351   0.00000  Uiso   1.00
C475   C     0.40061   0.24945   0.73816   0.00000  Uiso   1.00
C476   C     0.59938   0.25081   0.76178   0.00000  Uiso   1.00
C477   C     0.34675   0.24126   0.73382   0.00000  Uiso   1.00
C478   C     0.65315   0.25949   0.76575   0.00000  Uiso   1.00
C479   C     0.48425   0.04617   0.78978   0.00000  Uiso   1.00
C480   C     0.47303   0.45311   0.71068   0.00000  Uiso   1.00
C481   C     0.48548   0.09225   0.79007   0.00000  Uiso   1.00
C482   C     0.47429   0.40707   0.71021   0.00000  Uiso   1.00
C483   C     0.49955   0.11586   0.75071   0.00000  Uiso   1.00
C484   C     0.49965   0.38384   0.74937   0.00000  Uiso   1.00
C485   C     0.51259   0.09336   0.71120   0.00000  Uiso   1.00
C486   C     0.52362   0.40642   0.78905   0.00000  Uiso   1.00
C487   C     0.51161   0.04736   0.71105   0.00000  Uiso   1.00
C488   C     0.52262   0.45242   0.78942   0.00000  Uiso   1.00
C489   C     0.49737   0.02380   0.75028   0.00000  Uiso   1.00
C490   C     0.49732   0.47572   0.75025   0.00000  Uiso   1.00
H491   H     0.47278   0.02797   0.82008   0.00000  Uiso   1.00
H492   H     0.45284   0.47106   0.68051   0.00000  Uiso   1.00
H493   H     0.47490   0.10931   0.82065   0.00000  Uiso   1.00
H494   H     0.45458   0.38968   0.67990   0.00000  Uiso   1.00
H495   H     0.52397   0.11122   0.68066   0.00000  Uiso   1.00
H496   H     0.54353   0.38854   0.81941   0.00000  Uiso   1.00
H497   H     0.52257   0.03015   0.68070   0.00000  Uiso   1.00
H498   H     0.54208   0.46982   0.81986   0.00000  Uiso   1.00
H499   H     0.48124   0.17716   0.53610   0.00000  Uiso   1.00
H500   H     0.58294   0.26648   0.97379   0.00000  Uiso   1.00
H501   H     0.47561   0.18226   0.62120   0.00000  Uiso   1.00
H502   H     0.57845   0.27317   0.88732   0.00000  Uiso   1.00
N503   N     0.50000   0.24999   0.62623   0.00000  Uiso   1.00
N504   N     0.50000   0.25001   0.87376   0.00000  Uiso   1.00
O505   O     0.50000   0.18454   0.78974   0.00000  Uiso   1.00
O506   O     0.50000   0.31547   0.71026   0.00000  Uiso   1.00
O507   O     0.50000   0.18453   0.71026   0.00000  Uiso   1.00
O508   O     0.50000   0.31547   0.78974   0.00000  Uiso   1.00
O509   O     0.42392   0.25000   0.78044   0.00000  Uiso   1.00
O510   O     0.57608   0.25000   0.71955   0.00000  Uiso   1.00
O511   O     0.42392   0.25000   0.70096   0.00000  Uiso   1.00
O512   O     0.57608   0.25001   0.79903   0.00000  Uiso   1.00
Zn513  Zn    0.50000   0.25001   0.80307   0.00000  Uiso   1.00
Zn514  Zn    0.50000   0.25000   0.69693   0.00000  Uiso   1.00
Br515  Br    0.65476   0.19434   0.69039   0.00000  Uiso   1.00
Br516  Br    0.34461   0.30803   0.80716   0.00000  Uiso   1.00
N517   N     0.53629   0.32581   0.62522   0.00000  Uiso   1.00
H518   H     0.56311   0.31698   0.65449   0.00000  Uiso   1.00
H519   H     0.50491   0.34402   0.63436   0.00000  Uiso   1.00
N520   N     0.41432   0.21477   0.86318   0.00000  Uiso   1.00
H521   H     0.41073   0.18110   0.87252   0.00000  Uiso   1.00
H522   H     0.38009   0.23085   0.86944   0.00000  Uiso   1.00
N523   N     0.52650   0.32715   0.52824   0.00000  Uiso   1.00
H524   H     0.56266   0.32510   0.51554   0.00000  Uiso   1.00
H525   H     0.49705   0.33272   0.99997   0.00000  Uiso   1.00
N526   N     0.40895   0.22013   0.96100   0.00000  Uiso   1.00
H527   H     0.41399   0.18956   0.97896   0.00000  Uiso   1.00
H528   H     0.39978   0.24450   0.98437   0.00000  Uiso   1.00
C529   C     0.83331   0.16389   0.75032   0.00000  Uiso   1.00
C530   C     0.83333   0.33601   0.74970   0.00000  Uiso   1.00
C531   C     0.82291   0.20883   0.55318   0.00000  Uiso   1.00
C532   C     0.87978   0.25849   0.95221   0.00000  Uiso   1.00
C533   C     0.82037   0.21156   0.60225   0.00000  Uiso   1.00
C534   C     0.87749   0.26192   0.90264   0.00000  Uiso   1.00
C535   C     0.84965   0.28648   0.60157   0.00000  Uiso   1.00
C536   C     0.79084   0.23344   0.89326   0.00000  Uiso   1.00
C537   C     0.84912   0.28607   0.55199   0.00000  Uiso   1.00
C538   C     0.79008   0.23257   0.94298   0.00000  Uiso   1.00
C539   C     0.83627   0.24649   0.52677   0.00000  Uiso   1.00
C540   C     0.83548   0.24505   0.97351   0.00000  Uiso   1.00
C541   C     0.73395   0.24945   0.73816   0.00000  Uiso   1.00
C542   C     0.93271   0.25081   0.76178   0.00000  Uiso   1.00
C543   C     0.68008   0.24126   0.73382   0.00000  Uiso   1.00
C544   C     0.98649   0.25949   0.76575   0.00000  Uiso   1.00
C545   C     0.81759   0.04617   0.78978   0.00000  Uiso   1.00
C546   C     0.80637   0.45311   0.71068   0.00000  Uiso   1.00
C547   C     0.81882   0.09225   0.79007   0.00000  Uiso   1.00
C548   C     0.80762   0.40707   0.71021   0.00000  Uiso   1.00
C549   C     0.83289   0.11586   0.75071   0.00000  Uiso   1.00
C550   C     0.83299   0.38384   0.74937   0.00000  Uiso   1.00
C551   C     0.84592   0.09336   0.71120   0.00000  Uiso   1.00
C552   C     0.85695   0.40642   0.78905   0.00000  Uiso   1.00
C553   C     0.84494   0.04736   0.71105   0.00000  Uiso   1.00
C554   C     0.85595   0.45242   0.78942   0.00000  Uiso   1.00
C555   C     0.83070   0.02380   0.75028   0.00000  Uiso   1.00
C556   C     0.83066   0.47572   0.75025   0.00000  Uiso   1.00
H557   H     0.80612   0.02797   0.82008   0.00000  Uiso   1.00
H558   H     0.78617   0.47106   0.68051   0.00000  Uiso   1.00
H559   H     0.80823   0.10931   0.82065   0.00000  Uiso   1.00
H560   H     0.78792   0.38968   0.67990   0.00000  Uiso   1.00
H561   H     0.85730   0.11122   0.68066   0.00000  Uiso   1.00
H562   H     0.87686   0.38854   0.81941   0.00000  Uiso   1.00
H563   H     0.85590   0.03015   0.68070   0.00000  Uiso   1.00
H564   H     0.87542   0.46982   0.81986   0.00000  Uiso   1.00
H565   H     0.81457   0.17716   0.53610   0.00000  Uiso   1.00
H566   H     0.91627   0.26648   0.97379   0.00000  Uiso   1.00
H567   H     0.80895   0.18226   0.62120   0.00000  Uiso   1.00
H568   H     0.91178   0.27317   0.88732   0.00000  Uiso   1.00
N569   N     0.83333   0.24999   0.62623   0.00000  Uiso   1.00
N570   N     0.83333   0.25001   0.87376   0.00000  Uiso   1.00
O571   O     0.83334   0.18454   0.78974   0.00000  Uiso   1.00
O572   O     0.83333   0.31547   0.71026   0.00000  Uiso   1.00
O573   O     0.83334   0.18453   0.71026   0.00000  Uiso   1.00
O574   O     0.83333   0.31547   0.78974   0.00000  Uiso   1.00
O575   O     0.75725   0.25000   0.78044   0.00000  Uiso   1.00
O576   O     0.90942   0.25000   0.71955   0.00000  Uiso   1.00
O577   O     0.75725   0.25000   0.70096   0.00000  Uiso   1.00
O578   O     0.90942   0.25001   0.79903   0.00000  Uiso   1.00
Zn579  Zn    0.83333   0.25001   0.80307   0.00000  Uiso   1.00
Zn580  Zn    0.83333   0.25000   0.69693   0.00000  Uiso   1.00
Br581  Br    0.98809   0.19434   0.69039   0.00000  Uiso   1.00
Br582  Br    0.67795   0.30803   0.80716   0.00000  Uiso   1.00
N583   N     0.86963   0.32581   0.62522   0.00000  Uiso   1.00
H584   H     0.89644   0.31698   0.65449   0.00000  Uiso   1.00
H585   H     0.83824   0.34402   0.63436   0.00000  Uiso   1.00
N586   N     0.74765   0.21477   0.86318   0.00000  Uiso   1.00
H587   H     0.74407   0.18110   0.87252   0.00000  Uiso   1.00
H588   H     0.71343   0.23085   0.86944   0.00000  Uiso   1.00
N589   N     0.85984   0.32715   0.52824   0.00000  Uiso   1.00
H590   H     0.89599   0.32510   0.51554   0.00000  Uiso   1.00
H591   H     0.83038   0.33272   0.99997   0.00000  Uiso   1.00
N592   N     0.74228   0.22013   0.96100   0.00000  Uiso   1.00
H593   H     0.74733   0.18956   0.97896   0.00000  Uiso   1.00
H594   H     0.73311   0.24450   0.98437   0.00000  Uiso   1.00
C595   C     0.16665   0.66389   0.75032   0.00000  Uiso   1.00
C596   C     0.16666   0.83601   0.74970   0.00000  Uiso   1.00
C597   C     0.15624   0.70883   0.55318   0.00000  Uiso   1.00
C598   C     0.21311   0.75849   0.95221   0.00000  Uiso   1.00
C599   C     0.15371   0.71156   0.60225   0.00000  Uiso   1.00
C600   C     0.21082   0.76192   0.90264   0.00000  Uiso   1.00
C601   C     0.18299   0.78648   0.60157   0.00000  Uiso   1.00
C602   C     0.12418   0.73344   0.89326   0.00000  Uiso   1.00
C603   C     0.18245   0.78607   0.55199   0.00000  Uiso   1.00
C604   C     0.12342   0.73257   0.94298   0.00000  Uiso   1.00
C605   C     0.16961   0.74649   0.52677   0.00000  Uiso   1.00
C606   C     0.16881   0.74505   0.97351   0.00000  Uiso   1.00
C607   C     0.06728   0.74945   0.73816   0.00000  Uiso   1.00
C608   C     0.26605   0.75081   0.76178   0.00000  Uiso   1.00
C609   C     0.01341   0.74126   0.73382   0.00000  Uiso   1.00
C610   C     0.31982   0.75949   0.76575   0.00000  Uiso   1.00
C611   C     0.15092   0.54617   0.78978   0.00000  Uiso   1.00
C612   C     0.13970   0.95311   0.71068   0.00000  Uiso   1.00
C613   C     0.15215   0.59225   0.79007   0.00000  Uiso   1.00
C614   C     0.14095   0.90707   0.71021   0.00000  Uiso   1.00
C615   C     0.16622   0.61586   0.75071   0.00000  Uiso   1.00
C616   C     0.16632   0.88384   0.74937   0.00000  Uiso   1.00
C617   C     0.17926   0.59336   0.71120   0.00000  Uiso   1.00
C618   C     0.19029   0.90642   0.78905   0.00000  Uiso   1.00
C619   C     0.17827   0.54736   0.71105   0.00000  Uiso   1.00
C620   C     0.18928   0.95242   0.78942   0.00000  Uiso   1.00
C621   C     0.16403   0.52380   0.75028   0.00000  Uiso   1.00
C622   C     0.16399   0.97572   0.75025   0.00000  Uiso   1.00
H623   H     0.13945   0.52797   0.82008   0.00000  Uiso   1.00
H624   H     0.11951   0.97106   0.68051   0.00000  Uiso   1.00
H625   H     0.14156   0.60931   0.82065   0.00000  Uiso   1.00
H626   H     0.12125   0.88968   0.67990   0.00000  Uiso   1.00
H627   H     0.19063   0.61122   0.68066   0.00000  Uiso   1.00
H628   H     0.21019   0.88854   0.81941   0.00000  Uiso   1.00
H629   H     0.18923   0.53015   0.68070   0.00000  Uiso   1.00
H630   H     0.20875   0.96982   0.81986   0.00000  Uiso   1.00
H631   H     0.14791   0.67716   0.53610   0.00000  Uiso   1.00
H632   H     0.24960   0.76648   0.97379   0.00000  Uiso   1.00
H633   H     0.14228   0.68226   0.62120   0.00000  Uiso   1.00
H634   H     0.24511   0.77317   0.88732   0.00000  Uiso   1.00
N635   N     0.16667   0.74999   0.62623   0.00000  Uiso   1.00
N636   N     0.16667   0.75001   0.87376   0.00000  Uiso   1.00
O637   O     0.16667   0.68454   0.78974   0.00000  Uiso   1.00
O638   O     0.16666   0.81547   0.71026   0.00000  Uiso   1.00
O639   O     0.16667   0.68453   0.71026   0.00000  Uiso   1.00
O640   O     0.16666   0.81547   0.78974   0.00000  Uiso   1.00
O641   O     0.09058   0.75000   0.78044   0.00000  Uiso   1.00
O642   O     0.24275   0.75000   0.71955   0.00000  Uiso   1.00
O643   O     0.09058   0.75000   0.70096   0.00000  Uiso   1.00
O644   O     0.24275   0.75001   0.79903   0.00000  Uiso   1.00
Zn645  Zn    0.16667   0.75001   0.80307   0.00000  Uiso   1.00
Zn646  Zn    0.16667   0.75000   0.69693   0.00000  Uiso   1.00
Br647  Br    0.32143   0.69434   0.69039   0.00000  Uiso   1.00
Br648  Br    0.01128   0.80803   0.80716   0.00000  Uiso   1.00
N649   N     0.20296   0.82581   0.62522   0.00000  Uiso   1.00
H650   H     0.22977   0.81698   0.65449   0.00000  Uiso   1.00
H651   H     0.17157   0.84402   0.63436   0.00000  Uiso   1.00
N652   N     0.08099   0.71477   0.86318   0.00000  Uiso   1.00
H653   H     0.07740   0.68110   0.87252   0.00000  Uiso   1.00
H654   H     0.04676   0.73085   0.86944   0.00000  Uiso   1.00
N655   N     0.19317   0.82715   0.52824   0.00000  Uiso   1.00
H656   H     0.22932   0.82510   0.51554   0.00000  Uiso   1.00
H657   H     0.16371   0.83272   0.99997   0.00000  Uiso   1.00
N658   N     0.07562   0.72013   0.96100   0.00000  Uiso   1.00
H659   H     0.08066   0.68956   0.97896   0.00000  Uiso   1.00
H660   H     0.06645   0.74450   0.98437   0.00000  Uiso   1.00
C661   C     0.49998   0.66389   0.75032   0.00000  Uiso   1.00
C662   C     0.49999   0.83601   0.74970   0.00000  Uiso   1.00
C663   C     0.48957   0.70883   0.55318   0.00000  Uiso   1.00
C664   C     0.54644   0.75849   0.95221   0.00000  Uiso   1.00
C665   C     0.48704   0.71156   0.60225   0.00000  Uiso   1.00
C666   C     0.54415   0.76192   0.90264   0.00000  Uiso   1.00
C667   C     0.51632   0.78648   0.60157   0.00000  Uiso   1.00
C668   C     0.45751   0.73344   0.89326   0.00000  Uiso   1.00
C669   C     0.51579   0.78607   0.55199   0.00000  Uiso   1.00
C670   C     0.45675   0.73257   0.94298   0.00000  Uiso   1.00
C671   C     0.50294   0.74649   0.52677   0.00000  Uiso   1.00
C672   C     0.50215   0.74505   0.97351   0.00000  Uiso   1.00
C673   C     0.40061   0.74945   0.73816   0.00000  Uiso   1.00
C674   C     0.59938   0.75081   0.76178   0.00000  Uiso   1.00
C675   C     0.34675   0.74126   0.73382   0.00000  Uiso   1.00
C676   C     0.65315   0.75949   0.76575   0.00000  Uiso   1.00
C677   C     0.48425   0.54617   0.78978   0.00000  Uiso   1.00
C678   C     0.47303   0.95311   0.71068   0.00000  Uiso   1.00
C679   C     0.48548   0.59225   0.79007   0.00000  Uiso   1.00
C680   C     0.47429   0.90707   0.71021   0.00000  Uiso   1.00
C681   C     0.49955   0.61586   0.75071   0.00000  Uiso   1.00
C682   C     0.49965   0.88384   0.74937   0.00000  Uiso   1.00
C683   C     0.51259   0.59336   0.71120   0.00000  Uiso   1.00
C684   C     0.52362   0.90642   0.78905   0.00000  Uiso   1.00
C685   C     0.51161   0.54736   0.71105   0.00000  Uiso   1.00
C686   C     0.52262   0.95242   0.78942   0.00000  Uiso   1.00
C687   C     0.49737   0.52380   0.75028   0.00000  Uiso   1.00
C688   C     0.49732   0.97572   0.75025   0.00000  Uiso   1.00
H689   H     0.47278   0.52797   0.82008   0.00000  Uiso   1.00
H690   H     0.45284   0.97106   0.68051   0.00000  Uiso   1.00
H691   H     0.47490   0.60931   0.82065   0.00000  Uiso   1.00
H692   H     0.45458   0.88968   0.67990   0.00000  Uiso   1.00
H693   H     0.52397   0.61122   0.68066   0.00000  Uiso   1.00
H694   H     0.54353   0.88854   0.81941   0.00000  Uiso   1.00
H695   H     0.52257   0.53015   0.68070   0.00000  Uiso   1.00
H696   H     0.54208   0.96982   0.81986   0.00000  Uiso   1.00
H697   H     0.48124   0.67716   0.53610   0.00000  Uiso   1.00
H698   H     0.58294   0.76648   0.97379   0.00000  Uiso   1.00
H699   H     0.47561   0.68226   0.62120   0.00000  Uiso   1.00
H700   H     0.57845   0.77317   0.88732   0.00000  Uiso   1.00
N701   N     0.50000   0.74999   0.62623   0.00000  Uiso   1.00
N702   N     0.50000   0.75001   0.87376   0.00000  Uiso   1.00
O703   O     0.50000   0.68454   0.78974   0.00000  Uiso   1.00
O704   O     0.50000   0.81547   0.71026   0.00000  Uiso   1.00
O705   O     0.50000   0.68453   0.71026   0.00000  Uiso   1.00
O706   O     0.50000   0.81547   0.78974   0.00000  Uiso   1.00
O707   O     0.42392   0.75000   0.78044   0.00000  Uiso   1.00
O708   O     0.57608   0.75000   0.71955   0.00000  Uiso   1.00
O709   O     0.42392   0.75000   0.70096   0.00000  Uiso   1.00
O710   O     0.57608   0.75001   0.79903   0.00000  Uiso   1.00
Zn711  Zn    0.50000   0.75001   0.80307   0.00000  Uiso   1.00
Zn712  Zn    0.50000   0.75000   0.69693   0.00000  Uiso   1.00
Br713  Br    0.65476   0.69434   0.69039   0.00000  Uiso   1.00
Br714  Br    0.34461   0.80803   0.80716   0.00000  Uiso   1.00
N715   N     0.53629   0.82581   0.62522   0.00000  Uiso   1.00
H716   H     0.56311   0.81698   0.65449   0.00000  Uiso   1.00
H717   H     0.50491   0.84402   0.63436   0.00000  Uiso   1.00
N718   N     0.41432   0.71477   0.86318   0.00000  Uiso   1.00
H719   H     0.41073   0.68110   0.87252   0.00000  Uiso   1.00
H720   H     0.38009   0.73085   0.86944   0.00000  Uiso   1.00
N721   N     0.52650   0.82715   0.52824   0.00000  Uiso   1.00
H722   H     0.56266   0.82510   0.51554   0.00000  Uiso   1.00
H723   H     0.49705   0.83272   0.99997   0.00000  Uiso   1.00
N724   N     0.40895   0.72013   0.96100   0.00000  Uiso   1.00
H725   H     0.41399   0.68956   0.97896   0.00000  Uiso   1.00
H726   H     0.39978   0.74450   0.98437   0.00000  Uiso   1.00
C727   C     0.83331   0.66389   0.75032   0.00000  Uiso   1.00
C728   C     0.83333   0.83601   0.74970   0.00000  Uiso   1.00
C729   C     0.82291   0.70883   0.55318   0.00000  Uiso   1.00
C730   C     0.87978   0.75849   0.95221   0.00000  Uiso   1.00
C731   C     0.82037   0.71156   0.60225   0.00000  Uiso   1.00
C732   C     0.87749   0.76192   0.90264   0.00000  Uiso   1.00
C733   C     0.84965   0.78648   0.60157   0.00000  Uiso   1.00
C734   C     0.79084   0.73344   0.89326   0.00000  Uiso   1.00
C735   C     0.84912   0.78607   0.55199   0.00000  Uiso   1.00
C736   C     0.79008   0.73257   0.94298   0.00000  Uiso   1.00
C737   C     0.83627   0.74649   0.52677   0.00000  Uiso   1.00
C738   C     0.83548   0.74505   0.97351   0.00000  Uiso   1.00
C739   C     0.73395   0.74945   0.73816   0.00000  Uiso   1.00
C740   C     0.93271   0.75081   0.76178   0.00000  Uiso   1.00
C741   C     0.68008   0.74126   0.73382   0.00000  Uiso   1.00
C742   C     0.98649   0.75949   0.76575   0.00000  Uiso   1.00
C743   C     0.81759   0.54617   0.78978   0.00000  Uiso   1.00
C744   C     0.80637   0.95311   0.71068   0.00000  Uiso   1.00
C745   C     0.81882   0.59225   0.79007   0.00000  Uiso   1.00
C746   C     0.80762   0.90707   0.71021   0.00000  Uiso   1.00
C747   C     0.83289   0.61586   0.75071   0.00000  Uiso   1.00
C748   C     0.83299   0.88384   0.74937   0.00000  Uiso   1.00
C749   C     0.84592   0.59336   0.71120   0.00000  Uiso   1.00
C750   C     0.85695   0.90642   0.78905   0.00000  Uiso   1.00
C751   C     0.84494   0.54736   0.71105   0.00000  Uiso   1.00
C752   C     0.85595   0.95242   0.78942   0.00000  Uiso   1.00
C753   C     0.83070   0.52380   0.75028   0.00000  Uiso   1.00
C754   C     0.83066   0.97572   0.75025   0.00000  Uiso   1.00
H755   H     0.80612   0.52797   0.82008   0.00000  Uiso   1.00
H756   H     0.78617   0.97106   0.68051   0.00000  Uiso   1.00
H757   H     0.80823   0.60931   0.82065   0.00000  Uiso   1.00
H758   H     0.78792   0.88968   0.67990   0.00000  Uiso   1.00
H759   H     0.85730   0.61122   0.68066   0.00000  Uiso   1.00
H760   H     0.87686   0.88854   0.81941   0.00000  Uiso   1.00
H761   H     0.85590   0.53015   0.68070   0.00000  Uiso   1.00
H762   H     0.87542   0.96982   0.81986   0.00000  Uiso   1.00
H763   H     0.81457   0.67716   0.53610   0.00000  Uiso   1.00
H764   H     0.91627   0.76648   0.97379   0.00000  Uiso   1.00
H765   H     0.80895   0.68226   0.62120   0.00000  Uiso   1.00
H766   H     0.91178   0.77317   0.88732   0.00000  Uiso   1.00
N767   N     0.83333   0.74999   0.62623   0.00000  Uiso   1.00
N768   N     0.83333   0.75001   0.87376   0.00000  Uiso   1.00
O769   O     0.83334   0.68454   0.78974   0.00000  Uiso   1.00
O770   O     0.83333   0.81547   0.71026   0.00000  Uiso   1.00
O771   O     0.83334   0.68453   0.71026   0.00000  Uiso   1.00
O772   O     0.83333   0.81547   0.78974   0.00000  Uiso   1.00
O773   O     0.75725   0.75000   0.78044   0.00000  Uiso   1.00
O774   O     0.90942   0.75000   0.71955   0.00000  Uiso   1.00
O775   O     0.75725   0.75000   0.70096   0.00000  Uiso   1.00
O776   O     0.90942   0.75001   0.79903   0.00000  Uiso   1.00
Zn777  Zn    0.83333   0.75001   0.80307   0.00000  Uiso   1.00
Zn778  Zn    0.83333   0.75000   0.69693   0.00000  Uiso   1.00
Br779  Br    0.98809   0.69434   0.69039   0.00000  Uiso   1.00
Br780  Br    0.67795   0.80803   0.80716   0.00000  Uiso   1.00
N781   N     0.86963   0.82581   0.62522   0.00000  Uiso   1.00
H782   H     0.89644   0.81698   0.65449   0.00000  Uiso   1.00
H783   H     0.83824   0.84402   0.63436   0.00000  Uiso   1.00
N784   N     0.74765   0.71477   0.86318   0.00000  Uiso   1.00
H785   H     0.74407   0.68110   0.87252   0.00000  Uiso   1.00
H786   H     0.71343   0.73085   0.86944   0.00000  Uiso   1.00
N787   N     0.85984   0.82715   0.52824   0.00000  Uiso   1.00
H788   H     0.89599   0.82510   0.51554   0.00000  Uiso   1.00
H789   H     0.83038   0.83272   0.99997   0.00000  Uiso   1.00
N790   N     0.74228   0.72013   0.96100   0.00000  Uiso   1.00
H791   H     0.74733   0.68956   0.97896   0.00000  Uiso   1.00
H792   H     0.73311   0.74450   0.98437   0.00000  Uiso   1.00
loop_
_geom_bond_atom_site_label_1
_geom_bond_atom_site_label_2
_geom_bond_distance
_geom_bond_site_symmetry_2
_ccdc_geom_bond_type
C1     C21     1.439   .     S
C1     O45     1.288   .     A
C1     O43     1.292   .     A
C2     C22     1.434   .     S
C2     O46     1.287   .     A
C2     O44     1.290   .     A
C3     C5      1.411   .     A
C3     C11     1.409   .     A
C3     H37     1.081   .     S
C4     C12     1.410   .     A
C4     C6      1.408   .     A
C4     H38     1.082   .     S
C5     H39     1.080   .     S
C5     N41     1.366   .     A
C6     H40     1.081   .     S
C6     N42     1.363   .     A
C7     N55     1.426   .     S
C7     C9      1.410   .     A
C7     N41     1.380   .     A
C8     N58     1.429   .     S
C8     C10     1.418   .     A
C8     N42     1.372   .     A
C9     C11     1.412   .     A
C9     N61     1.436   .     S
C10    N64     1.435   .     S
C10    C12     1.416   .     A
C11    C408    1.516   1_554 S
C12    C407    1.516   .     S
C13    C15     1.395   .     S
C13    O49     1.282   .     A
C13    O47     1.276   .     A
C14    O48     1.274   .     A
C14    O50     1.283   .     A
C14    C16     1.396   .     S
C15    C148    1.339   1_455 S
C15    Br185   1.941   1_455 S
C16    C81     1.339   .     S
C16    Br120   1.940   .     S
C17    H29     1.084   .     S
C17    C27     1.399   .     A
C17    C19     1.382   .     A
C18    H30     1.084   .     S
C18    C28     1.399   .     A
C18    C20     1.381   .     A
C19    H31     1.083   .     S
C19    C21     1.400   .     A
C20    C22     1.397   .     A
C20    H32     1.083   .     S
C21    C23     1.401   .     A
C22    C24     1.399   .     A
C23    C25     1.379   .     A
C23    H33     1.084   .     S
C24    H34     1.084   .     S
C24    C26     1.380   .     A
C25    C27     1.397   .     A
C25    H35     1.084   .     S
C26    C28     1.398   .     A
C26    H36     1.084   .     S
C27    C226    1.441   1_545 S
C28    C225    1.441   .     S
N41    Zn52    2.014   .     S
N42    Zn51    2.014   .     S
O43    Zn51    2.006   .     S
O44    Zn52    2.006   .     S
O45    Zn52    1.992   .     S
O46    Zn51    1.992   .     S
O47    Zn51    1.981   .     S
O48    Zn52    1.981   .     S
O49    Zn52    1.975   .     S
O50    Zn51    1.975   .     S
Br53   C81     1.941   .     S
Br54   C148    1.940   1_455 S
N55    H56     1.044   .     S
N55    H57     1.042   .     S
N58    H60     1.045   .     S
N58    H59     1.046   .     S
N61    H62     1.043   .     S
N61    H459    1.046   1_554 S
H63    N457    1.046   .     S
N64    H65     1.043   .     S
N64    H66     1.045   .     S
C67    C87     1.439   .     S
C67    O111    1.288   .     A
C67    O109    1.292   .     A
C68    C88     1.434   .     S
C68    O112    1.287   .     A
C68    O110    1.290   .     A
C69    C71     1.411   .     A
C69    C77     1.409   .     A
C69    H103    1.081   .     S
C70    C78     1.410   .     A
C70    C72     1.408   .     A
C70    H104    1.082   .     S
C71    H105    1.080   .     S
C71    N107    1.366   .     A
C72    H106    1.081   .     S
C72    N108    1.363   .     A
C73    N121    1.426   .     S
C73    C75     1.410   .     A
C73    N107    1.380   .     A
C74    N124    1.429   .     S
C74    C76     1.418   .     A
C74    N108    1.372   .     A
C75    C77     1.412   .     A
C75    N127    1.436   .     S
C76    N130    1.435   .     S
C76    C78     1.416   .     A
C77    C474    1.516   1_554 S
C78    C473    1.516   .     S
C79    C81     1.395   .     S
C79    O115    1.282   .     A
C79    O113    1.276   .     A
C80    O114    1.274   .     A
C80    O116    1.283   .     A
C80    C82     1.396   .     S
C82    C147    1.339   .     S
C82    Br186   1.940   .     S
C83    H95     1.084   .     S
C83    C93     1.399   .     A
C83    C85     1.382   .     A
C84    H96     1.084   .     S
C84    C94     1.399   .     A
C84    C86     1.381   .     A
C85    H97     1.083   .     S
C85    C87     1.400   .     A
C86    C88     1.397   .     A
C86    H98     1.083   .     S
C87    C89     1.401   .     A
C88    C90     1.399   .     A
C89    C91     1.379   .     A
C89    H99     1.084   .     S
C90    H100    1.084   .     S
C90    C92     1.380   .     A
C91    C93     1.397   .     A
C91    H101    1.084   .     S
C92    C94     1.398   .     A
C92    H102    1.084   .     S
C93    C292    1.441   1_545 S
C94    C291    1.441   .     S
N107   Zn118   2.014   .     S
N108   Zn117   2.014   .     S
O109   Zn117   2.006   .     S
O110   Zn118   2.006   .     S
O111   Zn118   1.992   .     S
O112   Zn117   1.992   .     S
O113   Zn117   1.981   .     S
O114   Zn118   1.981   .     S
O115   Zn118   1.975   .     S
O116   Zn117   1.975   .     S
Br119  C147    1.941   .     S
N121   H122    1.044   .     S
N121   H123    1.042   .     S
N124   H126    1.045   .     S
N124   H125    1.046   .     S
N127   H128    1.043   .     S
N127   H525    1.046   1_554 S
H129   N523    1.046   .     S
N130   H131    1.043   .     S
N130   H132    1.045   .     S
C133   C153    1.439   .     S
C133   O177    1.288   .     A
C133   O175    1.292   .     A
C134   C154    1.434   .     S
C134   O178    1.287   .     A
C134   O176    1.290   .     A
C135   C137    1.411   .     A
C135   C143    1.409   .     A
C135   H169    1.081   .     S
C136   C144    1.410   .     A
C136   C138    1.408   .     A
C136   H170    1.082   .     S
C137   H171    1.080   .     S
C137   N173    1.366   .     A
C138   H172    1.081   .     S
C138   N174    1.363   .     A
C139   N187    1.426   .     S
C139   C141    1.410   .     A
C139   N173    1.380   .     A
C140   N190    1.429   .     S
C140   C142    1.418   .     A
C140   N174    1.372   .     A
C141   C143    1.412   .     A
C141   N193    1.436   .     S
C142   N196    1.435   .     S
C142   C144    1.416   .     A
C143   C540    1.516   1_554 S
C144   C539    1.516   .     S
C145   C147    1.395   .     S
C145   O181    1.282   .     A
C145   O179    1.276   .     A
C146   O180    1.274   .     A
C146   O182    1.283   .     A
C146   C148    1.396   .     S
C148   C15     1.339   1_655 S
C148   Br54    1.940   1_655 S
C149   H161    1.084   .     S
C149   C159    1.399   .     A
C149   C151    1.382   .     A
C150   H162    1.084   .     S
C150   C160    1.399   .     A
C150   C152    1.381   .     A
C151   H163    1.083   .     S
C151   C153    1.400   .     A
C152   C154    1.397   .     A
C152   H164    1.083   .     S
C153   C155    1.401   .     A
C154   C156    1.399   .     A
C155   C157    1.379   .     A
C155   H165    1.084   .     S
C156   H166    1.084   .     S
C156   C158    1.380   .     A
C157   C159    1.397   .     A
C157   H167    1.084   .     S
C158   C160    1.398   .     A
C158   H168    1.084   .     S
C159   C358    1.441   1_545 S
C160   C357    1.441   .     S
N173   Zn184   2.014   .     S
N174   Zn183   2.014   .     S
O175   Zn183   2.006   .     S
O176   Zn184   2.006   .     S
O177   Zn184   1.992   .     S
O178   Zn183   1.992   .     S
O179   Zn183   1.981   .     S
O180   Zn184   1.981   .     S
O181   Zn184   1.975   .     S
O182   Zn183   1.975   .     S
Br185  C15     1.941   1_655 S
N187   H188    1.044   .     S
N187   H189    1.042   .     S
N190   H192    1.045   .     S
N190   H191    1.046   .     S
N193   H194    1.043   .     S
N193   H591    1.046   1_554 S
H195   N589    1.046   .     S
N196   H197    1.043   .     S
N196   H198    1.045   .     S
C199   C219    1.439   .     S
C199   O243    1.288   .     A
C199   O241    1.292   .     A
C200   C220    1.434   .     S
C200   O244    1.287   .     A
C200   O242    1.290   .     A
C201   C203    1.411   .     A
C201   C209    1.409   .     A
C201   H235    1.081   .     S
C202   C210    1.410   .     A
C202   C204    1.408   .     A
C202   H236    1.082   .     S
C203   H237    1.080   .     S
C203   N239    1.366   .     A
C204   H238    1.081   .     S
C204   N240    1.363   .     A
C205   N253    1.426   .     S
C205   C207    1.410   .     A
C205   N239    1.380   .     A
C206   N256    1.429   .     S
C206   C208    1.418   .     A
C206   N240    1.372   .     A
C207   C209    1.412   .     A
C207   N259    1.436   .     S
C208   N262    1.435   .     S
C208   C210    1.416   .     A
C209   C606    1.516   1_554 S
C210   C605    1.516   .     S
C211   C213    1.395   .     S
C211   O247    1.282   .     A
C211   O245    1.276   .     A
C212   O246    1.274   .     A
C212   O248    1.283   .     A
C212   C214    1.396   .     S
C213   C346    1.339   1_455 S
C213   Br383   1.941   1_455 S
C214   C279    1.339   .     S
C214   Br318   1.940   .     S
C215   H227    1.084   .     S
C215   C225    1.399   .     A
C215   C217    1.382   .     A
C216   H228    1.084   .     S
C216   C226    1.399   .     A
C216   C218    1.381   .     A
C217   H229    1.083   .     S
C217   C219    1.400   .     A
C218   C220    1.397   .     A
C218   H230    1.083   .     S
C219   C221    1.401   .     A
C220   C222    1.399   .     A
C221   C223    1.379   .     A
C221   H231    1.084   .     S
C222   H232    1.084   .     S
C222   C224    1.380   .     A
C223   C225    1.397   .     A
C223   H233    1.084   .     S
C224   C226    1.398   .     A
C224   H234    1.084   .     S
C226   C27     1.441   1_565 S
N239   Zn250   2.014   .     S
N240   Zn249   2.014   .     S
O241   Zn249   2.006   .     S
O242   Zn250   2.006   .     S
O243   Zn250   1.992   .     S
O244   Zn249   1.992   .     S
O245   Zn249   1.981   .     S
O246   Zn250   1.981   .     S
O247   Zn250   1.975   .     S
O248   Zn249   1.975   .     S
Br251  C279    1.941   .     S
Br252  C346    1.940   1_455 S
N253   H254    1.044   .     S
N253   H255    1.042   .     S
N256   H258    1.045   .     S
N256   H257    1.046   .     S
N259   H260    1.043   .     S
N259   H657    1.046   1_554 S
H261   N655    1.046   .     S
N262   H263    1.043   .     S
N262   H264    1.045   .     S
C265   C285    1.439   .     S
C265   O309    1.288   .     A
C265   O307    1.292   .     A
C266   C286    1.434   .     S
C266   O310    1.287   .     A
C266   O308    1.290   .     A
C267   C269    1.411   .     A
C267   C275    1.409   .     A
C267   H301    1.081   .     S
C268   C276    1.410   .     A
C268   C270    1.408   .     A
C268   H302    1.082   .     S
C269   H303    1.080   .     S
C269   N305    1.366   .     A
C270   H304    1.081   .     S
C270   N306    1.363   .     A
C271   N319    1.426   .     S
C271   C273    1.410   .     A
C271   N305    1.380   .     A
C272   N322    1.429   .     S
C272   C274    1.418   .     A
C272   N306    1.372   .     A
C273   C275    1.412   .     A
C273   N325    1.436   .     S
C274   N328    1.435   .     S
C274   C276    1.416   .     A
C275   C672    1.516   1_554 S
C276   C671    1.516   .     S
C277   C279    1.395   .     S
C277   O313    1.282   .     A
C277   O311    1.276   .     A
C278   O312    1.274   .     A
C278   O314    1.283   .     A
C278   C280    1.396   .     S
C280   C345    1.339   .     S
C280   Br384   1.940   .     S
C281   H293    1.084   .     S
C281   C291    1.399   .     A
C281   C283    1.382   .     A
C282   H294    1.084   .     S
C282   C292    1.399   .     A
C282   C284    1.381   .     A
C283   H295    1.083   .     S
C283   C285    1.400   .     A
C284   C286    1.397   .     A
C284   H296    1.083   .     S
C285   C287    1.401   .     A
C286   C288    1.399   .     A
C287   C289    1.379   .     A
C287   H297    1.084   .     S
C288   H298    1.084   .     S
C288   C290    1.380   .     A
C289   C291    1.397   .     A
C289   H299    1.084   .     S
C290   C292    1.398   .     A
C290   H300    1.084   .     S
C292   C93     1.441   1_565 S
N305   Zn316   2.014   .     S
N306   Zn315   2.014   .     S
O307   Zn315   2.006   .     S
O308   Zn316   2.006   .     S
O309   Zn316   1.992   .     S
O310   Zn315   1.992   .     S
O311   Zn315   1.981   .     S
O312   Zn316   1.981   .     S
O313   Zn316   1.975   .     S
O314   Zn315   1.975   .     S
Br317  C345    1.941   .     S
N319   H320    1.044   .     S
N319   H321    1.042   .     S
N322   H324    1.045   .     S
N322   H323    1.046   .     S
N325   H326    1.043   .     S
N325   H723    1.046   1_554 S
H327   N721    1.046   .     S
N328   H329    1.043   .     S
N328   H330    1.045   .     S
C331   C351    1.439   .     S
C331   O375    1.288   .     A
C331   O373    1.292   .     A
C332   C352    1.434   .     S
C332   O376    1.287   .     A
C332   O374    1.290   .     A
C333   C335    1.411   .     A
C333   C341    1.409   .     A
C333   H367    1.081   .     S
C334   C342    1.410   .     A
C334   C336    1.408   .     A
C334   H368    1.082   .     S
C335   H369    1.080   .     S
C335   N371    1.366   .     A
C336   H370    1.081   .     S
C336   N372    1.363   .     A
C337   N385    1.426   .     S
C337   C339    1.410   .     A
C337   N371    1.380   .     A
C338   N388    1.429   .     S
C338   C340    1.418   .     A
C338   N372    1.372   .     A
C339   C341    1.412   .     A
C339   N391    1.436   .     S
C340   N394    1.435   .     S
C340   C342    1.416   .     A
C341   C738    1.516   1_554 S
C342   C737    1.516   .     S
C343   C345    1.395   .     S
C343   O379    1.282   .     A
C343   O377    1.276   .     A
C344   O378    1.274   .     A
C344   O380    1.283   .     A
C344   C346    1.396   .     S
C346   C213    1.339   1_655 S
C346   Br252   1.940   1_655 S
C347   H359    1.084   .     S
C347   C357    1.399   .     A
C347   C349    1.382   .     A
C348   H360    1.084   .     S
C348   C358    1.399   .     A
C348   C350    1.381   .     A
C349   H361    1.083   .     S
C349   C351    1.400   .     A
C350   C352    1.397   .     A
C350   H362    1.083   .     S
C351   C353    1.401   .     A
C352   C354    1.399   .     A
C353   C355    1.379   .     A
C353   H363    1.084   .     S
C354   H364    1.084   .     S
C354   C356    1.380   .     A
C355   C357    1.397   .     A
C355   H365    1.084   .     S
C356   C358    1.398   .     A
C356   H366    1.084   .     S
C358   C159    1.441   1_565 S
N371   Zn382   2.014   .     S
N372   Zn381   2.014   .     S
O373   Zn381   2.006   .     S
O374   Zn382   2.006   .     S
O375   Zn382   1.992   .     S
O376   Zn381   1.992   .     S
O377   Zn381   1.981   .     S
O378   Zn382   1.981   .     S
O379   Zn382   1.975   .     S
O380   Zn381   1.975   .     S
Br383  C213    1.941   1_655 S
N385   H386    1.044   .     S
N385   H387    1.042   .     S
N388   H390    1.045   .     S
N388   H389    1.046   .     S
N391   H392    1.043   .     S
N391   H789    1.046   1_554 S
H393   N787    1.046   .     S
N394   H395    1.043   .     S
N394   H396    1.045   .     S
C397   C417    1.439   .     S
C397   O441    1.288   .     A
C397   O439    1.292   .     A
C398   C418    1.434   .     S
C398   O442    1.287   .     A
C398   O440    1.290   .     A
C399   C401    1.411   .     A
C399   C407    1.409   .     A
C399   H433    1.081   .     S
C400   C408    1.410   .     A
C400   C402    1.408   .     A
C400   H434    1.082   .     S
C401   H435    1.080   .     S
C401   N437    1.366   .     A
C402   H436    1.081   .     S
C402   N438    1.363   .     A
C403   N451    1.426   .     S
C403   C405    1.410   .     A
C403   N437    1.380   .     A
C404   N454    1.429   .     S
C404   C406    1.418   .     A
C404   N438    1.372   .     A
C405   C407    1.412   .     A
C405   N457    1.436   .     S
C406   N460    1.435   .     S
C406   C408    1.416   .     A
C408   C11     1.516   1_556 S
C409   C411    1.395   .     S
C409   O445    1.282   .     A
C409   O443    1.276   .     A
C410   O444    1.274   .     A
C410   O446    1.283   .     A
C410   C412    1.396   .     S
C411   C544    1.339   1_455 S
C411   Br581   1.941   1_455 S
C412   C477    1.339   .     S
C412   Br516   1.940   .     S
C413   H425    1.084   .     S
C413   C423    1.399   .     A
C413   C415    1.382   .     A
C414   H426    1.084   .     S
C414   C424    1.399   .     A
C414   C416    1.381   .     A
C415   H427    1.083   .     S
C415   C417    1.400   .     A
C416   C418    1.397   .     A
C416   H428    1.083   .     S
C417   C419    1.401   .     A
C418   C420    1.399   .     A
C419   C421    1.379   .     A
C419   H429    1.084   .     S
C420   H430    1.084   .     S
C420   C422    1.380   .     A
C421   C423    1.397   .     A
C421   H431    1.084   .     S
C422   C424    1.398   .     A
C422   H432    1.084   .     S
C423   C622    1.441   1_545 S
C424   C621    1.441   .     S
N437   Zn448   2.014   .     S
N438   Zn447   2.014   .     S
O439   Zn447   2.006   .     S
O440   Zn448   2.006   .     S
O441   Zn448   1.992   .     S
O442   Zn447   1.992   .     S
O443   Zn447   1.981   .     S
O444   Zn448   1.981   .     S
O445   Zn448   1.975   .     S
O446   Zn447   1.975   .     S
Br449  C477    1.941   .     S
Br450  C544    1.940   1_455 S
N451   H452    1.044   .     S
N451   H453    1.042   .     S
N454   H456    1.045   .     S
N454   H455    1.046   .     S
N457   H458    1.043   .     S
H459   N61     1.046   1_556 S
N460   H461    1.043   .     S
N460   H462    1.045   .     S
C463   C483    1.439   .     S
C463   O507    1.288   .     A
C463   O505    1.292   .     A
C464   C484    1.434   .     S
C464   O508    1.287   .     A
C464   O506    1.290   .     A
C465   C467    1.411   .     A
C465   C473    1.409   .     A
C465   H499    1.081   .     S
C466   C474    1.410   .     A
C466   C468    1.408   .     A
C466   H500    1.082   .     S
C467   H501    1.080   .     S
C467   N503    1.366   .     A
C468   H502    1.081   .     S
C468   N504    1.363   .     A
C469   N517    1.426   .     S
C469   C471    1.410   .     A
C469   N503    1.380   .     A
C470   N520    1.429   .     S
C470   C472    1.418   .     A
C470   N504    1.372   .     A
C471   C473    1.412   .     A
C471   N523    1.436   .     S
C472   N526    1.435   .     S
C472   C474    1.416   .     A
C474   C77     1.516   1_556 S
C475   C477    1.395   .     S
C475   O511    1.282   .     A
C475   O509    1.276   .     A
C476   O510    1.274   .     A
C476   O512    1.283   .     A
C476   C478    1.396   .     S
C478   C543    1.339   .     S
C478   Br582   1.940   .     S
C479   H491    1.084   .     S
C479   C489    1.399   .     A
C479   C481    1.382   .     A
C480   H492    1.084   .     S
C480   C490    1.399   .     A
C480   C482    1.381   .     A
C481   H493    1.083   .     S
C481   C483    1.400   .     A
C482   C484    1.397   .     A
C482   H494    1.083   .     S
C483   C485    1.401   .     A
C484   C486    1.399   .     A
C485   C487    1.379   .     A
C485   H495    1.084   .     S
C486   H496    1.084   .     S
C486   C488    1.380   .     A
C487   C489    1.397   .     A
C487   H497    1.084   .     S
C488   C490    1.398   .     A
C488   H498    1.084   .     S
C489   C688    1.441   1_545 S
C490   C687    1.441   .     S
N503   Zn514   2.014   .     S
N504   Zn513   2.014   .     S
O505   Zn513   2.006   .     S
O506   Zn514   2.006   .     S
O507   Zn514   1.992   .     S
O508   Zn513   1.992   .     S
O509   Zn513   1.981   .     S
O510   Zn514   1.981   .     S
O511   Zn514   1.975   .     S
O512   Zn513   1.975   .     S
Br515  C543    1.941   .     S
N517   H518    1.044   .     S
N517   H519    1.042   .     S
N520   H522    1.045   .     S
N520   H521    1.046   .     S
N523   H524    1.043   .     S
H525   N127    1.046   1_556 S
N526   H527    1.043   .     S
N526   H528    1.045   .     S
C529   C549    1.439   .     S
C529   O573    1.288   .     A
C529   O571    1.292   .     A
C530   C550    1.434   .     S
C530   O574    1.287   .     A
C530   O572    1.290   .     A
C531   C533    1.411   .     A
C531   C539    1.409   .     A
C531   H565    1.081   .     S
C532   C540    1.410   .     A
C532   C534    1.408   .     A
C532   H566    1.082   .     S
C533   H567    1.080   .     S
C533   N569    1.366   .     A
C534   H568    1.081   .     S
C534   N570    1.363   .     A
C535   N583    1.426   .     S
C535   C537    1.410   .     A
C535   N569    1.380   .     A
C536   N586    1.429   .     S
C536   C538    1.418   .     A
C536   N570    1.372   .     A
C537   C539    1.412   .     A
C537   N589    1.436   .     S
C538   N592    1.435   .     S
C538   C540    1.416   .     A
C540   C143    1.516   1_556 S
C541   C543    1.395   .     S
C541   O577    1.282   .     A
C541   O575    1.276   .     A
C542   O576    1.274   .     A
C542   O578    1.283   .     A
C542   C544    1.396   .     S
C544   C411    1.339   1_655 S
C544   Br450   1.940   1_655 S
C545   H557    1.084   .     S
C545   C555    1.399   .     A
C545   C547    1.382   .     A
C546   H558    1.084   .     S
C546   C556    1.399   .     A
C546   C548    1.381   .     A
C547   H559    1.083   .     S
C547   C549    1.400   .     A
C548   C550    1.397   .     A
C548   H560    1.083   .     S
C549   C551    1.401   .     A
C550   C552    1.399   .     A
C551   C553    1.379   .     A
C551   H561    1.084   .     S
C552   H562    1.084   .     S
C552   C554    1.380   .     A
C553   C555    1.397   .     A
C553   H563    1.084   .     S
C554   C556    1.398   .     A
C554   H564    1.084   .     S
C555   C754    1.441   1_545 S
C556   C753    1.441   .     S
N569   Zn580   2.014   .     S
N570   Zn579   2.014   .     S
O571   Zn579   2.006   .     S
O572   Zn580   2.006   .     S
O573   Zn580   1.992   .     S
O574   Zn579   1.992   .     S
O575   Zn579   1.981   .     S
O576   Zn580   1.981   .     S
O577   Zn580   1.975   .     S
O578   Zn579   1.975   .     S
Br581  C411    1.941   1_655 S
N583   H584    1.044   .     S
N583   H585    1.042   .     S
N586   H588    1.045   .     S
N586   H587    1.046   .     S
N589   H590    1.043   .     S
H591   N193    1.046   1_556 S
N592   H593    1.043   .     S
N592   H594    1.045   .     S
C595   C615    1.439   .     S
C595   O639    1.288   .     A
C595   O637    1.292   .     A
C596   C616    1.434   .     S
C596   O640    1.287   .     A
C596   O638    1.290   .     A
C597   C599    1.411   .     A
C597   C605    1.409   .     A
C597   H631    1.081   .     S
C598   C606    1.410   .     A
C598   C600    1.408   .     A
C598   H632    1.082   .     S
C599   H633    1.080   .     S
C599   N635    1.366   .     A
C600   H634    1.081   .     S
C600   N636    1.363   .     A
C601   N649    1.426   .     S
C601   C603    1.410   .     A
C601   N635    1.380   .     A
C602   N652    1.429   .     S
C602   C604    1.418   .     A
C602   N636    1.372   .     A
C603   C605    1.412   .     A
C603   N655    1.436   .     S
C604   N658    1.435   .     S
C604   C606    1.416   .     A
C606   C209    1.516   1_556 S
C607   C609    1.395   .     S
C607   O643    1.282   .     A
C607   O641    1.276   .     A
C608   O642    1.274   .     A
C608   O644    1.283   .     A
C608   C610    1.396   .     S
C609   C742    1.339   1_455 S
C609   Br779   1.941   1_455 S
C610   C675    1.339   .     S
C610   Br714   1.940   .     S
C611   H623    1.084   .     S
C611   C621    1.399   .     A
C611   C613    1.382   .     A
C612   H624    1.084   .     S
C612   C622    1.399   .     A
C612   C614    1.381   .     A
C613   H625    1.083   .     S
C613   C615    1.400   .     A
C614   C616    1.397   .     A
C614   H626    1.083   .     S
C615   C617    1.401   .     A
C616   C618    1.399   .     A
C617   C619    1.379   .     A
C617   H627    1.084   .     S
C618   H628    1.084   .     S
C618   C620    1.380   .     A
C619   C621    1.397   .     A
C619   H629    1.084   .     S
C620   C622    1.398   .     A
C620   H630    1.084   .     S
C622   C423    1.441   1_565 S
N635   Zn646   2.014   .     S
N636   Zn645   2.014   .     S
O637   Zn645   2.006   .     S
O638   Zn646   2.006   .     S
O639   Zn646   1.992   .     S
O640   Zn645   1.992   .     S
O641   Zn645   1.981   .     S
O642   Zn646   1.981   .     S
O643   Zn646   1.975   .     S
O644   Zn645   1.975   .     S
Br647  C675    1.941   .     S
Br648  C742    1.940   1_455 S
N649   H650    1.044   .     S
N649   H651    1.042   .     S
N652   H654    1.045   .     S
N652   H653    1.046   .     S
N655   H656    1.043   .     S
H657   N259    1.046   1_556 S
N658   H659    1.043   .     S
N658   H660    1.045   .     S
C661   C681    1.439   .     S
C661   O705    1.288   .     A
C661   O703    1.292   .     A
C662   C682    1.434   .     S
C662   O706    1.287   .     A
C662   O704    1.290   .     A
C663   C665    1.411   .     A
C663   C671    1.409   .     A
C663   H697    1.081   .     S
C664   C672    1.410   .     A
C664   C666    1.408   .     A
C664   H698    1.082   .     S
C665   H699    1.080   .     S
C665   N701    1.366   .     A
C666   H700    1.081   .     S
C666   N702    1.363   .     A
C667   N715    1.426   .     S
C667   C669    1.410   .     A
C667   N701    1.380   .     A
C668   N718    1.429   .     S
C668   C670    1.418   .     A
C668   N702    1.372   .     A
C669   C671    1.412   .     A
C669   N721    1.436   .     S
C670   N724    1.435   .     S
C670   C672    1.416   .     A
C672   C275    1.516   1_556 S
C673   C675    1.395   .     S
C673   O709    1.282   .     A
C673   O707    1.276   .     A
C674   O708    1.274   .     A
C674   O710    1.283   .     A
C674   C676    1.396   .     S
C676   C741    1.339   .     S
C676   Br780   1.940   .     S
C677   H689    1.084   .     S
C677   C687    1.399   .     A
C677   C679    1.382   .     A
C678   H690    1.084   .     S
C678   C688    1.399   .     A
C678   C680    1.381   .     A
C679   H691    1.083   .     S
C679   C681    1.400   .     A
C680   C682    1.397   .     A
C680   H692    1.083   .     S
C681   C683    1.401   .     A
C682   C684    1.399   .     A
C683   C685    1.379   .     A
C683   H693    1.084   .     S
C684   H694    1.084   .     S
C684   C686    1.380   .     A
C685   C687    1.397   .     A
C685   H695    1.084   .     S
C686   C688    1.398   .     A
C686   H696    1.084   .     S
C688   C489    1.441   1_565 S
N701   Zn712   2.014   .     S
N702   Zn711   2.014   .     S
O703   Zn711   2.006   .     S
O704   Zn712   2.006   .     S
O705   Zn712   1.992   .     S
O706   Zn711   1.992   .     S
O707   Zn711   1.981   .     S
O708   Zn712   1.981   .     S
O709   Zn712   1.975   .     S
O710   Zn711   1.975   .     S
Br713  C741    1.941   .     S
N715   H716    1.044   .     S
N715   H717    1.042   .     S
N718   H720    1.045   .     S
N718   H719    1.046   .     S
N721   H722    1.043   .     S
H723   N325    1.046   1_556 S
N724   H725    1.043   .     S
N724   H726    1.045   .     S
C727   C747    1.439   .     S
C727   O771    1.288   .     A
C727   O769    1.292   .     A
C728   C748    1.434   .     S
C728   O772    1.287   .     A
C728   O770    1.290   .     A
C729   C731    1.411   .     A
C729   C737    1.409   .     A
C729   H763    1.081   .     S
C730   C738    1.410   .     A
C730   C732    1.408   .     A
C730   H764    1.082   .     S
C731   H765    1.080   .     S
C731   N767    1.366   .     A
C732   H766    1.081   .     S
C732   N768    1.363   .     A
C733   N781    1.426   .     S
C733   C735    1.410   .     A
C733   N767    1.380   .     A
C734   N784    1.429   .     S
C734   C736    1.418   .     A
C734   N768    1.372   .     A
C735   C737    1.412   .     A
C735   N787    1.436   .     S
C736   N790    1.435   .     S
C736   C738    1.416   .     A
C738   C341    1.516   1_556 S
C739   C741    1.395   .     S
C739   O775    1.282   .     A
C739   O773    1.276   .     A
C740   O774    1.274   .     A
C740   O776    1.283   .     A
C740   C742    1.396   .     S
C742   C609    1.339   1_655 S
C742   Br648   1.940   1_655 S
C743   H755    1.084   .     S
C743   C753    1.399   .     A
C743   C745    1.382   .     A
C744   H756    1.084   .     S
C744   C754    1.399   .     A
C744   C746    1.381   .     A
C745   H757    1.083   .     S
C745   C747    1.400   .     A
C746   C748    1.397   .     A
C746   H758    1.083   .     S
C747   C749    1.401   .     A
C748   C750    1.399   .     A
C749   C751    1.379   .     A
C749   H759    1.084   .     S
C750   H760    1.084   .     S
C750   C752    1.380   .     A
C751   C753    1.397   .     A
C751   H761    1.084   .     S
C752   C754    1.398   .     A
C752   H762    1.084   .     S
C754   C555    1.441   1_565 S
N767   Zn778   2.014   .     S
N768   Zn777   2.014   .     S
O769   Zn777   2.006   .     S
O770   Zn778   2.006   .     S
O771   Zn778   1.992   .     S
O772   Zn777   1.992   .     S
O773   Zn777   1.981   .     S
O774   Zn778   1.981   .     S
O775   Zn778   1.975   .     S
O776   Zn777   1.975   .     S
Br779  C609    1.941   1_655 S
N781   H782    1.044   .     S
N781   H783    1.042   .     S
N784   H786    1.045   .     S
N784   H785    1.046   .     S
N787   H788    1.043   .     S
H789   N391    1.046   1_556 S
N790   H791    1.043   .     S
N790   H792    1.045   .     S
