data_str_m3_o1_o17_pcu_sym.166
_audit_creation_date              2020-01-03
_audit_creation_method            'Materials Studio'
_symmetry_space_group_name_H-M    'P1'
_symmetry_Int_Tables_number       1
_symmetry_cell_setting            triclinic
loop_
_symmetry_equiv_pos_as_xyz
  x,y,z
_cell_length_a                    31.9139
_cell_length_b                    29.5542
_cell_length_c                    30.0118
_cell_angle_alpha                 89.5216
_cell_angle_beta                  90.3107
_cell_angle_gamma                 89.5580
loop_
_atom_site_label
_atom_site_type_symbol
_atom_site_fract_x
_atom_site_fract_y
_atom_site_fract_z
_atom_site_U_iso_or_equiv
_atom_site_adp_type
_atom_site_occupancy
C1     C     0.08680   0.16688   0.24956   0.00000  Uiso   1.00
C2     C     0.24654   0.16645   0.25044   0.00000  Uiso   1.00
C3     C     0.13344   0.24191   0.02117   0.00000  Uiso   1.00
C4     C     0.19992   0.09143   0.47883   0.00000  Uiso   1.00
C5     C     0.02109   0.14654   0.21356   0.00000  Uiso   1.00
C6     C     0.31225   0.18679   0.28644   0.00000  Uiso   1.00
C7     C     0.31097   0.14517   0.21535   0.00000  Uiso   1.00
C8     C     0.02236   0.18817   0.28465   0.00000  Uiso   1.00
C9     C     0.29069   0.16577   0.25123   0.00000  Uiso   1.00
C10    C     0.04264   0.16757   0.24877   0.00000  Uiso   1.00
C11    C     0.19380   0.02352   0.27663   0.00000  Uiso   1.00
C12    C     0.13954   0.30981   0.22337   0.00000  Uiso   1.00
C13    C     0.13957   0.02442   0.22332   0.00000  Uiso   1.00
C14    C     0.19376   0.30891   0.27668   0.00000  Uiso   1.00
C15    C     0.16623   0.16687   0.16334   0.00000  Uiso   1.00
C16    C     0.16711   0.16646   0.33666   0.00000  Uiso   1.00
C17    C     0.18412   0.12875   0.40796   0.00000  Uiso   1.00
C18    C     0.14920   0.20457   0.09205   0.00000  Uiso   1.00
C19    C     0.16755   0.16607   0.38455   0.00000  Uiso   1.00
C20    C     0.16580   0.16727   0.11545   0.00000  Uiso   1.00
C21    C     0.15116   0.20343   0.40676   0.00000  Uiso   1.00
C22    C     0.18221   0.12993   0.09324   0.00000  Uiso   1.00
C23    C     0.15073   0.20390   0.45277   0.00000  Uiso   1.00
C24    C     0.18264   0.12945   0.04724   0.00000  Uiso   1.00
C25    C     0.16698   0.16642   0.47677   0.00000  Uiso   1.00
C26    C     0.16638   0.16693   0.02323   0.00000  Uiso   1.00
C27    C     0.18383   0.12851   0.45434   0.00000  Uiso   1.00
C28    C     0.14952   0.20483   0.04567   0.00000  Uiso   1.00
C29    C     0.13413   0.24128   0.47496   0.00000  Uiso   1.00
C30    C     0.19925   0.09207   0.02504   0.00000  Uiso   1.00
H31    H     0.13824   0.23198   0.38817   0.00000  Uiso   1.00
H32    H     0.19515   0.10138   0.11184   0.00000  Uiso   1.00
H33    H     0.12165   0.27010   0.45649   0.00000  Uiso   1.00
H34    H     0.21173   0.06326   0.04352   0.00000  Uiso   1.00
N35    N     0.16667   0.28573   0.25000   0.00000  Uiso   1.00
N36    N     0.16667   0.04760   0.25000   0.00000  Uiso   1.00
O37    O     0.10559   0.20487   0.24999   0.00000  Uiso   1.00
O38    O     0.22774   0.12846   0.25000   0.00000  Uiso   1.00
O39    O     0.22774   0.20487   0.25000   0.00000  Uiso   1.00
O40    O     0.10559   0.12846   0.24999   0.00000  Uiso   1.00
O41    O     0.16666   0.20489   0.18392   0.00000  Uiso   1.00
O42    O     0.16667   0.12844   0.31607   0.00000  Uiso   1.00
O43    O     0.16667   0.20489   0.31607   0.00000  Uiso   1.00
O44    O     0.16666   0.12844   0.18392   0.00000  Uiso   1.00
Zn45   Zn    0.16667   0.21771   0.25000   0.00000  Uiso   1.00
Zn46   Zn    0.16667   0.11563   0.25000   0.00000  Uiso   1.00
F47    F     0.20123   0.09341   0.38552   0.00000  Uiso   1.00
F48    F     0.13205   0.23988   0.11448   0.00000  Uiso   1.00
F49    F     0.11715   0.27888   0.04154   0.00000  Uiso   1.00
F50    F     0.21619   0.05445   0.45846   0.00000  Uiso   1.00
O51    O     0.04117   0.12795   0.17713   0.00000  Uiso   1.00
H52    H     0.06969   0.14047   0.17427   0.00000  Uiso   1.00
O53    O     0.29216   0.20538   0.32287   0.00000  Uiso   1.00
H54    H     0.26364   0.19286   0.32574   0.00000  Uiso   1.00
O55    O     0.28706   0.12571   0.18198   0.00000  Uiso   1.00
H56    H     0.30537   0.11189   0.15924   0.00000  Uiso   1.00
O57    O     0.04627   0.20763   0.31802   0.00000  Uiso   1.00
H58    H     0.02796   0.22148   0.34073   0.00000  Uiso   1.00
F59    F     0.22111   0.04573   0.30319   0.00000  Uiso   1.00
F60    F     0.11223   0.28761   0.19681   0.00000  Uiso   1.00
F61    F     0.11248   0.04753   0.19649   0.00000  Uiso   1.00
F62    F     0.22085   0.28580   0.30351   0.00000  Uiso   1.00
C63    C     0.42013   0.16688   0.24956   0.00000  Uiso   1.00
C64    C     0.57987   0.16645   0.25044   0.00000  Uiso   1.00
C65    C     0.46677   0.24191   0.02117   0.00000  Uiso   1.00
C66    C     0.53325   0.09143   0.47883   0.00000  Uiso   1.00
C67    C     0.35442   0.14654   0.21356   0.00000  Uiso   1.00
C68    C     0.64558   0.18679   0.28644   0.00000  Uiso   1.00
C69    C     0.64430   0.14517   0.21535   0.00000  Uiso   1.00
C70    C     0.35570   0.18817   0.28465   0.00000  Uiso   1.00
C71    C     0.62403   0.16577   0.25123   0.00000  Uiso   1.00
C72    C     0.37597   0.16757   0.24877   0.00000  Uiso   1.00
C73    C     0.52713   0.02352   0.27663   0.00000  Uiso   1.00
C74    C     0.47287   0.30981   0.22337   0.00000  Uiso   1.00
C75    C     0.47291   0.02442   0.22332   0.00000  Uiso   1.00
C76    C     0.52709   0.30891   0.27668   0.00000  Uiso   1.00
C77    C     0.49956   0.16687   0.16334   0.00000  Uiso   1.00
C78    C     0.50044   0.16646   0.33666   0.00000  Uiso   1.00
C79    C     0.51746   0.12875   0.40796   0.00000  Uiso   1.00
C80    C     0.48254   0.20457   0.09205   0.00000  Uiso   1.00
C81    C     0.50088   0.16607   0.38455   0.00000  Uiso   1.00
C82    C     0.49913   0.16727   0.11545   0.00000  Uiso   1.00
C83    C     0.48449   0.20343   0.40676   0.00000  Uiso   1.00
C84    C     0.51555   0.12993   0.09324   0.00000  Uiso   1.00
C85    C     0.48406   0.20390   0.45277   0.00000  Uiso   1.00
C86    C     0.51598   0.12945   0.04724   0.00000  Uiso   1.00
C87    C     0.50031   0.16642   0.47677   0.00000  Uiso   1.00
C88    C     0.49972   0.16693   0.02323   0.00000  Uiso   1.00
C89    C     0.51716   0.12851   0.45434   0.00000  Uiso   1.00
C90    C     0.48285   0.20483   0.04567   0.00000  Uiso   1.00
C91    C     0.46746   0.24128   0.47496   0.00000  Uiso   1.00
C92    C     0.53258   0.09207   0.02504   0.00000  Uiso   1.00
H93    H     0.47157   0.23198   0.38817   0.00000  Uiso   1.00
H94    H     0.52848   0.10138   0.11184   0.00000  Uiso   1.00
H95    H     0.45498   0.27010   0.45649   0.00000  Uiso   1.00
H96    H     0.54506   0.06326   0.04352   0.00000  Uiso   1.00
N97    N     0.50000   0.28573   0.25000   0.00000  Uiso   1.00
N98    N     0.50000   0.04760   0.25000   0.00000  Uiso   1.00
O99    O     0.43892   0.20487   0.24999   0.00000  Uiso   1.00
O100   O     0.56108   0.12846   0.25000   0.00000  Uiso   1.00
O101   O     0.56108   0.20487   0.25000   0.00000  Uiso   1.00
O102   O     0.43892   0.12846   0.24999   0.00000  Uiso   1.00
O103   O     0.49999   0.20489   0.18392   0.00000  Uiso   1.00
O104   O     0.50001   0.12844   0.31607   0.00000  Uiso   1.00
O105   O     0.50001   0.20489   0.31607   0.00000  Uiso   1.00
O106   O     0.49999   0.12844   0.18392   0.00000  Uiso   1.00
Zn107  Zn    0.50000   0.21771   0.25000   0.00000  Uiso   1.00
Zn108  Zn    0.50000   0.11563   0.25000   0.00000  Uiso   1.00
F109   F     0.53457   0.09341   0.38552   0.00000  Uiso   1.00
F110   F     0.46538   0.23988   0.11448   0.00000  Uiso   1.00
F111   F     0.45049   0.27888   0.04154   0.00000  Uiso   1.00
F112   F     0.54952   0.05445   0.45846   0.00000  Uiso   1.00
O113   O     0.37450   0.12795   0.17713   0.00000  Uiso   1.00
H114   H     0.40303   0.14047   0.17427   0.00000  Uiso   1.00
O115   O     0.62550   0.20538   0.32287   0.00000  Uiso   1.00
H116   H     0.59698   0.19286   0.32574   0.00000  Uiso   1.00
O117   O     0.62039   0.12571   0.18198   0.00000  Uiso   1.00
H118   H     0.63870   0.11189   0.15924   0.00000  Uiso   1.00
O119   O     0.37961   0.20763   0.31802   0.00000  Uiso   1.00
H120   H     0.36130   0.22148   0.34073   0.00000  Uiso   1.00
F121   F     0.55444   0.04573   0.30319   0.00000  Uiso   1.00
F122   F     0.44556   0.28761   0.19681   0.00000  Uiso   1.00
F123   F     0.44581   0.04753   0.19649   0.00000  Uiso   1.00
F124   F     0.55419   0.28580   0.30351   0.00000  Uiso   1.00
C125   C     0.75346   0.16688   0.24956   0.00000  Uiso   1.00
C126   C     0.91320   0.16645   0.25044   0.00000  Uiso   1.00
C127   C     0.80010   0.24191   0.02117   0.00000  Uiso   1.00
C128   C     0.86658   0.09143   0.47883   0.00000  Uiso   1.00
C129   C     0.68775   0.14654   0.21356   0.00000  Uiso   1.00
C130   C     0.97891   0.18679   0.28644   0.00000  Uiso   1.00
C131   C     0.97763   0.14517   0.21535   0.00000  Uiso   1.00
C132   C     0.68903   0.18817   0.28465   0.00000  Uiso   1.00
C133   C     0.95736   0.16577   0.25123   0.00000  Uiso   1.00
C134   C     0.70931   0.16757   0.24877   0.00000  Uiso   1.00
C135   C     0.86046   0.02352   0.27663   0.00000  Uiso   1.00
C136   C     0.80620   0.30981   0.22337   0.00000  Uiso   1.00
C137   C     0.80624   0.02442   0.22332   0.00000  Uiso   1.00
C138   C     0.86043   0.30891   0.27668   0.00000  Uiso   1.00
C139   C     0.83289   0.16687   0.16334   0.00000  Uiso   1.00
C140   C     0.83377   0.16646   0.33666   0.00000  Uiso   1.00
C141   C     0.85079   0.12875   0.40796   0.00000  Uiso   1.00
C142   C     0.81587   0.20457   0.09205   0.00000  Uiso   1.00
C143   C     0.83421   0.16607   0.38455   0.00000  Uiso   1.00
C144   C     0.83246   0.16727   0.11545   0.00000  Uiso   1.00
C145   C     0.81782   0.20343   0.40676   0.00000  Uiso   1.00
C146   C     0.84888   0.12993   0.09324   0.00000  Uiso   1.00
C147   C     0.81739   0.20390   0.45277   0.00000  Uiso   1.00
C148   C     0.84931   0.12945   0.04724   0.00000  Uiso   1.00
C149   C     0.83364   0.16642   0.47677   0.00000  Uiso   1.00
C150   C     0.83305   0.16693   0.02323   0.00000  Uiso   1.00
C151   C     0.85049   0.12851   0.45434   0.00000  Uiso   1.00
C152   C     0.81619   0.20483   0.04567   0.00000  Uiso   1.00
C153   C     0.80079   0.24128   0.47496   0.00000  Uiso   1.00
C154   C     0.86591   0.09207   0.02504   0.00000  Uiso   1.00
H155   H     0.80490   0.23198   0.38817   0.00000  Uiso   1.00
H156   H     0.86182   0.10138   0.11184   0.00000  Uiso   1.00
H157   H     0.78832   0.27010   0.45649   0.00000  Uiso   1.00
H158   H     0.87840   0.06326   0.04352   0.00000  Uiso   1.00
N159   N     0.83333   0.28573   0.25000   0.00000  Uiso   1.00
N160   N     0.83333   0.04760   0.25000   0.00000  Uiso   1.00
O161   O     0.77226   0.20487   0.24999   0.00000  Uiso   1.00
O162   O     0.89441   0.12846   0.25000   0.00000  Uiso   1.00
O163   O     0.89441   0.20487   0.25000   0.00000  Uiso   1.00
O164   O     0.77226   0.12846   0.24999   0.00000  Uiso   1.00
O165   O     0.83333   0.20489   0.18392   0.00000  Uiso   1.00
O166   O     0.83334   0.12844   0.31607   0.00000  Uiso   1.00
O167   O     0.83334   0.20489   0.31607   0.00000  Uiso   1.00
O168   O     0.83333   0.12844   0.18392   0.00000  Uiso   1.00
Zn169  Zn    0.83333   0.21771   0.25000   0.00000  Uiso   1.00
Zn170  Zn    0.83333   0.11563   0.25000   0.00000  Uiso   1.00
F171   F     0.86790   0.09341   0.38552   0.00000  Uiso   1.00
F172   F     0.79872   0.23988   0.11448   0.00000  Uiso   1.00
F173   F     0.78382   0.27888   0.04154   0.00000  Uiso   1.00
F174   F     0.88286   0.05445   0.45846   0.00000  Uiso   1.00
O175   O     0.70784   0.12795   0.17713   0.00000  Uiso   1.00
H176   H     0.73636   0.14047   0.17427   0.00000  Uiso   1.00
O177   O     0.95883   0.20538   0.32287   0.00000  Uiso   1.00
H178   H     0.93031   0.19286   0.32574   0.00000  Uiso   1.00
O179   O     0.95373   0.12571   0.18198   0.00000  Uiso   1.00
H180   H     0.97203   0.11189   0.15924   0.00000  Uiso   1.00
O181   O     0.71294   0.20763   0.31802   0.00000  Uiso   1.00
H182   H     0.69463   0.22148   0.34073   0.00000  Uiso   1.00
F183   F     0.88777   0.04573   0.30319   0.00000  Uiso   1.00
F184   F     0.77889   0.28761   0.19681   0.00000  Uiso   1.00
F185   F     0.77915   0.04753   0.19649   0.00000  Uiso   1.00
F186   F     0.88752   0.28580   0.30351   0.00000  Uiso   1.00
C187   C     0.08680   0.50021   0.24956   0.00000  Uiso   1.00
C188   C     0.24654   0.49979   0.25044   0.00000  Uiso   1.00
C189   C     0.13344   0.57524   0.02117   0.00000  Uiso   1.00
C190   C     0.19992   0.42476   0.47883   0.00000  Uiso   1.00
C191   C     0.02109   0.47988   0.21356   0.00000  Uiso   1.00
C192   C     0.31225   0.52012   0.28644   0.00000  Uiso   1.00
C193   C     0.31097   0.47850   0.21535   0.00000  Uiso   1.00
C194   C     0.02236   0.52150   0.28465   0.00000  Uiso   1.00
C195   C     0.29069   0.49910   0.25123   0.00000  Uiso   1.00
C196   C     0.04264   0.50090   0.24877   0.00000  Uiso   1.00
C197   C     0.19380   0.35685   0.27663   0.00000  Uiso   1.00
C198   C     0.13954   0.64315   0.22337   0.00000  Uiso   1.00
C199   C     0.13957   0.35776   0.22332   0.00000  Uiso   1.00
C200   C     0.19376   0.64224   0.27668   0.00000  Uiso   1.00
C201   C     0.16623   0.50021   0.16334   0.00000  Uiso   1.00
C202   C     0.16711   0.49979   0.33666   0.00000  Uiso   1.00
C203   C     0.18412   0.46209   0.40796   0.00000  Uiso   1.00
C204   C     0.14920   0.53790   0.09205   0.00000  Uiso   1.00
C205   C     0.16755   0.49940   0.38455   0.00000  Uiso   1.00
C206   C     0.16580   0.50060   0.11545   0.00000  Uiso   1.00
C207   C     0.15116   0.53676   0.40676   0.00000  Uiso   1.00
C208   C     0.18221   0.46326   0.09324   0.00000  Uiso   1.00
C209   C     0.15073   0.53724   0.45277   0.00000  Uiso   1.00
C210   C     0.18264   0.46278   0.04724   0.00000  Uiso   1.00
C211   C     0.16698   0.49976   0.47677   0.00000  Uiso   1.00
C212   C     0.16638   0.50026   0.02323   0.00000  Uiso   1.00
C213   C     0.18383   0.46184   0.45434   0.00000  Uiso   1.00
C214   C     0.14952   0.53816   0.04567   0.00000  Uiso   1.00
C215   C     0.13413   0.57462   0.47496   0.00000  Uiso   1.00
C216   C     0.19925   0.42540   0.02504   0.00000  Uiso   1.00
H217   H     0.13824   0.56532   0.38817   0.00000  Uiso   1.00
H218   H     0.19515   0.43471   0.11184   0.00000  Uiso   1.00
H219   H     0.12165   0.60343   0.45649   0.00000  Uiso   1.00
H220   H     0.21173   0.39660   0.04352   0.00000  Uiso   1.00
N221   N     0.16667   0.61907   0.25000   0.00000  Uiso   1.00
N222   N     0.16667   0.38093   0.25000   0.00000  Uiso   1.00
O223   O     0.10559   0.53821   0.24999   0.00000  Uiso   1.00
O224   O     0.22774   0.46179   0.25000   0.00000  Uiso   1.00
O225   O     0.22774   0.53821   0.25000   0.00000  Uiso   1.00
O226   O     0.10559   0.46179   0.24999   0.00000  Uiso   1.00
O227   O     0.16666   0.53823   0.18392   0.00000  Uiso   1.00
O228   O     0.16667   0.46177   0.31607   0.00000  Uiso   1.00
O229   O     0.16667   0.53823   0.31607   0.00000  Uiso   1.00
O230   O     0.16666   0.46177   0.18392   0.00000  Uiso   1.00
Zn231  Zn    0.16667   0.55104   0.25000   0.00000  Uiso   1.00
Zn232  Zn    0.16667   0.44896   0.25000   0.00000  Uiso   1.00
F233   F     0.20123   0.42675   0.38552   0.00000  Uiso   1.00
F234   F     0.13205   0.57321   0.11448   0.00000  Uiso   1.00
F235   F     0.11715   0.61222   0.04154   0.00000  Uiso   1.00
F236   F     0.21619   0.38778   0.45846   0.00000  Uiso   1.00
O237   O     0.04117   0.46129   0.17713   0.00000  Uiso   1.00
H238   H     0.06969   0.47380   0.17427   0.00000  Uiso   1.00
O239   O     0.29216   0.53871   0.32287   0.00000  Uiso   1.00
H240   H     0.26364   0.52620   0.32574   0.00000  Uiso   1.00
O241   O     0.28706   0.45904   0.18198   0.00000  Uiso   1.00
H242   H     0.30537   0.44522   0.15924   0.00000  Uiso   1.00
O243   O     0.04627   0.54096   0.31802   0.00000  Uiso   1.00
H244   H     0.02796   0.55481   0.34073   0.00000  Uiso   1.00
F245   F     0.22111   0.37906   0.30319   0.00000  Uiso   1.00
F246   F     0.11223   0.62094   0.19681   0.00000  Uiso   1.00
F247   F     0.11248   0.38086   0.19649   0.00000  Uiso   1.00
F248   F     0.22085   0.61914   0.30351   0.00000  Uiso   1.00
C249   C     0.42013   0.50021   0.24956   0.00000  Uiso   1.00
C250   C     0.57987   0.49979   0.25044   0.00000  Uiso   1.00
C251   C     0.46677   0.57524   0.02117   0.00000  Uiso   1.00
C252   C     0.53325   0.42476   0.47883   0.00000  Uiso   1.00
C253   C     0.35442   0.47988   0.21356   0.00000  Uiso   1.00
C254   C     0.64558   0.52012   0.28644   0.00000  Uiso   1.00
C255   C     0.64430   0.47850   0.21535   0.00000  Uiso   1.00
C256   C     0.35570   0.52150   0.28465   0.00000  Uiso   1.00
C257   C     0.62403   0.49910   0.25123   0.00000  Uiso   1.00
C258   C     0.37597   0.50090   0.24877   0.00000  Uiso   1.00
C259   C     0.52713   0.35685   0.27663   0.00000  Uiso   1.00
C260   C     0.47287   0.64315   0.22337   0.00000  Uiso   1.00
C261   C     0.47291   0.35776   0.22332   0.00000  Uiso   1.00
C262   C     0.52709   0.64224   0.27668   0.00000  Uiso   1.00
C263   C     0.49956   0.50021   0.16334   0.00000  Uiso   1.00
C264   C     0.50044   0.49979   0.33666   0.00000  Uiso   1.00
C265   C     0.51746   0.46209   0.40796   0.00000  Uiso   1.00
C266   C     0.48254   0.53790   0.09205   0.00000  Uiso   1.00
C267   C     0.50088   0.49940   0.38455   0.00000  Uiso   1.00
C268   C     0.49913   0.50060   0.11545   0.00000  Uiso   1.00
C269   C     0.48449   0.53676   0.40676   0.00000  Uiso   1.00
C270   C     0.51555   0.46326   0.09324   0.00000  Uiso   1.00
C271   C     0.48406   0.53724   0.45277   0.00000  Uiso   1.00
C272   C     0.51598   0.46278   0.04724   0.00000  Uiso   1.00
C273   C     0.50031   0.49976   0.47677   0.00000  Uiso   1.00
C274   C     0.49972   0.50026   0.02323   0.00000  Uiso   1.00
C275   C     0.51716   0.46184   0.45434   0.00000  Uiso   1.00
C276   C     0.48285   0.53816   0.04567   0.00000  Uiso   1.00
C277   C     0.46746   0.57462   0.47496   0.00000  Uiso   1.00
C278   C     0.53258   0.42540   0.02504   0.00000  Uiso   1.00
H279   H     0.47157   0.56532   0.38817   0.00000  Uiso   1.00
H280   H     0.52848   0.43471   0.11184   0.00000  Uiso   1.00
H281   H     0.45498   0.60343   0.45649   0.00000  Uiso   1.00
H282   H     0.54506   0.39660   0.04352   0.00000  Uiso   1.00
N283   N     0.50000   0.61907   0.25000   0.00000  Uiso   1.00
N284   N     0.50000   0.38093   0.25000   0.00000  Uiso   1.00
O285   O     0.43892   0.53821   0.24999   0.00000  Uiso   1.00
O286   O     0.56108   0.46179   0.25000   0.00000  Uiso   1.00
O287   O     0.56108   0.53821   0.25000   0.00000  Uiso   1.00
O288   O     0.43892   0.46179   0.24999   0.00000  Uiso   1.00
O289   O     0.49999   0.53823   0.18392   0.00000  Uiso   1.00
O290   O     0.50001   0.46177   0.31607   0.00000  Uiso   1.00
O291   O     0.50001   0.53823   0.31607   0.00000  Uiso   1.00
O292   O     0.49999   0.46177   0.18392   0.00000  Uiso   1.00
Zn293  Zn    0.50000   0.55104   0.25000   0.00000  Uiso   1.00
Zn294  Zn    0.50000   0.44896   0.25000   0.00000  Uiso   1.00
F295   F     0.53457   0.42675   0.38552   0.00000  Uiso   1.00
F296   F     0.46538   0.57321   0.11448   0.00000  Uiso   1.00
F297   F     0.45049   0.61222   0.04154   0.00000  Uiso   1.00
F298   F     0.54952   0.38778   0.45846   0.00000  Uiso   1.00
O299   O     0.37450   0.46129   0.17713   0.00000  Uiso   1.00
H300   H     0.40303   0.47380   0.17427   0.00000  Uiso   1.00
O301   O     0.62550   0.53871   0.32287   0.00000  Uiso   1.00
H302   H     0.59698   0.52620   0.32574   0.00000  Uiso   1.00
O303   O     0.62039   0.45904   0.18198   0.00000  Uiso   1.00
H304   H     0.63870   0.44522   0.15924   0.00000  Uiso   1.00
O305   O     0.37961   0.54096   0.31802   0.00000  Uiso   1.00
H306   H     0.36130   0.55481   0.34073   0.00000  Uiso   1.00
F307   F     0.55444   0.37906   0.30319   0.00000  Uiso   1.00
F308   F     0.44556   0.62094   0.19681   0.00000  Uiso   1.00
F309   F     0.44581   0.38086   0.19649   0.00000  Uiso   1.00
F310   F     0.55419   0.61914   0.30351   0.00000  Uiso   1.00
C311   C     0.75346   0.50021   0.24956   0.00000  Uiso   1.00
C312   C     0.91320   0.49979   0.25044   0.00000  Uiso   1.00
C313   C     0.80010   0.57524   0.02117   0.00000  Uiso   1.00
C314   C     0.86658   0.42476   0.47883   0.00000  Uiso   1.00
C315   C     0.68775   0.47988   0.21356   0.00000  Uiso   1.00
C316   C     0.97891   0.52012   0.28644   0.00000  Uiso   1.00
C317   C     0.97763   0.47850   0.21535   0.00000  Uiso   1.00
C318   C     0.68903   0.52150   0.28465   0.00000  Uiso   1.00
C319   C     0.95736   0.49910   0.25123   0.00000  Uiso   1.00
C320   C     0.70931   0.50090   0.24877   0.00000  Uiso   1.00
C321   C     0.86046   0.35685   0.27663   0.00000  Uiso   1.00
C322   C     0.80620   0.64315   0.22337   0.00000  Uiso   1.00
C323   C     0.80624   0.35776   0.22332   0.00000  Uiso   1.00
C324   C     0.86043   0.64224   0.27668   0.00000  Uiso   1.00
C325   C     0.83289   0.50021   0.16334   0.00000  Uiso   1.00
C326   C     0.83377   0.49979   0.33666   0.00000  Uiso   1.00
C327   C     0.85079   0.46209   0.40796   0.00000  Uiso   1.00
C328   C     0.81587   0.53790   0.09205   0.00000  Uiso   1.00
C329   C     0.83421   0.49940   0.38455   0.00000  Uiso   1.00
C330   C     0.83246   0.50060   0.11545   0.00000  Uiso   1.00
C331   C     0.81782   0.53676   0.40676   0.00000  Uiso   1.00
C332   C     0.84888   0.46326   0.09324   0.00000  Uiso   1.00
C333   C     0.81739   0.53724   0.45277   0.00000  Uiso   1.00
C334   C     0.84931   0.46278   0.04724   0.00000  Uiso   1.00
C335   C     0.83364   0.49976   0.47677   0.00000  Uiso   1.00
C336   C     0.83305   0.50026   0.02323   0.00000  Uiso   1.00
C337   C     0.85049   0.46184   0.45434   0.00000  Uiso   1.00
C338   C     0.81619   0.53816   0.04567   0.00000  Uiso   1.00
C339   C     0.80079   0.57462   0.47496   0.00000  Uiso   1.00
C340   C     0.86591   0.42540   0.02504   0.00000  Uiso   1.00
H341   H     0.80490   0.56532   0.38817   0.00000  Uiso   1.00
H342   H     0.86182   0.43471   0.11184   0.00000  Uiso   1.00
H343   H     0.78832   0.60343   0.45649   0.00000  Uiso   1.00
H344   H     0.87840   0.39660   0.04352   0.00000  Uiso   1.00
N345   N     0.83333   0.61907   0.25000   0.00000  Uiso   1.00
N346   N     0.83333   0.38093   0.25000   0.00000  Uiso   1.00
O347   O     0.77226   0.53821   0.24999   0.00000  Uiso   1.00
O348   O     0.89441   0.46179   0.25000   0.00000  Uiso   1.00
O349   O     0.89441   0.53821   0.25000   0.00000  Uiso   1.00
O350   O     0.77226   0.46179   0.24999   0.00000  Uiso   1.00
O351   O     0.83333   0.53823   0.18392   0.00000  Uiso   1.00
O352   O     0.83334   0.46177   0.31607   0.00000  Uiso   1.00
O353   O     0.83334   0.53823   0.31607   0.00000  Uiso   1.00
O354   O     0.83333   0.46177   0.18392   0.00000  Uiso   1.00
Zn355  Zn    0.83333   0.55104   0.25000   0.00000  Uiso   1.00
Zn356  Zn    0.83333   0.44896   0.25000   0.00000  Uiso   1.00
F357   F     0.86790   0.42675   0.38552   0.00000  Uiso   1.00
F358   F     0.79872   0.57321   0.11448   0.00000  Uiso   1.00
F359   F     0.78382   0.61222   0.04154   0.00000  Uiso   1.00
F360   F     0.88286   0.38778   0.45846   0.00000  Uiso   1.00
O361   O     0.70784   0.46129   0.17713   0.00000  Uiso   1.00
H362   H     0.73636   0.47380   0.17427   0.00000  Uiso   1.00
O363   O     0.95883   0.53871   0.32287   0.00000  Uiso   1.00
H364   H     0.93031   0.52620   0.32574   0.00000  Uiso   1.00
O365   O     0.95373   0.45904   0.18198   0.00000  Uiso   1.00
H366   H     0.97203   0.44522   0.15924   0.00000  Uiso   1.00
O367   O     0.71294   0.54096   0.31802   0.00000  Uiso   1.00
H368   H     0.69463   0.55481   0.34073   0.00000  Uiso   1.00
F369   F     0.88777   0.37906   0.30319   0.00000  Uiso   1.00
F370   F     0.77889   0.62094   0.19681   0.00000  Uiso   1.00
F371   F     0.77915   0.38086   0.19649   0.00000  Uiso   1.00
F372   F     0.88752   0.61914   0.30351   0.00000  Uiso   1.00
C373   C     0.08680   0.83355   0.24956   0.00000  Uiso   1.00
C374   C     0.24654   0.83312   0.25044   0.00000  Uiso   1.00
C375   C     0.13344   0.90858   0.02117   0.00000  Uiso   1.00
C376   C     0.19992   0.75810   0.47883   0.00000  Uiso   1.00
C377   C     0.02109   0.81321   0.21356   0.00000  Uiso   1.00
C378   C     0.31225   0.85346   0.28644   0.00000  Uiso   1.00
C379   C     0.31097   0.81183   0.21535   0.00000  Uiso   1.00
C380   C     0.02236   0.85484   0.28465   0.00000  Uiso   1.00
C381   C     0.29069   0.83243   0.25123   0.00000  Uiso   1.00
C382   C     0.04264   0.83423   0.24877   0.00000  Uiso   1.00
C383   C     0.19380   0.69019   0.27663   0.00000  Uiso   1.00
C384   C     0.13954   0.97648   0.22337   0.00000  Uiso   1.00
C385   C     0.13957   0.69109   0.22332   0.00000  Uiso   1.00
C386   C     0.19376   0.97558   0.27668   0.00000  Uiso   1.00
C387   C     0.16623   0.83354   0.16334   0.00000  Uiso   1.00
C388   C     0.16711   0.83313   0.33666   0.00000  Uiso   1.00
C389   C     0.18412   0.79542   0.40796   0.00000  Uiso   1.00
C390   C     0.14920   0.87124   0.09205   0.00000  Uiso   1.00
C391   C     0.16755   0.83274   0.38455   0.00000  Uiso   1.00
C392   C     0.16580   0.83393   0.11545   0.00000  Uiso   1.00
C393   C     0.15116   0.87009   0.40676   0.00000  Uiso   1.00
C394   C     0.18221   0.79659   0.09324   0.00000  Uiso   1.00
C395   C     0.15073   0.87057   0.45277   0.00000  Uiso   1.00
C396   C     0.18264   0.79612   0.04724   0.00000  Uiso   1.00
C397   C     0.16698   0.83309   0.47677   0.00000  Uiso   1.00
C398   C     0.16638   0.83359   0.02323   0.00000  Uiso   1.00
C399   C     0.18383   0.79518   0.45434   0.00000  Uiso   1.00
C400   C     0.14952   0.87149   0.04567   0.00000  Uiso   1.00
C401   C     0.13413   0.90795   0.47496   0.00000  Uiso   1.00
C402   C     0.19925   0.75874   0.02504   0.00000  Uiso   1.00
H403   H     0.13824   0.89865   0.38817   0.00000  Uiso   1.00
H404   H     0.19515   0.76805   0.11184   0.00000  Uiso   1.00
H405   H     0.12165   0.93676   0.45649   0.00000  Uiso   1.00
H406   H     0.21173   0.72993   0.04352   0.00000  Uiso   1.00
N407   N     0.16667   0.95240   0.25000   0.00000  Uiso   1.00
N408   N     0.16667   0.71427   0.25000   0.00000  Uiso   1.00
O409   O     0.10559   0.87154   0.24999   0.00000  Uiso   1.00
O410   O     0.22774   0.79513   0.25000   0.00000  Uiso   1.00
O411   O     0.22774   0.87154   0.25000   0.00000  Uiso   1.00
O412   O     0.10559   0.79513   0.24999   0.00000  Uiso   1.00
O413   O     0.16666   0.87156   0.18392   0.00000  Uiso   1.00
O414   O     0.16667   0.79511   0.31607   0.00000  Uiso   1.00
O415   O     0.16667   0.87156   0.31607   0.00000  Uiso   1.00
O416   O     0.16666   0.79511   0.18392   0.00000  Uiso   1.00
Zn417  Zn    0.16667   0.88437   0.25000   0.00000  Uiso   1.00
Zn418  Zn    0.16667   0.78229   0.25000   0.00000  Uiso   1.00
F419   F     0.20123   0.76008   0.38552   0.00000  Uiso   1.00
F420   F     0.13205   0.90655   0.11448   0.00000  Uiso   1.00
F421   F     0.11715   0.94555   0.04154   0.00000  Uiso   1.00
F422   F     0.21619   0.72112   0.45846   0.00000  Uiso   1.00
O423   O     0.04117   0.79462   0.17713   0.00000  Uiso   1.00
H424   H     0.06969   0.80713   0.17427   0.00000  Uiso   1.00
O425   O     0.29216   0.87204   0.32287   0.00000  Uiso   1.00
H426   H     0.26364   0.85953   0.32574   0.00000  Uiso   1.00
O427   O     0.28706   0.79238   0.18198   0.00000  Uiso   1.00
H428   H     0.30537   0.77856   0.15924   0.00000  Uiso   1.00
O429   O     0.04627   0.87430   0.31802   0.00000  Uiso   1.00
H430   H     0.02796   0.88814   0.34073   0.00000  Uiso   1.00
F431   F     0.22111   0.71239   0.30319   0.00000  Uiso   1.00
F432   F     0.11223   0.95427   0.19681   0.00000  Uiso   1.00
F433   F     0.11248   0.71420   0.19649   0.00000  Uiso   1.00
F434   F     0.22085   0.95247   0.30351   0.00000  Uiso   1.00
C435   C     0.42013   0.83355   0.24956   0.00000  Uiso   1.00
C436   C     0.57987   0.83312   0.25044   0.00000  Uiso   1.00
C437   C     0.46677   0.90858   0.02117   0.00000  Uiso   1.00
C438   C     0.53325   0.75810   0.47883   0.00000  Uiso   1.00
C439   C     0.35442   0.81321   0.21356   0.00000  Uiso   1.00
C440   C     0.64558   0.85346   0.28644   0.00000  Uiso   1.00
C441   C     0.64430   0.81183   0.21535   0.00000  Uiso   1.00
C442   C     0.35570   0.85484   0.28465   0.00000  Uiso   1.00
C443   C     0.62403   0.83243   0.25123   0.00000  Uiso   1.00
C444   C     0.37597   0.83423   0.24877   0.00000  Uiso   1.00
C445   C     0.52713   0.69019   0.27663   0.00000  Uiso   1.00
C446   C     0.47287   0.97648   0.22337   0.00000  Uiso   1.00
C447   C     0.47291   0.69109   0.22332   0.00000  Uiso   1.00
C448   C     0.52709   0.97558   0.27668   0.00000  Uiso   1.00
C449   C     0.49956   0.83354   0.16334   0.00000  Uiso   1.00
C450   C     0.50044   0.83313   0.33666   0.00000  Uiso   1.00
C451   C     0.51746   0.79542   0.40796   0.00000  Uiso   1.00
C452   C     0.48254   0.87124   0.09205   0.00000  Uiso   1.00
C453   C     0.50088   0.83274   0.38455   0.00000  Uiso   1.00
C454   C     0.49913   0.83393   0.11545   0.00000  Uiso   1.00
C455   C     0.48449   0.87009   0.40676   0.00000  Uiso   1.00
C456   C     0.51555   0.79659   0.09324   0.00000  Uiso   1.00
C457   C     0.48406   0.87057   0.45277   0.00000  Uiso   1.00
C458   C     0.51598   0.79612   0.04724   0.00000  Uiso   1.00
C459   C     0.50031   0.83309   0.47677   0.00000  Uiso   1.00
C460   C     0.49972   0.83359   0.02323   0.00000  Uiso   1.00
C461   C     0.51716   0.79518   0.45434   0.00000  Uiso   1.00
C462   C     0.48285   0.87149   0.04567   0.00000  Uiso   1.00
C463   C     0.46746   0.90795   0.47496   0.00000  Uiso   1.00
C464   C     0.53258   0.75874   0.02504   0.00000  Uiso   1.00
H465   H     0.47157   0.89865   0.38817   0.00000  Uiso   1.00
H466   H     0.52848   0.76805   0.11184   0.00000  Uiso   1.00
H467   H     0.45498   0.93676   0.45649   0.00000  Uiso   1.00
H468   H     0.54506   0.72993   0.04352   0.00000  Uiso   1.00
N469   N     0.50000   0.95240   0.25000   0.00000  Uiso   1.00
N470   N     0.50000   0.71427   0.25000   0.00000  Uiso   1.00
O471   O     0.43892   0.87154   0.24999   0.00000  Uiso   1.00
O472   O     0.56108   0.79513   0.25000   0.00000  Uiso   1.00
O473   O     0.56108   0.87154   0.25000   0.00000  Uiso   1.00
O474   O     0.43892   0.79513   0.24999   0.00000  Uiso   1.00
O475   O     0.49999   0.87156   0.18392   0.00000  Uiso   1.00
O476   O     0.50001   0.79511   0.31607   0.00000  Uiso   1.00
O477   O     0.50001   0.87156   0.31607   0.00000  Uiso   1.00
O478   O     0.49999   0.79511   0.18392   0.00000  Uiso   1.00
Zn479  Zn    0.50000   0.88437   0.25000   0.00000  Uiso   1.00
Zn480  Zn    0.50000   0.78229   0.25000   0.00000  Uiso   1.00
F481   F     0.53457   0.76008   0.38552   0.00000  Uiso   1.00
F482   F     0.46538   0.90655   0.11448   0.00000  Uiso   1.00
F483   F     0.45049   0.94555   0.04154   0.00000  Uiso   1.00
F484   F     0.54952   0.72112   0.45846   0.00000  Uiso   1.00
O485   O     0.37450   0.79462   0.17713   0.00000  Uiso   1.00
H486   H     0.40303   0.80713   0.17427   0.00000  Uiso   1.00
O487   O     0.62550   0.87204   0.32287   0.00000  Uiso   1.00
H488   H     0.59698   0.85953   0.32574   0.00000  Uiso   1.00
O489   O     0.62039   0.79238   0.18198   0.00000  Uiso   1.00
H490   H     0.63870   0.77856   0.15924   0.00000  Uiso   1.00
O491   O     0.37961   0.87430   0.31802   0.00000  Uiso   1.00
H492   H     0.36130   0.88814   0.34073   0.00000  Uiso   1.00
F493   F     0.55444   0.71239   0.30319   0.00000  Uiso   1.00
F494   F     0.44556   0.95427   0.19681   0.00000  Uiso   1.00
F495   F     0.44581   0.71420   0.19649   0.00000  Uiso   1.00
F496   F     0.55419   0.95247   0.30351   0.00000  Uiso   1.00
C497   C     0.75346   0.83355   0.24956   0.00000  Uiso   1.00
C498   C     0.91320   0.83312   0.25044   0.00000  Uiso   1.00
C499   C     0.80010   0.90858   0.02117   0.00000  Uiso   1.00
C500   C     0.86658   0.75810   0.47883   0.00000  Uiso   1.00
C501   C     0.68775   0.81321   0.21356   0.00000  Uiso   1.00
C502   C     0.97891   0.85346   0.28644   0.00000  Uiso   1.00
C503   C     0.97763   0.81183   0.21535   0.00000  Uiso   1.00
C504   C     0.68903   0.85484   0.28465   0.00000  Uiso   1.00
C505   C     0.95736   0.83243   0.25123   0.00000  Uiso   1.00
C506   C     0.70931   0.83423   0.24877   0.00000  Uiso   1.00
C507   C     0.86046   0.69019   0.27663   0.00000  Uiso   1.00
C508   C     0.80620   0.97648   0.22337   0.00000  Uiso   1.00
C509   C     0.80624   0.69109   0.22332   0.00000  Uiso   1.00
C510   C     0.86043   0.97558   0.27668   0.00000  Uiso   1.00
C511   C     0.83289   0.83354   0.16334   0.00000  Uiso   1.00
C512   C     0.83377   0.83313   0.33666   0.00000  Uiso   1.00
C513   C     0.85079   0.79542   0.40796   0.00000  Uiso   1.00
C514   C     0.81587   0.87124   0.09205   0.00000  Uiso   1.00
C515   C     0.83421   0.83274   0.38455   0.00000  Uiso   1.00
C516   C     0.83246   0.83393   0.11545   0.00000  Uiso   1.00
C517   C     0.81782   0.87009   0.40676   0.00000  Uiso   1.00
C518   C     0.84888   0.79659   0.09324   0.00000  Uiso   1.00
C519   C     0.81739   0.87057   0.45277   0.00000  Uiso   1.00
C520   C     0.84931   0.79612   0.04724   0.00000  Uiso   1.00
C521   C     0.83364   0.83309   0.47677   0.00000  Uiso   1.00
C522   C     0.83305   0.83359   0.02323   0.00000  Uiso   1.00
C523   C     0.85049   0.79518   0.45434   0.00000  Uiso   1.00
C524   C     0.81619   0.87149   0.04567   0.00000  Uiso   1.00
C525   C     0.80079   0.90795   0.47496   0.00000  Uiso   1.00
C526   C     0.86591   0.75874   0.02504   0.00000  Uiso   1.00
H527   H     0.80490   0.89865   0.38817   0.00000  Uiso   1.00
H528   H     0.86182   0.76805   0.11184   0.00000  Uiso   1.00
H529   H     0.78832   0.93676   0.45649   0.00000  Uiso   1.00
H530   H     0.87840   0.72993   0.04352   0.00000  Uiso   1.00
N531   N     0.83333   0.95240   0.25000   0.00000  Uiso   1.00
N532   N     0.83333   0.71427   0.25000   0.00000  Uiso   1.00
O533   O     0.77226   0.87154   0.24999   0.00000  Uiso   1.00
O534   O     0.89441   0.79513   0.25000   0.00000  Uiso   1.00
O535   O     0.89441   0.87154   0.25000   0.00000  Uiso   1.00
O536   O     0.77226   0.79513   0.24999   0.00000  Uiso   1.00
O537   O     0.83333   0.87156   0.18392   0.00000  Uiso   1.00
O538   O     0.83334   0.79511   0.31607   0.00000  Uiso   1.00
O539   O     0.83334   0.87156   0.31607   0.00000  Uiso   1.00
O540   O     0.83333   0.79511   0.18392   0.00000  Uiso   1.00
Zn541  Zn    0.83333   0.88437   0.25000   0.00000  Uiso   1.00
Zn542  Zn    0.83333   0.78229   0.25000   0.00000  Uiso   1.00
F543   F     0.86790   0.76008   0.38552   0.00000  Uiso   1.00
F544   F     0.79872   0.90655   0.11448   0.00000  Uiso   1.00
F545   F     0.78382   0.94555   0.04154   0.00000  Uiso   1.00
F546   F     0.88286   0.72112   0.45846   0.00000  Uiso   1.00
O547   O     0.70784   0.79462   0.17713   0.00000  Uiso   1.00
H548   H     0.73636   0.80713   0.17427   0.00000  Uiso   1.00
O549   O     0.95883   0.87204   0.32287   0.00000  Uiso   1.00
H550   H     0.93031   0.85953   0.32574   0.00000  Uiso   1.00
O551   O     0.95373   0.79238   0.18198   0.00000  Uiso   1.00
H552   H     0.97203   0.77856   0.15924   0.00000  Uiso   1.00
O553   O     0.71294   0.87430   0.31802   0.00000  Uiso   1.00
H554   H     0.69463   0.88814   0.34073   0.00000  Uiso   1.00
F555   F     0.88777   0.71239   0.30319   0.00000  Uiso   1.00
F556   F     0.77889   0.95427   0.19681   0.00000  Uiso   1.00
F557   F     0.77915   0.71420   0.19649   0.00000  Uiso   1.00
F558   F     0.88752   0.95247   0.30351   0.00000  Uiso   1.00
C559   C     0.08680   0.16688   0.74956   0.00000  Uiso   1.00
C560   C     0.24654   0.16645   0.75044   0.00000  Uiso   1.00
C561   C     0.13344   0.24191   0.52117   0.00000  Uiso   1.00
C562   C     0.19992   0.09143   0.97883   0.00000  Uiso   1.00
C563   C     0.02109   0.14654   0.71356   0.00000  Uiso   1.00
C564   C     0.31225   0.18679   0.78644   0.00000  Uiso   1.00
C565   C     0.31097   0.14517   0.71535   0.00000  Uiso   1.00
C566   C     0.02236   0.18817   0.78465   0.00000  Uiso   1.00
C567   C     0.29069   0.16577   0.75123   0.00000  Uiso   1.00
C568   C     0.04264   0.16757   0.74877   0.00000  Uiso   1.00
C569   C     0.19380   0.02352   0.77663   0.00000  Uiso   1.00
C570   C     0.13954   0.30981   0.72337   0.00000  Uiso   1.00
C571   C     0.13957   0.02442   0.72332   0.00000  Uiso   1.00
C572   C     0.19376   0.30891   0.77668   0.00000  Uiso   1.00
C573   C     0.16623   0.16687   0.66334   0.00000  Uiso   1.00
C574   C     0.16711   0.16646   0.83666   0.00000  Uiso   1.00
C575   C     0.18412   0.12875   0.90796   0.00000  Uiso   1.00
C576   C     0.14920   0.20457   0.59205   0.00000  Uiso   1.00
C577   C     0.16755   0.16607   0.88455   0.00000  Uiso   1.00
C578   C     0.16580   0.16727   0.61545   0.00000  Uiso   1.00
C579   C     0.15116   0.20343   0.90676   0.00000  Uiso   1.00
C580   C     0.18221   0.12993   0.59324   0.00000  Uiso   1.00
C581   C     0.15073   0.20390   0.95277   0.00000  Uiso   1.00
C582   C     0.18264   0.12945   0.54724   0.00000  Uiso   1.00
C583   C     0.16698   0.16642   0.97677   0.00000  Uiso   1.00
C584   C     0.16638   0.16693   0.52323   0.00000  Uiso   1.00
C585   C     0.18383   0.12851   0.95434   0.00000  Uiso   1.00
C586   C     0.14952   0.20483   0.54567   0.00000  Uiso   1.00
C587   C     0.13413   0.24128   0.97496   0.00000  Uiso   1.00
C588   C     0.19925   0.09207   0.52504   0.00000  Uiso   1.00
H589   H     0.13824   0.23198   0.88817   0.00000  Uiso   1.00
H590   H     0.19515   0.10138   0.61184   0.00000  Uiso   1.00
H591   H     0.12165   0.27010   0.95649   0.00000  Uiso   1.00
H592   H     0.21173   0.06326   0.54352   0.00000  Uiso   1.00
N593   N     0.16667   0.28573   0.75000   0.00000  Uiso   1.00
N594   N     0.16667   0.04760   0.75000   0.00000  Uiso   1.00
O595   O     0.10559   0.20487   0.74999   0.00000  Uiso   1.00
O596   O     0.22774   0.12846   0.75000   0.00000  Uiso   1.00
O597   O     0.22774   0.20487   0.75000   0.00000  Uiso   1.00
O598   O     0.10559   0.12846   0.74999   0.00000  Uiso   1.00
O599   O     0.16666   0.20489   0.68392   0.00000  Uiso   1.00
O600   O     0.16667   0.12844   0.81607   0.00000  Uiso   1.00
O601   O     0.16667   0.20489   0.81607   0.00000  Uiso   1.00
O602   O     0.16666   0.12844   0.68392   0.00000  Uiso   1.00
Zn603  Zn    0.16667   0.21771   0.75000   0.00000  Uiso   1.00
Zn604  Zn    0.16667   0.11563   0.75000   0.00000  Uiso   1.00
F605   F     0.20123   0.09341   0.88552   0.00000  Uiso   1.00
F606   F     0.13205   0.23988   0.61448   0.00000  Uiso   1.00
F607   F     0.11715   0.27888   0.54154   0.00000  Uiso   1.00
F608   F     0.21619   0.05445   0.95846   0.00000  Uiso   1.00
O609   O     0.04117   0.12795   0.67713   0.00000  Uiso   1.00
H610   H     0.06969   0.14047   0.67427   0.00000  Uiso   1.00
O611   O     0.29216   0.20538   0.82287   0.00000  Uiso   1.00
H612   H     0.26364   0.19286   0.82574   0.00000  Uiso   1.00
O613   O     0.28706   0.12571   0.68198   0.00000  Uiso   1.00
H614   H     0.30537   0.11189   0.65924   0.00000  Uiso   1.00
O615   O     0.04627   0.20763   0.81802   0.00000  Uiso   1.00
H616   H     0.02796   0.22148   0.84073   0.00000  Uiso   1.00
F617   F     0.22111   0.04573   0.80319   0.00000  Uiso   1.00
F618   F     0.11223   0.28761   0.69681   0.00000  Uiso   1.00
F619   F     0.11248   0.04753   0.69649   0.00000  Uiso   1.00
F620   F     0.22085   0.28580   0.80351   0.00000  Uiso   1.00
C621   C     0.42013   0.16688   0.74956   0.00000  Uiso   1.00
C622   C     0.57987   0.16645   0.75044   0.00000  Uiso   1.00
C623   C     0.46677   0.24191   0.52117   0.00000  Uiso   1.00
C624   C     0.53325   0.09143   0.97883   0.00000  Uiso   1.00
C625   C     0.35442   0.14654   0.71356   0.00000  Uiso   1.00
C626   C     0.64558   0.18679   0.78644   0.00000  Uiso   1.00
C627   C     0.64430   0.14517   0.71535   0.00000  Uiso   1.00
C628   C     0.35570   0.18817   0.78465   0.00000  Uiso   1.00
C629   C     0.62403   0.16577   0.75123   0.00000  Uiso   1.00
C630   C     0.37597   0.16757   0.74877   0.00000  Uiso   1.00
C631   C     0.52713   0.02352   0.77663   0.00000  Uiso   1.00
C632   C     0.47287   0.30981   0.72337   0.00000  Uiso   1.00
C633   C     0.47291   0.02442   0.72332   0.00000  Uiso   1.00
C634   C     0.52709   0.30891   0.77668   0.00000  Uiso   1.00
C635   C     0.49956   0.16687   0.66334   0.00000  Uiso   1.00
C636   C     0.50044   0.16646   0.83666   0.00000  Uiso   1.00
C637   C     0.51746   0.12875   0.90796   0.00000  Uiso   1.00
C638   C     0.48254   0.20457   0.59205   0.00000  Uiso   1.00
C639   C     0.50088   0.16607   0.88455   0.00000  Uiso   1.00
C640   C     0.49913   0.16727   0.61545   0.00000  Uiso   1.00
C641   C     0.48449   0.20343   0.90676   0.00000  Uiso   1.00
C642   C     0.51555   0.12993   0.59324   0.00000  Uiso   1.00
C643   C     0.48406   0.20390   0.95277   0.00000  Uiso   1.00
C644   C     0.51598   0.12945   0.54724   0.00000  Uiso   1.00
C645   C     0.50031   0.16642   0.97677   0.00000  Uiso   1.00
C646   C     0.49972   0.16693   0.52323   0.00000  Uiso   1.00
C647   C     0.51716   0.12851   0.95434   0.00000  Uiso   1.00
C648   C     0.48285   0.20483   0.54567   0.00000  Uiso   1.00
C649   C     0.46746   0.24128   0.97496   0.00000  Uiso   1.00
C650   C     0.53258   0.09207   0.52504   0.00000  Uiso   1.00
H651   H     0.47157   0.23198   0.88817   0.00000  Uiso   1.00
H652   H     0.52848   0.10138   0.61184   0.00000  Uiso   1.00
H653   H     0.45498   0.27010   0.95649   0.00000  Uiso   1.00
H654   H     0.54506   0.06326   0.54352   0.00000  Uiso   1.00
N655   N     0.50000   0.28573   0.75000   0.00000  Uiso   1.00
N656   N     0.50000   0.04760   0.75000   0.00000  Uiso   1.00
O657   O     0.43892   0.20487   0.74999   0.00000  Uiso   1.00
O658   O     0.56108   0.12846   0.75000   0.00000  Uiso   1.00
O659   O     0.56108   0.20487   0.75000   0.00000  Uiso   1.00
O660   O     0.43892   0.12846   0.74999   0.00000  Uiso   1.00
O661   O     0.49999   0.20489   0.68392   0.00000  Uiso   1.00
O662   O     0.50001   0.12844   0.81607   0.00000  Uiso   1.00
O663   O     0.50001   0.20489   0.81607   0.00000  Uiso   1.00
O664   O     0.49999   0.12844   0.68392   0.00000  Uiso   1.00
Zn665  Zn    0.50000   0.21771   0.75000   0.00000  Uiso   1.00
Zn666  Zn    0.50000   0.11563   0.75000   0.00000  Uiso   1.00
F667   F     0.53457   0.09341   0.88552   0.00000  Uiso   1.00
F668   F     0.46538   0.23988   0.61448   0.00000  Uiso   1.00
F669   F     0.45049   0.27888   0.54154   0.00000  Uiso   1.00
F670   F     0.54952   0.05445   0.95846   0.00000  Uiso   1.00
O671   O     0.37450   0.12795   0.67713   0.00000  Uiso   1.00
H672   H     0.40303   0.14047   0.67427   0.00000  Uiso   1.00
O673   O     0.62550   0.20538   0.82287   0.00000  Uiso   1.00
H674   H     0.59698   0.19286   0.82574   0.00000  Uiso   1.00
O675   O     0.62039   0.12571   0.68198   0.00000  Uiso   1.00
H676   H     0.63870   0.11189   0.65924   0.00000  Uiso   1.00
O677   O     0.37961   0.20763   0.81802   0.00000  Uiso   1.00
H678   H     0.36130   0.22148   0.84073   0.00000  Uiso   1.00
F679   F     0.55444   0.04573   0.80319   0.00000  Uiso   1.00
F680   F     0.44556   0.28761   0.69681   0.00000  Uiso   1.00
F681   F     0.44581   0.04753   0.69649   0.00000  Uiso   1.00
F682   F     0.55419   0.28580   0.80351   0.00000  Uiso   1.00
C683   C     0.75346   0.16688   0.74956   0.00000  Uiso   1.00
C684   C     0.91320   0.16645   0.75044   0.00000  Uiso   1.00
C685   C     0.80010   0.24191   0.52117   0.00000  Uiso   1.00
C686   C     0.86658   0.09143   0.97883   0.00000  Uiso   1.00
C687   C     0.68775   0.14654   0.71356   0.00000  Uiso   1.00
C688   C     0.97891   0.18679   0.78644   0.00000  Uiso   1.00
C689   C     0.97763   0.14517   0.71535   0.00000  Uiso   1.00
C690   C     0.68903   0.18817   0.78465   0.00000  Uiso   1.00
C691   C     0.95736   0.16577   0.75123   0.00000  Uiso   1.00
C692   C     0.70931   0.16757   0.74877   0.00000  Uiso   1.00
C693   C     0.86046   0.02352   0.77663   0.00000  Uiso   1.00
C694   C     0.80620   0.30981   0.72337   0.00000  Uiso   1.00
C695   C     0.80624   0.02442   0.72332   0.00000  Uiso   1.00
C696   C     0.86043   0.30891   0.77668   0.00000  Uiso   1.00
C697   C     0.83289   0.16687   0.66334   0.00000  Uiso   1.00
C698   C     0.83377   0.16646   0.83666   0.00000  Uiso   1.00
C699   C     0.85079   0.12875   0.90796   0.00000  Uiso   1.00
C700   C     0.81587   0.20457   0.59205   0.00000  Uiso   1.00
C701   C     0.83421   0.16607   0.88455   0.00000  Uiso   1.00
C702   C     0.83246   0.16727   0.61545   0.00000  Uiso   1.00
C703   C     0.81782   0.20343   0.90676   0.00000  Uiso   1.00
C704   C     0.84888   0.12993   0.59324   0.00000  Uiso   1.00
C705   C     0.81739   0.20390   0.95277   0.00000  Uiso   1.00
C706   C     0.84931   0.12945   0.54724   0.00000  Uiso   1.00
C707   C     0.83364   0.16642   0.97677   0.00000  Uiso   1.00
C708   C     0.83305   0.16693   0.52323   0.00000  Uiso   1.00
C709   C     0.85049   0.12851   0.95434   0.00000  Uiso   1.00
C710   C     0.81619   0.20483   0.54567   0.00000  Uiso   1.00
C711   C     0.80079   0.24128   0.97496   0.00000  Uiso   1.00
C712   C     0.86591   0.09207   0.52504   0.00000  Uiso   1.00
H713   H     0.80490   0.23198   0.88817   0.00000  Uiso   1.00
H714   H     0.86182   0.10138   0.61184   0.00000  Uiso   1.00
H715   H     0.78832   0.27010   0.95649   0.00000  Uiso   1.00
H716   H     0.87840   0.06326   0.54352   0.00000  Uiso   1.00
N717   N     0.83333   0.28573   0.75000   0.00000  Uiso   1.00
N718   N     0.83333   0.04760   0.75000   0.00000  Uiso   1.00
O719   O     0.77226   0.20487   0.74999   0.00000  Uiso   1.00
O720   O     0.89441   0.12846   0.75000   0.00000  Uiso   1.00
O721   O     0.89441   0.20487   0.75000   0.00000  Uiso   1.00
O722   O     0.77226   0.12846   0.74999   0.00000  Uiso   1.00
O723   O     0.83333   0.20489   0.68392   0.00000  Uiso   1.00
O724   O     0.83334   0.12844   0.81607   0.00000  Uiso   1.00
O725   O     0.83334   0.20489   0.81607   0.00000  Uiso   1.00
O726   O     0.83333   0.12844   0.68392   0.00000  Uiso   1.00
Zn727  Zn    0.83333   0.21771   0.75000   0.00000  Uiso   1.00
Zn728  Zn    0.83333   0.11563   0.75000   0.00000  Uiso   1.00
F729   F     0.86790   0.09341   0.88552   0.00000  Uiso   1.00
F730   F     0.79872   0.23988   0.61448   0.00000  Uiso   1.00
F731   F     0.78382   0.27888   0.54154   0.00000  Uiso   1.00
F732   F     0.88286   0.05445   0.95846   0.00000  Uiso   1.00
O733   O     0.70784   0.12795   0.67713   0.00000  Uiso   1.00
H734   H     0.73636   0.14047   0.67427   0.00000  Uiso   1.00
O735   O     0.95883   0.20538   0.82287   0.00000  Uiso   1.00
H736   H     0.93031   0.19286   0.82574   0.00000  Uiso   1.00
O737   O     0.95373   0.12571   0.68198   0.00000  Uiso   1.00
H738   H     0.97203   0.11189   0.65924   0.00000  Uiso   1.00
O739   O     0.71294   0.20763   0.81802   0.00000  Uiso   1.00
H740   H     0.69463   0.22148   0.84073   0.00000  Uiso   1.00
F741   F     0.88777   0.04573   0.80319   0.00000  Uiso   1.00
F742   F     0.77889   0.28761   0.69681   0.00000  Uiso   1.00
F743   F     0.77915   0.04753   0.69649   0.00000  Uiso   1.00
F744   F     0.88752   0.28580   0.80351   0.00000  Uiso   1.00
C745   C     0.08680   0.50021   0.74956   0.00000  Uiso   1.00
C746   C     0.24654   0.49979   0.75044   0.00000  Uiso   1.00
C747   C     0.13344   0.57524   0.52117   0.00000  Uiso   1.00
C748   C     0.19992   0.42476   0.97883   0.00000  Uiso   1.00
C749   C     0.02109   0.47988   0.71356   0.00000  Uiso   1.00
C750   C     0.31225   0.52012   0.78644   0.00000  Uiso   1.00
C751   C     0.31097   0.47850   0.71535   0.00000  Uiso   1.00
C752   C     0.02236   0.52150   0.78465   0.00000  Uiso   1.00
C753   C     0.29069   0.49910   0.75123   0.00000  Uiso   1.00
C754   C     0.04264   0.50090   0.74877   0.00000  Uiso   1.00
C755   C     0.19380   0.35685   0.77663   0.00000  Uiso   1.00
C756   C     0.13954   0.64315   0.72337   0.00000  Uiso   1.00
C757   C     0.13957   0.35776   0.72332   0.00000  Uiso   1.00
C758   C     0.19376   0.64224   0.77668   0.00000  Uiso   1.00
C759   C     0.16623   0.50021   0.66334   0.00000  Uiso   1.00
C760   C     0.16711   0.49979   0.83666   0.00000  Uiso   1.00
C761   C     0.18412   0.46209   0.90796   0.00000  Uiso   1.00
C762   C     0.14920   0.53790   0.59205   0.00000  Uiso   1.00
C763   C     0.16755   0.49940   0.88455   0.00000  Uiso   1.00
C764   C     0.16580   0.50060   0.61545   0.00000  Uiso   1.00
C765   C     0.15116   0.53676   0.90676   0.00000  Uiso   1.00
C766   C     0.18221   0.46326   0.59324   0.00000  Uiso   1.00
C767   C     0.15073   0.53724   0.95277   0.00000  Uiso   1.00
C768   C     0.18264   0.46278   0.54724   0.00000  Uiso   1.00
C769   C     0.16698   0.49976   0.97677   0.00000  Uiso   1.00
C770   C     0.16638   0.50026   0.52323   0.00000  Uiso   1.00
C771   C     0.18383   0.46184   0.95434   0.00000  Uiso   1.00
C772   C     0.14952   0.53816   0.54567   0.00000  Uiso   1.00
C773   C     0.13413   0.57462   0.97496   0.00000  Uiso   1.00
C774   C     0.19925   0.42540   0.52504   0.00000  Uiso   1.00
H775   H     0.13824   0.56532   0.88817   0.00000  Uiso   1.00
H776   H     0.19515   0.43471   0.61184   0.00000  Uiso   1.00
H777   H     0.12165   0.60343   0.95649   0.00000  Uiso   1.00
H778   H     0.21173   0.39660   0.54352   0.00000  Uiso   1.00
N779   N     0.16667   0.61907   0.75000   0.00000  Uiso   1.00
N780   N     0.16667   0.38093   0.75000   0.00000  Uiso   1.00
O781   O     0.10559   0.53821   0.74999   0.00000  Uiso   1.00
O782   O     0.22774   0.46179   0.75000   0.00000  Uiso   1.00
O783   O     0.22774   0.53821   0.75000   0.00000  Uiso   1.00
O784   O     0.10559   0.46179   0.74999   0.00000  Uiso   1.00
O785   O     0.16666   0.53823   0.68392   0.00000  Uiso   1.00
O786   O     0.16667   0.46177   0.81607   0.00000  Uiso   1.00
O787   O     0.16667   0.53823   0.81607   0.00000  Uiso   1.00
O788   O     0.16666   0.46177   0.68392   0.00000  Uiso   1.00
Zn789  Zn    0.16667   0.55104   0.75000   0.00000  Uiso   1.00
Zn790  Zn    0.16667   0.44896   0.75000   0.00000  Uiso   1.00
F791   F     0.20123   0.42675   0.88552   0.00000  Uiso   1.00
F792   F     0.13205   0.57321   0.61448   0.00000  Uiso   1.00
F793   F     0.11715   0.61222   0.54154   0.00000  Uiso   1.00
F794   F     0.21619   0.38778   0.95846   0.00000  Uiso   1.00
O795   O     0.04117   0.46129   0.67713   0.00000  Uiso   1.00
H796   H     0.06969   0.47380   0.67427   0.00000  Uiso   1.00
O797   O     0.29216   0.53871   0.82287   0.00000  Uiso   1.00
H798   H     0.26364   0.52620   0.82574   0.00000  Uiso   1.00
O799   O     0.28706   0.45904   0.68198   0.00000  Uiso   1.00
H800   H     0.30537   0.44522   0.65924   0.00000  Uiso   1.00
O801   O     0.04627   0.54096   0.81802   0.00000  Uiso   1.00
H802   H     0.02796   0.55481   0.84073   0.00000  Uiso   1.00
F803   F     0.22111   0.37906   0.80319   0.00000  Uiso   1.00
F804   F     0.11223   0.62094   0.69681   0.00000  Uiso   1.00
F805   F     0.11248   0.38086   0.69649   0.00000  Uiso   1.00
F806   F     0.22085   0.61914   0.80351   0.00000  Uiso   1.00
C807   C     0.42013   0.50021   0.74956   0.00000  Uiso   1.00
C808   C     0.57987   0.49979   0.75044   0.00000  Uiso   1.00
C809   C     0.46677   0.57524   0.52117   0.00000  Uiso   1.00
C810   C     0.53325   0.42476   0.97883   0.00000  Uiso   1.00
C811   C     0.35442   0.47988   0.71356   0.00000  Uiso   1.00
C812   C     0.64558   0.52012   0.78644   0.00000  Uiso   1.00
C813   C     0.64430   0.47850   0.71535   0.00000  Uiso   1.00
C814   C     0.35570   0.52150   0.78465   0.00000  Uiso   1.00
C815   C     0.62403   0.49910   0.75123   0.00000  Uiso   1.00
C816   C     0.37597   0.50090   0.74877   0.00000  Uiso   1.00
C817   C     0.52713   0.35685   0.77663   0.00000  Uiso   1.00
C818   C     0.47287   0.64315   0.72337   0.00000  Uiso   1.00
C819   C     0.47291   0.35776   0.72332   0.00000  Uiso   1.00
C820   C     0.52709   0.64224   0.77668   0.00000  Uiso   1.00
C821   C     0.49956   0.50021   0.66334   0.00000  Uiso   1.00
C822   C     0.50044   0.49979   0.83666   0.00000  Uiso   1.00
C823   C     0.51746   0.46209   0.90796   0.00000  Uiso   1.00
C824   C     0.48254   0.53790   0.59205   0.00000  Uiso   1.00
C825   C     0.50088   0.49940   0.88455   0.00000  Uiso   1.00
C826   C     0.49913   0.50060   0.61545   0.00000  Uiso   1.00
C827   C     0.48449   0.53676   0.90676   0.00000  Uiso   1.00
C828   C     0.51555   0.46326   0.59324   0.00000  Uiso   1.00
C829   C     0.48406   0.53724   0.95277   0.00000  Uiso   1.00
C830   C     0.51598   0.46278   0.54724   0.00000  Uiso   1.00
C831   C     0.50031   0.49976   0.97677   0.00000  Uiso   1.00
C832   C     0.49972   0.50026   0.52323   0.00000  Uiso   1.00
C833   C     0.51716   0.46184   0.95434   0.00000  Uiso   1.00
C834   C     0.48285   0.53816   0.54567   0.00000  Uiso   1.00
C835   C     0.46746   0.57462   0.97496   0.00000  Uiso   1.00
C836   C     0.53258   0.42540   0.52504   0.00000  Uiso   1.00
H837   H     0.47157   0.56532   0.88817   0.00000  Uiso   1.00
H838   H     0.52848   0.43471   0.61184   0.00000  Uiso   1.00
H839   H     0.45498   0.60343   0.95649   0.00000  Uiso   1.00
H840   H     0.54506   0.39660   0.54352   0.00000  Uiso   1.00
N841   N     0.50000   0.61907   0.75000   0.00000  Uiso   1.00
N842   N     0.50000   0.38093   0.75000   0.00000  Uiso   1.00
O843   O     0.43892   0.53821   0.74999   0.00000  Uiso   1.00
O844   O     0.56108   0.46179   0.75000   0.00000  Uiso   1.00
O845   O     0.56108   0.53821   0.75000   0.00000  Uiso   1.00
O846   O     0.43892   0.46179   0.74999   0.00000  Uiso   1.00
O847   O     0.49999   0.53823   0.68392   0.00000  Uiso   1.00
O848   O     0.50001   0.46177   0.81607   0.00000  Uiso   1.00
O849   O     0.50001   0.53823   0.81607   0.00000  Uiso   1.00
O850   O     0.49999   0.46177   0.68392   0.00000  Uiso   1.00
Zn851  Zn    0.50000   0.55104   0.75000   0.00000  Uiso   1.00
Zn852  Zn    0.50000   0.44896   0.75000   0.00000  Uiso   1.00
F853   F     0.53457   0.42675   0.88552   0.00000  Uiso   1.00
F854   F     0.46538   0.57321   0.61448   0.00000  Uiso   1.00
F855   F     0.45049   0.61222   0.54154   0.00000  Uiso   1.00
F856   F     0.54952   0.38778   0.95846   0.00000  Uiso   1.00
O857   O     0.37450   0.46129   0.67713   0.00000  Uiso   1.00
H858   H     0.40303   0.47380   0.67427   0.00000  Uiso   1.00
O859   O     0.62550   0.53871   0.82287   0.00000  Uiso   1.00
H860   H     0.59698   0.52620   0.82574   0.00000  Uiso   1.00
O861   O     0.62039   0.45904   0.68198   0.00000  Uiso   1.00
H862   H     0.63870   0.44522   0.65924   0.00000  Uiso   1.00
O863   O     0.37961   0.54096   0.81802   0.00000  Uiso   1.00
H864   H     0.36130   0.55481   0.84073   0.00000  Uiso   1.00
F865   F     0.55444   0.37906   0.80319   0.00000  Uiso   1.00
F866   F     0.44556   0.62094   0.69681   0.00000  Uiso   1.00
F867   F     0.44581   0.38086   0.69649   0.00000  Uiso   1.00
F868   F     0.55419   0.61914   0.80351   0.00000  Uiso   1.00
C869   C     0.75346   0.50021   0.74956   0.00000  Uiso   1.00
C870   C     0.91320   0.49979   0.75044   0.00000  Uiso   1.00
C871   C     0.80010   0.57524   0.52117   0.00000  Uiso   1.00
C872   C     0.86658   0.42476   0.97883   0.00000  Uiso   1.00
C873   C     0.68775   0.47988   0.71356   0.00000  Uiso   1.00
C874   C     0.97891   0.52012   0.78644   0.00000  Uiso   1.00
C875   C     0.97763   0.47850   0.71535   0.00000  Uiso   1.00
C876   C     0.68903   0.52150   0.78465   0.00000  Uiso   1.00
C877   C     0.95736   0.49910   0.75123   0.00000  Uiso   1.00
C878   C     0.70931   0.50090   0.74877   0.00000  Uiso   1.00
C879   C     0.86046   0.35685   0.77663   0.00000  Uiso   1.00
C880   C     0.80620   0.64315   0.72337   0.00000  Uiso   1.00
C881   C     0.80624   0.35776   0.72332   0.00000  Uiso   1.00
C882   C     0.86043   0.64224   0.77668   0.00000  Uiso   1.00
C883   C     0.83289   0.50021   0.66334   0.00000  Uiso   1.00
C884   C     0.83377   0.49979   0.83666   0.00000  Uiso   1.00
C885   C     0.85079   0.46209   0.90796   0.00000  Uiso   1.00
C886   C     0.81587   0.53790   0.59205   0.00000  Uiso   1.00
C887   C     0.83421   0.49940   0.88455   0.00000  Uiso   1.00
C888   C     0.83246   0.50060   0.61545   0.00000  Uiso   1.00
C889   C     0.81782   0.53676   0.90676   0.00000  Uiso   1.00
C890   C     0.84888   0.46326   0.59324   0.00000  Uiso   1.00
C891   C     0.81739   0.53724   0.95277   0.00000  Uiso   1.00
C892   C     0.84931   0.46278   0.54724   0.00000  Uiso   1.00
C893   C     0.83364   0.49976   0.97677   0.00000  Uiso   1.00
C894   C     0.83305   0.50026   0.52323   0.00000  Uiso   1.00
C895   C     0.85049   0.46184   0.95434   0.00000  Uiso   1.00
C896   C     0.81619   0.53816   0.54567   0.00000  Uiso   1.00
C897   C     0.80079   0.57462   0.97496   0.00000  Uiso   1.00
C898   C     0.86591   0.42540   0.52504   0.00000  Uiso   1.00
H899   H     0.80490   0.56532   0.88817   0.00000  Uiso   1.00
H900   H     0.86182   0.43471   0.61184   0.00000  Uiso   1.00
H901   H     0.78832   0.60343   0.95649   0.00000  Uiso   1.00
H902   H     0.87840   0.39660   0.54352   0.00000  Uiso   1.00
N903   N     0.83333   0.61907   0.75000   0.00000  Uiso   1.00
N904   N     0.83333   0.38093   0.75000   0.00000  Uiso   1.00
O905   O     0.77226   0.53821   0.74999   0.00000  Uiso   1.00
O906   O     0.89441   0.46179   0.75000   0.00000  Uiso   1.00
O907   O     0.89441   0.53821   0.75000   0.00000  Uiso   1.00
O908   O     0.77226   0.46179   0.74999   0.00000  Uiso   1.00
O909   O     0.83333   0.53823   0.68392   0.00000  Uiso   1.00
O910   O     0.83334   0.46177   0.81607   0.00000  Uiso   1.00
O911   O     0.83334   0.53823   0.81607   0.00000  Uiso   1.00
O912   O     0.83333   0.46177   0.68392   0.00000  Uiso   1.00
Zn913  Zn    0.83333   0.55104   0.75000   0.00000  Uiso   1.00
Zn914  Zn    0.83333   0.44896   0.75000   0.00000  Uiso   1.00
F915   F     0.86790   0.42675   0.88552   0.00000  Uiso   1.00
F916   F     0.79872   0.57321   0.61448   0.00000  Uiso   1.00
F917   F     0.78382   0.61222   0.54154   0.00000  Uiso   1.00
F918   F     0.88286   0.38778   0.95846   0.00000  Uiso   1.00
O919   O     0.70784   0.46129   0.67713   0.00000  Uiso   1.00
H920   H     0.73636   0.47380   0.67427   0.00000  Uiso   1.00
O921   O     0.95883   0.53871   0.82287   0.00000  Uiso   1.00
H922   H     0.93031   0.52620   0.82574   0.00000  Uiso   1.00
O923   O     0.95373   0.45904   0.68198   0.00000  Uiso   1.00
H924   H     0.97203   0.44522   0.65924   0.00000  Uiso   1.00
O925   O     0.71294   0.54096   0.81802   0.00000  Uiso   1.00
H926   H     0.69463   0.55481   0.84073   0.00000  Uiso   1.00
F927   F     0.88777   0.37906   0.80319   0.00000  Uiso   1.00
F928   F     0.77889   0.62094   0.69681   0.00000  Uiso   1.00
F929   F     0.77915   0.38086   0.69649   0.00000  Uiso   1.00
F930   F     0.88752   0.61914   0.80351   0.00000  Uiso   1.00
C931   C     0.08680   0.83355   0.74956   0.00000  Uiso   1.00
C932   C     0.24654   0.83312   0.75044   0.00000  Uiso   1.00
C933   C     0.13344   0.90858   0.52117   0.00000  Uiso   1.00
C934   C     0.19992   0.75810   0.97883   0.00000  Uiso   1.00
C935   C     0.02109   0.81321   0.71356   0.00000  Uiso   1.00
C936   C     0.31225   0.85346   0.78644   0.00000  Uiso   1.00
C937   C     0.31097   0.81183   0.71535   0.00000  Uiso   1.00
C938   C     0.02236   0.85484   0.78465   0.00000  Uiso   1.00
C939   C     0.29069   0.83243   0.75123   0.00000  Uiso   1.00
C940   C     0.04264   0.83423   0.74877   0.00000  Uiso   1.00
C941   C     0.19380   0.69019   0.77663   0.00000  Uiso   1.00
C942   C     0.13954   0.97648   0.72337   0.00000  Uiso   1.00
C943   C     0.13957   0.69109   0.72332   0.00000  Uiso   1.00
C944   C     0.19376   0.97558   0.77668   0.00000  Uiso   1.00
C945   C     0.16623   0.83354   0.66334   0.00000  Uiso   1.00
C946   C     0.16711   0.83313   0.83666   0.00000  Uiso   1.00
C947   C     0.18412   0.79542   0.90796   0.00000  Uiso   1.00
C948   C     0.14920   0.87124   0.59205   0.00000  Uiso   1.00
C949   C     0.16755   0.83274   0.88455   0.00000  Uiso   1.00
C950   C     0.16580   0.83393   0.61545   0.00000  Uiso   1.00
C951   C     0.15116   0.87009   0.90676   0.00000  Uiso   1.00
C952   C     0.18221   0.79659   0.59324   0.00000  Uiso   1.00
C953   C     0.15073   0.87057   0.95277   0.00000  Uiso   1.00
C954   C     0.18264   0.79612   0.54724   0.00000  Uiso   1.00
C955   C     0.16698   0.83309   0.97677   0.00000  Uiso   1.00
C956   C     0.16638   0.83359   0.52323   0.00000  Uiso   1.00
C957   C     0.18383   0.79518   0.95434   0.00000  Uiso   1.00
C958   C     0.14952   0.87149   0.54567   0.00000  Uiso   1.00
C959   C     0.13413   0.90795   0.97496   0.00000  Uiso   1.00
C960   C     0.19925   0.75874   0.52504   0.00000  Uiso   1.00
H961   H     0.13824   0.89865   0.88817   0.00000  Uiso   1.00
H962   H     0.19515   0.76805   0.61184   0.00000  Uiso   1.00
H963   H     0.12165   0.93676   0.95649   0.00000  Uiso   1.00
H964   H     0.21173   0.72993   0.54352   0.00000  Uiso   1.00
N965   N     0.16667   0.95240   0.75000   0.00000  Uiso   1.00
N966   N     0.16667   0.71427   0.75000   0.00000  Uiso   1.00
O967   O     0.10559   0.87154   0.74999   0.00000  Uiso   1.00
O968   O     0.22774   0.79513   0.75000   0.00000  Uiso   1.00
O969   O     0.22774   0.87154   0.75000   0.00000  Uiso   1.00
O970   O     0.10559   0.79513   0.74999   0.00000  Uiso   1.00
O971   O     0.16666   0.87156   0.68392   0.00000  Uiso   1.00
O972   O     0.16667   0.79511   0.81607   0.00000  Uiso   1.00
O973   O     0.16667   0.87156   0.81607   0.00000  Uiso   1.00
O974   O     0.16666   0.79511   0.68392   0.00000  Uiso   1.00
Zn975  Zn    0.16667   0.88437   0.75000   0.00000  Uiso   1.00
Zn976  Zn    0.16667   0.78229   0.75000   0.00000  Uiso   1.00
F977   F     0.20123   0.76008   0.88552   0.00000  Uiso   1.00
F978   F     0.13205   0.90655   0.61448   0.00000  Uiso   1.00
F979   F     0.11715   0.94555   0.54154   0.00000  Uiso   1.00
F980   F     0.21619   0.72112   0.95846   0.00000  Uiso   1.00
O981   O     0.04117   0.79462   0.67713   0.00000  Uiso   1.00
H982   H     0.06969   0.80713   0.67427   0.00000  Uiso   1.00
O983   O     0.29216   0.87204   0.82287   0.00000  Uiso   1.00
H984   H     0.26364   0.85953   0.82574   0.00000  Uiso   1.00
O985   O     0.28706   0.79238   0.68198   0.00000  Uiso   1.00
H986   H     0.30537   0.77856   0.65924   0.00000  Uiso   1.00
O987   O     0.04627   0.87430   0.81802   0.00000  Uiso   1.00
H988   H     0.02796   0.88814   0.84073   0.00000  Uiso   1.00
F989   F     0.22111   0.71239   0.80319   0.00000  Uiso   1.00
F990   F     0.11223   0.95427   0.69681   0.00000  Uiso   1.00
F991   F     0.11248   0.71420   0.69649   0.00000  Uiso   1.00
F992   F     0.22085   0.95247   0.80351   0.00000  Uiso   1.00
C993   C     0.42013   0.83355   0.74956   0.00000  Uiso   1.00
C994   C     0.57987   0.83312   0.75044   0.00000  Uiso   1.00
C995   C     0.46677   0.90858   0.52117   0.00000  Uiso   1.00
C996   C     0.53325   0.75810   0.97883   0.00000  Uiso   1.00
C997   C     0.35442   0.81321   0.71356   0.00000  Uiso   1.00
C998   C     0.64558   0.85346   0.78644   0.00000  Uiso   1.00
C999   C     0.64430   0.81183   0.71535   0.00000  Uiso   1.00
C1000  C     0.35570   0.85484   0.78465   0.00000  Uiso   1.00
C1001  C     0.62403   0.83243   0.75123   0.00000  Uiso   1.00
C1002  C     0.37597   0.83423   0.74877   0.00000  Uiso   1.00
C1003  C     0.52713   0.69019   0.77663   0.00000  Uiso   1.00
C1004  C     0.47287   0.97648   0.72337   0.00000  Uiso   1.00
C1005  C     0.47291   0.69109   0.72332   0.00000  Uiso   1.00
C1006  C     0.52709   0.97558   0.77668   0.00000  Uiso   1.00
C1007  C     0.49956   0.83354   0.66334   0.00000  Uiso   1.00
C1008  C     0.50044   0.83313   0.83666   0.00000  Uiso   1.00
C1009  C     0.51746   0.79542   0.90796   0.00000  Uiso   1.00
C1010  C     0.48254   0.87124   0.59205   0.00000  Uiso   1.00
C1011  C     0.50088   0.83274   0.88455   0.00000  Uiso   1.00
C1012  C     0.49913   0.83393   0.61545   0.00000  Uiso   1.00
C1013  C     0.48449   0.87009   0.90676   0.00000  Uiso   1.00
C1014  C     0.51555   0.79659   0.59324   0.00000  Uiso   1.00
C1015  C     0.48406   0.87057   0.95277   0.00000  Uiso   1.00
C1016  C     0.51598   0.79612   0.54724   0.00000  Uiso   1.00
C1017  C     0.50031   0.83309   0.97677   0.00000  Uiso   1.00
C1018  C     0.49972   0.83359   0.52323   0.00000  Uiso   1.00
C1019  C     0.51716   0.79518   0.95434   0.00000  Uiso   1.00
C1020  C     0.48285   0.87149   0.54567   0.00000  Uiso   1.00
C1021  C     0.46746   0.90795   0.97496   0.00000  Uiso   1.00
C1022  C     0.53258   0.75874   0.52504   0.00000  Uiso   1.00
H1023  H     0.47157   0.89865   0.88817   0.00000  Uiso   1.00
H1024  H     0.52848   0.76805   0.61184   0.00000  Uiso   1.00
H1025  H     0.45498   0.93676   0.95649   0.00000  Uiso   1.00
H1026  H     0.54506   0.72993   0.54352   0.00000  Uiso   1.00
N1027  N     0.50000   0.95240   0.75000   0.00000  Uiso   1.00
N1028  N     0.50000   0.71427   0.75000   0.00000  Uiso   1.00
O1029  O     0.43892   0.87154   0.74999   0.00000  Uiso   1.00
O1030  O     0.56108   0.79513   0.75000   0.00000  Uiso   1.00
O1031  O     0.56108   0.87154   0.75000   0.00000  Uiso   1.00
O1032  O     0.43892   0.79513   0.74999   0.00000  Uiso   1.00
O1033  O     0.49999   0.87156   0.68392   0.00000  Uiso   1.00
O1034  O     0.50001   0.79511   0.81607   0.00000  Uiso   1.00
O1035  O     0.50001   0.87156   0.81607   0.00000  Uiso   1.00
O1036  O     0.49999   0.79511   0.68392   0.00000  Uiso   1.00
Zn1037 Zn    0.50000   0.88437   0.75000   0.00000  Uiso   1.00
Zn1038 Zn    0.50000   0.78229   0.75000   0.00000  Uiso   1.00
F1039  F     0.53457   0.76008   0.88552   0.00000  Uiso   1.00
F1040  F     0.46538   0.90655   0.61448   0.00000  Uiso   1.00
F1041  F     0.45049   0.94555   0.54154   0.00000  Uiso   1.00
F1042  F     0.54952   0.72112   0.95846   0.00000  Uiso   1.00
O1043  O     0.37450   0.79462   0.67713   0.00000  Uiso   1.00
H1044  H     0.40303   0.80713   0.67427   0.00000  Uiso   1.00
O1045  O     0.62550   0.87204   0.82287   0.00000  Uiso   1.00
H1046  H     0.59698   0.85953   0.82574   0.00000  Uiso   1.00
O1047  O     0.62039   0.79238   0.68198   0.00000  Uiso   1.00
H1048  H     0.63870   0.77856   0.65924   0.00000  Uiso   1.00
O1049  O     0.37961   0.87430   0.81802   0.00000  Uiso   1.00
H1050  H     0.36130   0.88814   0.84073   0.00000  Uiso   1.00
F1051  F     0.55444   0.71239   0.80319   0.00000  Uiso   1.00
F1052  F     0.44556   0.95427   0.69681   0.00000  Uiso   1.00
F1053  F     0.44581   0.71420   0.69649   0.00000  Uiso   1.00
F1054  F     0.55419   0.95247   0.80351   0.00000  Uiso   1.00
C1055  C     0.75346   0.83355   0.74956   0.00000  Uiso   1.00
C1056  C     0.91320   0.83312   0.75044   0.00000  Uiso   1.00
C1057  C     0.80010   0.90858   0.52117   0.00000  Uiso   1.00
C1058  C     0.86658   0.75810   0.97883   0.00000  Uiso   1.00
C1059  C     0.68775   0.81321   0.71356   0.00000  Uiso   1.00
C1060  C     0.97891   0.85346   0.78644   0.00000  Uiso   1.00
C1061  C     0.97763   0.81183   0.71535   0.00000  Uiso   1.00
C1062  C     0.68903   0.85484   0.78465   0.00000  Uiso   1.00
C1063  C     0.95736   0.83243   0.75123   0.00000  Uiso   1.00
C1064  C     0.70931   0.83423   0.74877   0.00000  Uiso   1.00
C1065  C     0.86046   0.69019   0.77663   0.00000  Uiso   1.00
C1066  C     0.80620   0.97648   0.72337   0.00000  Uiso   1.00
C1067  C     0.80624   0.69109   0.72332   0.00000  Uiso   1.00
C1068  C     0.86043   0.97558   0.77668   0.00000  Uiso   1.00
C1069  C     0.83289   0.83354   0.66334   0.00000  Uiso   1.00
C1070  C     0.83377   0.83313   0.83666   0.00000  Uiso   1.00
C1071  C     0.85079   0.79542   0.90796   0.00000  Uiso   1.00
C1072  C     0.81587   0.87124   0.59205   0.00000  Uiso   1.00
C1073  C     0.83421   0.83274   0.88455   0.00000  Uiso   1.00
C1074  C     0.83246   0.83393   0.61545   0.00000  Uiso   1.00
C1075  C     0.81782   0.87009   0.90676   0.00000  Uiso   1.00
C1076  C     0.84888   0.79659   0.59324   0.00000  Uiso   1.00
C1077  C     0.81739   0.87057   0.95277   0.00000  Uiso   1.00
C1078  C     0.84931   0.79612   0.54724   0.00000  Uiso   1.00
C1079  C     0.83364   0.83309   0.97677   0.00000  Uiso   1.00
C1080  C     0.83305   0.83359   0.52323   0.00000  Uiso   1.00
C1081  C     0.85049   0.79518   0.95434   0.00000  Uiso   1.00
C1082  C     0.81619   0.87149   0.54567   0.00000  Uiso   1.00
C1083  C     0.80079   0.90795   0.97496   0.00000  Uiso   1.00
C1084  C     0.86591   0.75874   0.52504   0.00000  Uiso   1.00
H1085  H     0.80490   0.89865   0.88817   0.00000  Uiso   1.00
H1086  H     0.86182   0.76805   0.61184   0.00000  Uiso   1.00
H1087  H     0.78832   0.93676   0.95649   0.00000  Uiso   1.00
H1088  H     0.87840   0.72993   0.54352   0.00000  Uiso   1.00
N1089  N     0.83333   0.95240   0.75000   0.00000  Uiso   1.00
N1090  N     0.83333   0.71427   0.75000   0.00000  Uiso   1.00
O1091  O     0.77226   0.87154   0.74999   0.00000  Uiso   1.00
O1092  O     0.89441   0.79513   0.75000   0.00000  Uiso   1.00
O1093  O     0.89441   0.87154   0.75000   0.00000  Uiso   1.00
O1094  O     0.77226   0.79513   0.74999   0.00000  Uiso   1.00
O1095  O     0.83333   0.87156   0.68392   0.00000  Uiso   1.00
O1096  O     0.83334   0.79511   0.81607   0.00000  Uiso   1.00
O1097  O     0.83334   0.87156   0.81607   0.00000  Uiso   1.00
O1098  O     0.83333   0.79511   0.68392   0.00000  Uiso   1.00
Zn1099 Zn    0.83333   0.88437   0.75000   0.00000  Uiso   1.00
Zn1100 Zn    0.83333   0.78229   0.75000   0.00000  Uiso   1.00
F1101  F     0.86790   0.76008   0.88552   0.00000  Uiso   1.00
F1102  F     0.79872   0.90655   0.61448   0.00000  Uiso   1.00
F1103  F     0.78382   0.94555   0.54154   0.00000  Uiso   1.00
F1104  F     0.88286   0.72112   0.95846   0.00000  Uiso   1.00
O1105  O     0.70784   0.79462   0.67713   0.00000  Uiso   1.00
H1106  H     0.73636   0.80713   0.67427   0.00000  Uiso   1.00
O1107  O     0.95883   0.87204   0.82287   0.00000  Uiso   1.00
H1108  H     0.93031   0.85953   0.82574   0.00000  Uiso   1.00
O1109  O     0.95373   0.79238   0.68198   0.00000  Uiso   1.00
H1110  H     0.97203   0.77856   0.65924   0.00000  Uiso   1.00
O1111  O     0.71294   0.87430   0.81802   0.00000  Uiso   1.00
H1112  H     0.69463   0.88814   0.84073   0.00000  Uiso   1.00
F1113  F     0.88777   0.71239   0.80319   0.00000  Uiso   1.00
F1114  F     0.77889   0.95427   0.69681   0.00000  Uiso   1.00
F1115  F     0.77915   0.71420   0.69649   0.00000  Uiso   1.00
F1116  F     0.88752   0.95247   0.80351   0.00000  Uiso   1.00
loop_
_geom_bond_atom_site_label_1
_geom_bond_atom_site_label_2
_geom_bond_distance
_geom_bond_site_symmetry_2
_ccdc_geom_bond_type
C1     O37     1.277   .     A
C1     O40     1.280   .     A
C1     C10     1.409   .     S
C2     O38     1.277   .     A
C2     C9      1.409   .     S
C2     O39     1.280   .     A
C3     F49     1.358   .     S
C3     C28     1.407   .     A
C3     C587    1.387   1_554 S
C4     C27     1.407   .     A
C4     F50     1.358   .     S
C4     C588    1.387   .     S
C5     C10     1.409   .     A
C5     O51     1.386   .     S
C5     C131    1.389   1_455 S
C6     C9      1.409   .     A
C6     O53     1.386   .     S
C6     C70     1.389   .     S
C7     O55     1.387   .     S
C7     C9      1.401   .     A
C7     C67     1.389   .     S
C8     O57     1.387   .     S
C8     C10     1.401   .     A
C8     C130    1.389   1_455 S
C11    F59     1.355   .     S
C11    N36     1.367   .     A
C11    C386    1.417   1_545 S
C12    N35     1.367   .     A
C12    F60     1.355   .     S
C12    C199    1.417   .     S
C13    F61     1.355   .     S
C13    N36     1.367   .     A
C13    C384    1.417   1_545 S
C14    N35     1.367   .     A
C14    F62     1.355   .     S
C14    C197    1.417   .     S
C15    O44     1.288   .     A
C15    C20     1.437   .     S
C15    O41     1.287   .     A
C16    O43     1.288   .     A
C16    C19     1.437   .     S
C16    O42     1.287   .     A
C17    C27     1.392   .     A
C17    C19     1.401   .     A
C17    F47     1.360   .     S
C18    C20     1.401   .     A
C18    C28     1.392   .     A
C18    F48     1.360   .     S
C19    C21     1.394   .     A
C20    C22     1.394   .     A
C21    H31     1.085   .     S
C21    C23     1.381   .     A
C22    H32     1.085   .     S
C22    C24     1.381   .     A
C23    C25     1.410   .     A
C23    C29     1.397   .     A
C24    C26     1.410   .     A
C24    C30     1.397   .     A
C25    C27     1.416   .     A
C25    C584    1.395   .     S
C26    C28     1.416   .     A
C26    C583    1.395   1_554 S
C29    H33     1.084   .     S
C29    C561    1.387   .     S
C30    H34     1.084   .     S
C30    C562    1.387   1_554 S
N35    Zn45    2.010   .     S
N36    Zn46    2.010   .     S
O37    Zn45    1.989   .     S
O38    Zn46    1.989   .     S
O39    Zn45    1.983   .     S
O40    Zn46    1.983   .     S
O41    Zn45    2.022   .     S
O42    Zn46    2.022   .     S
O43    Zn45    2.016   .     S
O44    Zn46    2.016   .     S
O51    H52     0.989   .     S
O53    H54     0.989   .     S
O55    H56     0.989   .     S
O57    H58     0.989   .     S
C63    O99     1.277   .     A
C63    O102    1.280   .     A
C63    C72     1.409   .     S
C64    O100    1.277   .     A
C64    C71     1.409   .     S
C64    O101    1.280   .     A
C65    F111    1.358   .     S
C65    C90     1.407   .     A
C65    C649    1.387   1_554 S
C66    C89     1.407   .     A
C66    F112    1.358   .     S
C66    C650    1.387   .     S
C67    C72     1.409   .     A
C67    O113    1.386   .     S
C68    C71     1.409   .     A
C68    O115    1.386   .     S
C68    C132    1.389   .     S
C69    O117    1.387   .     S
C69    C71     1.401   .     A
C69    C129    1.389   .     S
C70    O119    1.387   .     S
C70    C72     1.401   .     A
C73    F121    1.355   .     S
C73    N98     1.367   .     A
C73    C448    1.417   1_545 S
C74    N97     1.367   .     A
C74    F122    1.355   .     S
C74    C261    1.417   .     S
C75    F123    1.355   .     S
C75    N98     1.367   .     A
C75    C446    1.417   1_545 S
C76    N97     1.367   .     A
C76    F124    1.355   .     S
C76    C259    1.417   .     S
C77    O106    1.288   .     A
C77    C82     1.437   .     S
C77    O103    1.287   .     A
C78    O105    1.288   .     A
C78    C81     1.437   .     S
C78    O104    1.287   .     A
C79    C89     1.392   .     A
C79    C81     1.401   .     A
C79    F109    1.360   .     S
C80    C82     1.401   .     A
C80    C90     1.392   .     A
C80    F110    1.360   .     S
C81    C83     1.394   .     A
C82    C84     1.394   .     A
C83    H93     1.085   .     S
C83    C85     1.381   .     A
C84    H94     1.085   .     S
C84    C86     1.381   .     A
C85    C87     1.410   .     A
C85    C91     1.397   .     A
C86    C88     1.410   .     A
C86    C92     1.397   .     A
C87    C89     1.416   .     A
C87    C646    1.395   .     S
C88    C90     1.416   .     A
C88    C645    1.395   1_554 S
C91    H95     1.084   .     S
C91    C623    1.387   .     S
C92    H96     1.084   .     S
C92    C624    1.387   1_554 S
N97    Zn107   2.010   .     S
N98    Zn108   2.010   .     S
O99    Zn107   1.989   .     S
O100   Zn108   1.989   .     S
O101   Zn107   1.983   .     S
O102   Zn108   1.983   .     S
O103   Zn107   2.022   .     S
O104   Zn108   2.022   .     S
O105   Zn107   2.016   .     S
O106   Zn108   2.016   .     S
O113   H114    0.989   .     S
O115   H116    0.989   .     S
O117   H118    0.989   .     S
O119   H120    0.989   .     S
C125   O161    1.277   .     A
C125   O164    1.280   .     A
C125   C134    1.409   .     S
C126   O162    1.277   .     A
C126   C133    1.409   .     S
C126   O163    1.280   .     A
C127   F173    1.358   .     S
C127   C152    1.407   .     A
C127   C711    1.387   1_554 S
C128   C151    1.407   .     A
C128   F174    1.358   .     S
C128   C712    1.387   .     S
C129   C134    1.409   .     A
C129   O175    1.386   .     S
C130   C133    1.409   .     A
C130   O177    1.386   .     S
C130   C8      1.389   1_655 S
C131   O179    1.387   .     S
C131   C133    1.401   .     A
C131   C5      1.389   1_655 S
C132   O181    1.387   .     S
C132   C134    1.401   .     A
C135   F183    1.355   .     S
C135   N160    1.367   .     A
C135   C510    1.417   1_545 S
C136   N159    1.367   .     A
C136   F184    1.355   .     S
C136   C323    1.417   .     S
C137   F185    1.355   .     S
C137   N160    1.367   .     A
C137   C508    1.417   1_545 S
C138   N159    1.367   .     A
C138   F186    1.355   .     S
C138   C321    1.417   .     S
C139   O168    1.288   .     A
C139   C144    1.437   .     S
C139   O165    1.287   .     A
C140   O167    1.288   .     A
C140   C143    1.437   .     S
C140   O166    1.287   .     A
C141   C151    1.392   .     A
C141   C143    1.401   .     A
C141   F171    1.360   .     S
C142   C144    1.401   .     A
C142   C152    1.392   .     A
C142   F172    1.360   .     S
C143   C145    1.394   .     A
C144   C146    1.394   .     A
C145   H155    1.085   .     S
C145   C147    1.381   .     A
C146   H156    1.085   .     S
C146   C148    1.381   .     A
C147   C149    1.410   .     A
C147   C153    1.397   .     A
C148   C150    1.410   .     A
C148   C154    1.397   .     A
C149   C151    1.416   .     A
C149   C708    1.395   .     S
C150   C152    1.416   .     A
C150   C707    1.395   1_554 S
C153   H157    1.084   .     S
C153   C685    1.387   .     S
C154   H158    1.084   .     S
C154   C686    1.387   1_554 S
N159   Zn169   2.010   .     S
N160   Zn170   2.010   .     S
O161   Zn169   1.989   .     S
O162   Zn170   1.989   .     S
O163   Zn169   1.983   .     S
O164   Zn170   1.983   .     S
O165   Zn169   2.022   .     S
O166   Zn170   2.022   .     S
O167   Zn169   2.016   .     S
O168   Zn170   2.016   .     S
O175   H176    0.989   .     S
O177   H178    0.989   .     S
O179   H180    0.989   .     S
O181   H182    0.989   .     S
C187   O223    1.277   .     A
C187   O226    1.280   .     A
C187   C196    1.409   .     S
C188   O224    1.277   .     A
C188   C195    1.409   .     S
C188   O225    1.280   .     A
C189   F235    1.358   .     S
C189   C214    1.407   .     A
C189   C773    1.387   1_554 S
C190   C213    1.407   .     A
C190   F236    1.358   .     S
C190   C774    1.387   .     S
C191   C196    1.409   .     A
C191   O237    1.386   .     S
C191   C317    1.389   1_455 S
C192   C195    1.409   .     A
C192   O239    1.386   .     S
C192   C256    1.389   .     S
C193   O241    1.387   .     S
C193   C195    1.401   .     A
C193   C253    1.389   .     S
C194   O243    1.387   .     S
C194   C196    1.401   .     A
C194   C316    1.389   1_455 S
C197   F245    1.355   .     S
C197   N222    1.367   .     A
C198   N221    1.367   .     A
C198   F246    1.355   .     S
C198   C385    1.417   .     S
C199   F247    1.355   .     S
C199   N222    1.367   .     A
C200   N221    1.367   .     A
C200   F248    1.355   .     S
C200   C383    1.417   .     S
C201   O230    1.288   .     A
C201   C206    1.437   .     S
C201   O227    1.287   .     A
C202   O229    1.288   .     A
C202   C205    1.437   .     S
C202   O228    1.287   .     A
C203   C213    1.392   .     A
C203   C205    1.401   .     A
C203   F233    1.360   .     S
C204   C206    1.401   .     A
C204   C214    1.392   .     A
C204   F234    1.360   .     S
C205   C207    1.394   .     A
C206   C208    1.394   .     A
C207   H217    1.085   .     S
C207   C209    1.381   .     A
C208   H218    1.085   .     S
C208   C210    1.381   .     A
C209   C211    1.410   .     A
C209   C215    1.397   .     A
C210   C212    1.410   .     A
C210   C216    1.397   .     A
C211   C213    1.416   .     A
C211   C770    1.395   .     S
C212   C214    1.416   .     A
C212   C769    1.395   1_554 S
C215   H219    1.084   .     S
C215   C747    1.387   .     S
C216   H220    1.084   .     S
C216   C748    1.387   1_554 S
N221   Zn231   2.010   .     S
N222   Zn232   2.010   .     S
O223   Zn231   1.989   .     S
O224   Zn232   1.989   .     S
O225   Zn231   1.983   .     S
O226   Zn232   1.983   .     S
O227   Zn231   2.022   .     S
O228   Zn232   2.022   .     S
O229   Zn231   2.016   .     S
O230   Zn232   2.016   .     S
O237   H238    0.989   .     S
O239   H240    0.989   .     S
O241   H242    0.989   .     S
O243   H244    0.989   .     S
C249   O285    1.277   .     A
C249   O288    1.280   .     A
C249   C258    1.409   .     S
C250   O286    1.277   .     A
C250   C257    1.409   .     S
C250   O287    1.280   .     A
C251   F297    1.358   .     S
C251   C276    1.407   .     A
C251   C835    1.387   1_554 S
C252   C275    1.407   .     A
C252   F298    1.358   .     S
C252   C836    1.387   .     S
C253   C258    1.409   .     A
C253   O299    1.386   .     S
C254   C257    1.409   .     A
C254   O301    1.386   .     S
C254   C318    1.389   .     S
C255   O303    1.387   .     S
C255   C257    1.401   .     A
C255   C315    1.389   .     S
C256   O305    1.387   .     S
C256   C258    1.401   .     A
C259   F307    1.355   .     S
C259   N284    1.367   .     A
C260   N283    1.367   .     A
C260   F308    1.355   .     S
C260   C447    1.417   .     S
C261   F309    1.355   .     S
C261   N284    1.367   .     A
C262   N283    1.367   .     A
C262   F310    1.355   .     S
C262   C445    1.417   .     S
C263   O292    1.288   .     A
C263   C268    1.437   .     S
C263   O289    1.287   .     A
C264   O291    1.288   .     A
C264   C267    1.437   .     S
C264   O290    1.287   .     A
C265   C275    1.392   .     A
C265   C267    1.401   .     A
C265   F295    1.360   .     S
C266   C268    1.401   .     A
C266   C276    1.392   .     A
C266   F296    1.360   .     S
C267   C269    1.394   .     A
C268   C270    1.394   .     A
C269   H279    1.085   .     S
C269   C271    1.381   .     A
C270   H280    1.085   .     S
C270   C272    1.381   .     A
C271   C273    1.410   .     A
C271   C277    1.397   .     A
C272   C274    1.410   .     A
C272   C278    1.397   .     A
C273   C275    1.416   .     A
C273   C832    1.395   .     S
C274   C276    1.416   .     A
C274   C831    1.395   1_554 S
C277   H281    1.084   .     S
C277   C809    1.387   .     S
C278   H282    1.084   .     S
C278   C810    1.387   1_554 S
N283   Zn293   2.010   .     S
N284   Zn294   2.010   .     S
O285   Zn293   1.989   .     S
O286   Zn294   1.989   .     S
O287   Zn293   1.983   .     S
O288   Zn294   1.983   .     S
O289   Zn293   2.022   .     S
O290   Zn294   2.022   .     S
O291   Zn293   2.016   .     S
O292   Zn294   2.016   .     S
O299   H300    0.989   .     S
O301   H302    0.989   .     S
O303   H304    0.989   .     S
O305   H306    0.989   .     S
C311   O347    1.277   .     A
C311   O350    1.280   .     A
C311   C320    1.409   .     S
C312   O348    1.277   .     A
C312   C319    1.409   .     S
C312   O349    1.280   .     A
C313   F359    1.358   .     S
C313   C338    1.407   .     A
C313   C897    1.387   1_554 S
C314   C337    1.407   .     A
C314   F360    1.358   .     S
C314   C898    1.387   .     S
C315   C320    1.409   .     A
C315   O361    1.386   .     S
C316   C319    1.409   .     A
C316   O363    1.386   .     S
C316   C194    1.389   1_655 S
C317   O365    1.387   .     S
C317   C319    1.401   .     A
C317   C191    1.389   1_655 S
C318   O367    1.387   .     S
C318   C320    1.401   .     A
C321   F369    1.355   .     S
C321   N346    1.367   .     A
C322   N345    1.367   .     A
C322   F370    1.355   .     S
C322   C509    1.417   .     S
C323   F371    1.355   .     S
C323   N346    1.367   .     A
C324   N345    1.367   .     A
C324   F372    1.355   .     S
C324   C507    1.417   .     S
C325   O354    1.288   .     A
C325   C330    1.437   .     S
C325   O351    1.287   .     A
C326   O353    1.288   .     A
C326   C329    1.437   .     S
C326   O352    1.287   .     A
C327   C337    1.392   .     A
C327   C329    1.401   .     A
C327   F357    1.360   .     S
C328   C330    1.401   .     A
C328   C338    1.392   .     A
C328   F358    1.360   .     S
C329   C331    1.394   .     A
C330   C332    1.394   .     A
C331   H341    1.085   .     S
C331   C333    1.381   .     A
C332   H342    1.085   .     S
C332   C334    1.381   .     A
C333   C335    1.410   .     A
C333   C339    1.397   .     A
C334   C336    1.410   .     A
C334   C340    1.397   .     A
C335   C337    1.416   .     A
C335   C894    1.395   .     S
C336   C338    1.416   .     A
C336   C893    1.395   1_554 S
C339   H343    1.084   .     S
C339   C871    1.387   .     S
C340   H344    1.084   .     S
C340   C872    1.387   1_554 S
N345   Zn355   2.010   .     S
N346   Zn356   2.010   .     S
O347   Zn355   1.989   .     S
O348   Zn356   1.989   .     S
O349   Zn355   1.983   .     S
O350   Zn356   1.983   .     S
O351   Zn355   2.022   .     S
O352   Zn356   2.022   .     S
O353   Zn355   2.016   .     S
O354   Zn356   2.016   .     S
O361   H362    0.989   .     S
O363   H364    0.989   .     S
O365   H366    0.989   .     S
O367   H368    0.989   .     S
C373   O409    1.277   .     A
C373   O412    1.280   .     A
C373   C382    1.409   .     S
C374   O410    1.277   .     A
C374   C381    1.409   .     S
C374   O411    1.280   .     A
C375   F421    1.358   .     S
C375   C400    1.407   .     A
C375   C959    1.387   1_554 S
C376   C399    1.407   .     A
C376   F422    1.358   .     S
C376   C960    1.387   .     S
C377   C382    1.409   .     A
C377   O423    1.386   .     S
C377   C503    1.389   1_455 S
C378   C381    1.409   .     A
C378   O425    1.386   .     S
C378   C442    1.389   .     S
C379   O427    1.387   .     S
C379   C381    1.401   .     A
C379   C439    1.389   .     S
C380   O429    1.387   .     S
C380   C382    1.401   .     A
C380   C502    1.389   1_455 S
C383   F431    1.355   .     S
C383   N408    1.367   .     A
C384   N407    1.367   .     A
C384   F432    1.355   .     S
C384   C13     1.417   1_565 S
C385   F433    1.355   .     S
C385   N408    1.367   .     A
C386   N407    1.367   .     A
C386   F434    1.355   .     S
C386   C11     1.417   1_565 S
C387   O416    1.288   .     A
C387   C392    1.437   .     S
C387   O413    1.287   .     A
C388   O415    1.288   .     A
C388   C391    1.437   .     S
C388   O414    1.287   .     A
C389   C399    1.392   .     A
C389   C391    1.401   .     A
C389   F419    1.360   .     S
C390   C392    1.401   .     A
C390   C400    1.392   .     A
C390   F420    1.360   .     S
C391   C393    1.394   .     A
C392   C394    1.394   .     A
C393   H403    1.085   .     S
C393   C395    1.381   .     A
C394   H404    1.085   .     S
C394   C396    1.381   .     A
C395   C397    1.410   .     A
C395   C401    1.397   .     A
C396   C398    1.410   .     A
C396   C402    1.397   .     A
C397   C399    1.416   .     A
C397   C956    1.395   .     S
C398   C400    1.416   .     A
C398   C955    1.395   1_554 S
C401   H405    1.084   .     S
C401   C933    1.387   .     S
C402   H406    1.084   .     S
C402   C934    1.387   1_554 S
N407   Zn417   2.010   .     S
N408   Zn418   2.010   .     S
O409   Zn417   1.989   .     S
O410   Zn418   1.989   .     S
O411   Zn417   1.983   .     S
O412   Zn418   1.983   .     S
O413   Zn417   2.022   .     S
O414   Zn418   2.022   .     S
O415   Zn417   2.016   .     S
O416   Zn418   2.016   .     S
O423   H424    0.989   .     S
O425   H426    0.989   .     S
O427   H428    0.989   .     S
O429   H430    0.989   .     S
C435   O471    1.277   .     A
C435   O474    1.280   .     A
C435   C444    1.409   .     S
C436   O472    1.277   .     A
C436   C443    1.409   .     S
C436   O473    1.280   .     A
C437   F483    1.358   .     S
C437   C462    1.407   .     A
C437   C1021   1.387   1_554 S
C438   C461    1.407   .     A
C438   F484    1.358   .     S
C438   C1022   1.387   .     S
C439   C444    1.409   .     A
C439   O485    1.386   .     S
C440   C443    1.409   .     A
C440   O487    1.386   .     S
C440   C504    1.389   .     S
C441   O489    1.387   .     S
C441   C443    1.401   .     A
C441   C501    1.389   .     S
C442   O491    1.387   .     S
C442   C444    1.401   .     A
C445   F493    1.355   .     S
C445   N470    1.367   .     A
C446   N469    1.367   .     A
C446   F494    1.355   .     S
C446   C75     1.417   1_565 S
C447   F495    1.355   .     S
C447   N470    1.367   .     A
C448   N469    1.367   .     A
C448   F496    1.355   .     S
C448   C73     1.417   1_565 S
C449   O478    1.288   .     A
C449   C454    1.437   .     S
C449   O475    1.287   .     A
C450   O477    1.288   .     A
C450   C453    1.437   .     S
C450   O476    1.287   .     A
C451   C461    1.392   .     A
C451   C453    1.401   .     A
C451   F481    1.360   .     S
C452   C454    1.401   .     A
C452   C462    1.392   .     A
C452   F482    1.360   .     S
C453   C455    1.394   .     A
C454   C456    1.394   .     A
C455   H465    1.085   .     S
C455   C457    1.381   .     A
C456   H466    1.085   .     S
C456   C458    1.381   .     A
C457   C459    1.410   .     A
C457   C463    1.397   .     A
C458   C460    1.410   .     A
C458   C464    1.397   .     A
C459   C461    1.416   .     A
C459   C1018   1.395   .     S
C460   C462    1.416   .     A
C460   C1017   1.395   1_554 S
C463   H467    1.084   .     S
C463   C995    1.387   .     S
C464   H468    1.084   .     S
C464   C996    1.387   1_554 S
N469   Zn479   2.010   .     S
N470   Zn480   2.010   .     S
O471   Zn479   1.989   .     S
O472   Zn480   1.989   .     S
O473   Zn479   1.983   .     S
O474   Zn480   1.983   .     S
O475   Zn479   2.022   .     S
O476   Zn480   2.022   .     S
O477   Zn479   2.016   .     S
O478   Zn480   2.016   .     S
O485   H486    0.989   .     S
O487   H488    0.989   .     S
O489   H490    0.989   .     S
O491   H492    0.989   .     S
C497   O533    1.277   .     A
C497   O536    1.280   .     A
C497   C506    1.409   .     S
C498   O534    1.277   .     A
C498   C505    1.409   .     S
C498   O535    1.280   .     A
C499   F545    1.358   .     S
C499   C524    1.407   .     A
C499   C1083   1.387   1_554 S
C500   C523    1.407   .     A
C500   F546    1.358   .     S
C500   C1084   1.387   .     S
C501   C506    1.409   .     A
C501   O547    1.386   .     S
C502   C505    1.409   .     A
C502   O549    1.386   .     S
C502   C380    1.389   1_655 S
C503   O551    1.387   .     S
C503   C505    1.401   .     A
C503   C377    1.389   1_655 S
C504   O553    1.387   .     S
C504   C506    1.401   .     A
C507   F555    1.355   .     S
C507   N532    1.367   .     A
C508   N531    1.367   .     A
C508   F556    1.355   .     S
C508   C137    1.417   1_565 S
C509   F557    1.355   .     S
C509   N532    1.367   .     A
C510   N531    1.367   .     A
C510   F558    1.355   .     S
C510   C135    1.417   1_565 S
C511   O540    1.288   .     A
C511   C516    1.437   .     S
C511   O537    1.287   .     A
C512   O539    1.288   .     A
C512   C515    1.437   .     S
C512   O538    1.287   .     A
C513   C523    1.392   .     A
C513   C515    1.401   .     A
C513   F543    1.360   .     S
C514   C516    1.401   .     A
C514   C524    1.392   .     A
C514   F544    1.360   .     S
C515   C517    1.394   .     A
C516   C518    1.394   .     A
C517   H527    1.085   .     S
C517   C519    1.381   .     A
C518   H528    1.085   .     S
C518   C520    1.381   .     A
C519   C521    1.410   .     A
C519   C525    1.397   .     A
C520   C522    1.410   .     A
C520   C526    1.397   .     A
C521   C523    1.416   .     A
C521   C1080   1.395   .     S
C522   C524    1.416   .     A
C522   C1079   1.395   1_554 S
C525   H529    1.084   .     S
C525   C1057   1.387   .     S
C526   H530    1.084   .     S
C526   C1058   1.387   1_554 S
N531   Zn541   2.010   .     S
N532   Zn542   2.010   .     S
O533   Zn541   1.989   .     S
O534   Zn542   1.989   .     S
O535   Zn541   1.983   .     S
O536   Zn542   1.983   .     S
O537   Zn541   2.022   .     S
O538   Zn542   2.022   .     S
O539   Zn541   2.016   .     S
O540   Zn542   2.016   .     S
O547   H548    0.989   .     S
O549   H550    0.989   .     S
O551   H552    0.989   .     S
O553   H554    0.989   .     S
C559   O595    1.277   .     A
C559   O598    1.280   .     A
C559   C568    1.409   .     S
C560   O596    1.277   .     A
C560   C567    1.409   .     S
C560   O597    1.280   .     A
C561   F607    1.358   .     S
C561   C586    1.407   .     A
C562   C585    1.407   .     A
C562   F608    1.358   .     S
C562   C30     1.387   1_556 S
C563   C568    1.409   .     A
C563   O609    1.386   .     S
C563   C689    1.389   1_455 S
C564   C567    1.409   .     A
C564   O611    1.386   .     S
C564   C628    1.389   .     S
C565   O613    1.387   .     S
C565   C567    1.401   .     A
C565   C625    1.389   .     S
C566   O615    1.387   .     S
C566   C568    1.401   .     A
C566   C688    1.389   1_455 S
C569   F617    1.355   .     S
C569   N594    1.367   .     A
C569   C944    1.417   1_545 S
C570   N593    1.367   .     A
C570   F618    1.355   .     S
C570   C757    1.417   .     S
C571   F619    1.355   .     S
C571   N594    1.367   .     A
C571   C942    1.417   1_545 S
C572   N593    1.367   .     A
C572   F620    1.355   .     S
C572   C755    1.417   .     S
C573   O602    1.288   .     A
C573   C578    1.437   .     S
C573   O599    1.287   .     A
C574   O601    1.288   .     A
C574   C577    1.437   .     S
C574   O600    1.287   .     A
C575   C585    1.392   .     A
C575   C577    1.401   .     A
C575   F605    1.360   .     S
C576   C578    1.401   .     A
C576   C586    1.392   .     A
C576   F606    1.360   .     S
C577   C579    1.394   .     A
C578   C580    1.394   .     A
C579   H589    1.085   .     S
C579   C581    1.381   .     A
C580   H590    1.085   .     S
C580   C582    1.381   .     A
C581   C583    1.410   .     A
C581   C587    1.397   .     A
C582   C584    1.410   .     A
C582   C588    1.397   .     A
C583   C585    1.416   .     A
C583   C26     1.395   1_556 S
C584   C586    1.416   .     A
C587   H591    1.084   .     S
C587   C3      1.387   1_556 S
C588   H592    1.084   .     S
N593   Zn603   2.010   .     S
N594   Zn604   2.010   .     S
O595   Zn603   1.989   .     S
O596   Zn604   1.989   .     S
O597   Zn603   1.983   .     S
O598   Zn604   1.983   .     S
O599   Zn603   2.022   .     S
O600   Zn604   2.022   .     S
O601   Zn603   2.016   .     S
O602   Zn604   2.016   .     S
O609   H610    0.989   .     S
O611   H612    0.989   .     S
O613   H614    0.989   .     S
O615   H616    0.989   .     S
C621   O657    1.277   .     A
C621   O660    1.280   .     A
C621   C630    1.409   .     S
C622   O658    1.277   .     A
C622   C629    1.409   .     S
C622   O659    1.280   .     A
C623   F669    1.358   .     S
C623   C648    1.407   .     A
C624   C647    1.407   .     A
C624   F670    1.358   .     S
C624   C92     1.387   1_556 S
C625   C630    1.409   .     A
C625   O671    1.386   .     S
C626   C629    1.409   .     A
C626   O673    1.386   .     S
C626   C690    1.389   .     S
C627   O675    1.387   .     S
C627   C629    1.401   .     A
C627   C687    1.389   .     S
C628   O677    1.387   .     S
C628   C630    1.401   .     A
C631   F679    1.355   .     S
C631   N656    1.367   .     A
C631   C1006   1.417   1_545 S
C632   N655    1.367   .     A
C632   F680    1.355   .     S
C632   C819    1.417   .     S
C633   F681    1.355   .     S
C633   N656    1.367   .     A
C633   C1004   1.417   1_545 S
C634   N655    1.367   .     A
C634   F682    1.355   .     S
C634   C817    1.417   .     S
C635   O664    1.288   .     A
C635   C640    1.437   .     S
C635   O661    1.287   .     A
C636   O663    1.288   .     A
C636   C639    1.437   .     S
C636   O662    1.287   .     A
C637   C647    1.392   .     A
C637   C639    1.401   .     A
C637   F667    1.360   .     S
C638   C640    1.401   .     A
C638   C648    1.392   .     A
C638   F668    1.360   .     S
C639   C641    1.394   .     A
C640   C642    1.394   .     A
C641   H651    1.085   .     S
C641   C643    1.381   .     A
C642   H652    1.085   .     S
C642   C644    1.381   .     A
C643   C645    1.410   .     A
C643   C649    1.397   .     A
C644   C646    1.410   .     A
C644   C650    1.397   .     A
C645   C647    1.416   .     A
C645   C88     1.395   1_556 S
C646   C648    1.416   .     A
C649   H653    1.084   .     S
C649   C65     1.387   1_556 S
C650   H654    1.084   .     S
N655   Zn665   2.010   .     S
N656   Zn666   2.010   .     S
O657   Zn665   1.989   .     S
O658   Zn666   1.989   .     S
O659   Zn665   1.983   .     S
O660   Zn666   1.983   .     S
O661   Zn665   2.022   .     S
O662   Zn666   2.022   .     S
O663   Zn665   2.016   .     S
O664   Zn666   2.016   .     S
O671   H672    0.989   .     S
O673   H674    0.989   .     S
O675   H676    0.989   .     S
O677   H678    0.989   .     S
C683   O719    1.277   .     A
C683   O722    1.280   .     A
C683   C692    1.409   .     S
C684   O720    1.277   .     A
C684   C691    1.409   .     S
C684   O721    1.280   .     A
C685   F731    1.358   .     S
C685   C710    1.407   .     A
C686   C709    1.407   .     A
C686   F732    1.358   .     S
C686   C154    1.387   1_556 S
C687   C692    1.409   .     A
C687   O733    1.386   .     S
C688   C691    1.409   .     A
C688   O735    1.386   .     S
C688   C566    1.389   1_655 S
C689   O737    1.387   .     S
C689   C691    1.401   .     A
C689   C563    1.389   1_655 S
C690   O739    1.387   .     S
C690   C692    1.401   .     A
C693   F741    1.355   .     S
C693   N718    1.367   .     A
C693   C1068   1.417   1_545 S
C694   N717    1.367   .     A
C694   F742    1.355   .     S
C694   C881    1.417   .     S
C695   F743    1.355   .     S
C695   N718    1.367   .     A
C695   C1066   1.417   1_545 S
C696   N717    1.367   .     A
C696   F744    1.355   .     S
C696   C879    1.417   .     S
C697   O726    1.288   .     A
C697   C702    1.437   .     S
C697   O723    1.287   .     A
C698   O725    1.288   .     A
C698   C701    1.437   .     S
C698   O724    1.287   .     A
C699   C709    1.392   .     A
C699   C701    1.401   .     A
C699   F729    1.360   .     S
C700   C702    1.401   .     A
C700   C710    1.392   .     A
C700   F730    1.360   .     S
C701   C703    1.394   .     A
C702   C704    1.394   .     A
C703   H713    1.085   .     S
C703   C705    1.381   .     A
C704   H714    1.085   .     S
C704   C706    1.381   .     A
C705   C707    1.410   .     A
C705   C711    1.397   .     A
C706   C708    1.410   .     A
C706   C712    1.397   .     A
C707   C709    1.416   .     A
C707   C150    1.395   1_556 S
C708   C710    1.416   .     A
C711   H715    1.084   .     S
C711   C127    1.387   1_556 S
C712   H716    1.084   .     S
N717   Zn727   2.010   .     S
N718   Zn728   2.010   .     S
O719   Zn727   1.989   .     S
O720   Zn728   1.989   .     S
O721   Zn727   1.983   .     S
O722   Zn728   1.983   .     S
O723   Zn727   2.022   .     S
O724   Zn728   2.022   .     S
O725   Zn727   2.016   .     S
O726   Zn728   2.016   .     S
O733   H734    0.989   .     S
O735   H736    0.989   .     S
O737   H738    0.989   .     S
O739   H740    0.989   .     S
C745   O781    1.277   .     A
C745   O784    1.280   .     A
C745   C754    1.409   .     S
C746   O782    1.277   .     A
C746   C753    1.409   .     S
C746   O783    1.280   .     A
C747   F793    1.358   .     S
C747   C772    1.407   .     A
C748   C771    1.407   .     A
C748   F794    1.358   .     S
C748   C216    1.387   1_556 S
C749   C754    1.409   .     A
C749   O795    1.386   .     S
C749   C875    1.389   1_455 S
C750   C753    1.409   .     A
C750   O797    1.386   .     S
C750   C814    1.389   .     S
C751   O799    1.387   .     S
C751   C753    1.401   .     A
C751   C811    1.389   .     S
C752   O801    1.387   .     S
C752   C754    1.401   .     A
C752   C874    1.389   1_455 S
C755   F803    1.355   .     S
C755   N780    1.367   .     A
C756   N779    1.367   .     A
C756   F804    1.355   .     S
C756   C943    1.417   .     S
C757   F805    1.355   .     S
C757   N780    1.367   .     A
C758   N779    1.367   .     A
C758   F806    1.355   .     S
C758   C941    1.417   .     S
C759   O788    1.288   .     A
C759   C764    1.437   .     S
C759   O785    1.287   .     A
C760   O787    1.288   .     A
C760   C763    1.437   .     S
C760   O786    1.287   .     A
C761   C771    1.392   .     A
C761   C763    1.401   .     A
C761   F791    1.360   .     S
C762   C764    1.401   .     A
C762   C772    1.392   .     A
C762   F792    1.360   .     S
C763   C765    1.394   .     A
C764   C766    1.394   .     A
C765   H775    1.085   .     S
C765   C767    1.381   .     A
C766   H776    1.085   .     S
C766   C768    1.381   .     A
C767   C769    1.410   .     A
C767   C773    1.397   .     A
C768   C770    1.410   .     A
C768   C774    1.397   .     A
C769   C771    1.416   .     A
C769   C212    1.395   1_556 S
C770   C772    1.416   .     A
C773   H777    1.084   .     S
C773   C189    1.387   1_556 S
C774   H778    1.084   .     S
N779   Zn789   2.010   .     S
N780   Zn790   2.010   .     S
O781   Zn789   1.989   .     S
O782   Zn790   1.989   .     S
O783   Zn789   1.983   .     S
O784   Zn790   1.983   .     S
O785   Zn789   2.022   .     S
O786   Zn790   2.022   .     S
O787   Zn789   2.016   .     S
O788   Zn790   2.016   .     S
O795   H796    0.989   .     S
O797   H798    0.989   .     S
O799   H800    0.989   .     S
O801   H802    0.989   .     S
C807   O843    1.277   .     A
C807   O846    1.280   .     A
C807   C816    1.409   .     S
C808   O844    1.277   .     A
C808   C815    1.409   .     S
C808   O845    1.280   .     A
C809   F855    1.358   .     S
C809   C834    1.407   .     A
C810   C833    1.407   .     A
C810   F856    1.358   .     S
C810   C278    1.387   1_556 S
C811   C816    1.409   .     A
C811   O857    1.386   .     S
C812   C815    1.409   .     A
C812   O859    1.386   .     S
C812   C876    1.389   .     S
C813   O861    1.387   .     S
C813   C815    1.401   .     A
C813   C873    1.389   .     S
C814   O863    1.387   .     S
C814   C816    1.401   .     A
C817   F865    1.355   .     S
C817   N842    1.367   .     A
C818   N841    1.367   .     A
C818   F866    1.355   .     S
C818   C1005   1.417   .     S
C819   F867    1.355   .     S
C819   N842    1.367   .     A
C820   N841    1.367   .     A
C820   F868    1.355   .     S
C820   C1003   1.417   .     S
C821   O850    1.288   .     A
C821   C826    1.437   .     S
C821   O847    1.287   .     A
C822   O849    1.288   .     A
C822   C825    1.437   .     S
C822   O848    1.287   .     A
C823   C833    1.392   .     A
C823   C825    1.401   .     A
C823   F853    1.360   .     S
C824   C826    1.401   .     A
C824   C834    1.392   .     A
C824   F854    1.360   .     S
C825   C827    1.394   .     A
C826   C828    1.394   .     A
C827   H837    1.085   .     S
C827   C829    1.381   .     A
C828   H838    1.085   .     S
C828   C830    1.381   .     A
C829   C831    1.410   .     A
C829   C835    1.397   .     A
C830   C832    1.410   .     A
C830   C836    1.397   .     A
C831   C833    1.416   .     A
C831   C274    1.395   1_556 S
C832   C834    1.416   .     A
C835   H839    1.084   .     S
C835   C251    1.387   1_556 S
C836   H840    1.084   .     S
N841   Zn851   2.010   .     S
N842   Zn852   2.010   .     S
O843   Zn851   1.989   .     S
O844   Zn852   1.989   .     S
O845   Zn851   1.983   .     S
O846   Zn852   1.983   .     S
O847   Zn851   2.022   .     S
O848   Zn852   2.022   .     S
O849   Zn851   2.016   .     S
O850   Zn852   2.016   .     S
O857   H858    0.989   .     S
O859   H860    0.989   .     S
O861   H862    0.989   .     S
O863   H864    0.989   .     S
C869   O905    1.277   .     A
C869   O908    1.280   .     A
C869   C878    1.409   .     S
C870   O906    1.277   .     A
C870   C877    1.409   .     S
C870   O907    1.280   .     A
C871   F917    1.358   .     S
C871   C896    1.407   .     A
C872   C895    1.407   .     A
C872   F918    1.358   .     S
C872   C340    1.387   1_556 S
C873   C878    1.409   .     A
C873   O919    1.386   .     S
C874   C877    1.409   .     A
C874   O921    1.386   .     S
C874   C752    1.389   1_655 S
C875   O923    1.387   .     S
C875   C877    1.401   .     A
C875   C749    1.389   1_655 S
C876   O925    1.387   .     S
C876   C878    1.401   .     A
C879   F927    1.355   .     S
C879   N904    1.367   .     A
C880   N903    1.367   .     A
C880   F928    1.355   .     S
C880   C1067   1.417   .     S
C881   F929    1.355   .     S
C881   N904    1.367   .     A
C882   N903    1.367   .     A
C882   F930    1.355   .     S
C882   C1065   1.417   .     S
C883   O912    1.288   .     A
C883   C888    1.437   .     S
C883   O909    1.287   .     A
C884   O911    1.288   .     A
C884   C887    1.437   .     S
C884   O910    1.287   .     A
C885   C895    1.392   .     A
C885   C887    1.401   .     A
C885   F915    1.360   .     S
C886   C888    1.401   .     A
C886   C896    1.392   .     A
C886   F916    1.360   .     S
C887   C889    1.394   .     A
C888   C890    1.394   .     A
C889   H899    1.085   .     S
C889   C891    1.381   .     A
C890   H900    1.085   .     S
C890   C892    1.381   .     A
C891   C893    1.410   .     A
C891   C897    1.397   .     A
C892   C894    1.410   .     A
C892   C898    1.397   .     A
C893   C895    1.416   .     A
C893   C336    1.395   1_556 S
C894   C896    1.416   .     A
C897   H901    1.084   .     S
C897   C313    1.387   1_556 S
C898   H902    1.084   .     S
N903   Zn913   2.010   .     S
N904   Zn914   2.010   .     S
O905   Zn913   1.989   .     S
O906   Zn914   1.989   .     S
O907   Zn913   1.983   .     S
O908   Zn914   1.983   .     S
O909   Zn913   2.022   .     S
O910   Zn914   2.022   .     S
O911   Zn913   2.016   .     S
O912   Zn914   2.016   .     S
O919   H920    0.989   .     S
O921   H922    0.989   .     S
O923   H924    0.989   .     S
O925   H926    0.989   .     S
C931   O967    1.277   .     A
C931   O970    1.280   .     A
C931   C940    1.409   .     S
C932   O968    1.277   .     A
C932   C939    1.409   .     S
C932   O969    1.280   .     A
C933   F979    1.358   .     S
C933   C958    1.407   .     A
C934   C957    1.407   .     A
C934   F980    1.358   .     S
C934   C402    1.387   1_556 S
C935   C940    1.409   .     A
C935   O981    1.386   .     S
C935   C1061   1.389   1_455 S
C936   C939    1.409   .     A
C936   O983    1.386   .     S
C936   C1000   1.389   .     S
C937   O985    1.387   .     S
C937   C939    1.401   .     A
C937   C997    1.389   .     S
C938   O987    1.387   .     S
C938   C940    1.401   .     A
C938   C1060   1.389   1_455 S
C941   F989    1.355   .     S
C941   N966    1.367   .     A
C942   N965    1.367   .     A
C942   F990    1.355   .     S
C942   C571    1.417   1_565 S
C943   F991    1.355   .     S
C943   N966    1.367   .     A
C944   N965    1.367   .     A
C944   F992    1.355   .     S
C944   C569    1.417   1_565 S
C945   O974    1.288   .     A
C945   C950    1.437   .     S
C945   O971    1.287   .     A
C946   O973    1.288   .     A
C946   C949    1.437   .     S
C946   O972    1.287   .     A
C947   C957    1.392   .     A
C947   C949    1.401   .     A
C947   F977    1.360   .     S
C948   C950    1.401   .     A
C948   C958    1.392   .     A
C948   F978    1.360   .     S
C949   C951    1.394   .     A
C950   C952    1.394   .     A
C951   H961    1.085   .     S
C951   C953    1.381   .     A
C952   H962    1.085   .     S
C952   C954    1.381   .     A
C953   C955    1.410   .     A
C953   C959    1.397   .     A
C954   C956    1.410   .     A
C954   C960    1.397   .     A
C955   C957    1.416   .     A
C955   C398    1.395   1_556 S
C956   C958    1.416   .     A
C959   H963    1.084   .     S
C959   C375    1.387   1_556 S
C960   H964    1.084   .     S
N965   Zn975   2.010   .     S
N966   Zn976   2.010   .     S
O967   Zn975   1.989   .     S
O968   Zn976   1.989   .     S
O969   Zn975   1.983   .     S
O970   Zn976   1.983   .     S
O971   Zn975   2.022   .     S
O972   Zn976   2.022   .     S
O973   Zn975   2.016   .     S
O974   Zn976   2.016   .     S
O981   H982    0.989   .     S
O983   H984    0.989   .     S
O985   H986    0.989   .     S
O987   H988    0.989   .     S
C993   O1029   1.277   .     A
C993   O1032   1.280   .     A
C993   C1002   1.409   .     S
C994   O1030   1.277   .     A
C994   C1001   1.409   .     S
C994   O1031   1.280   .     A
C995   F1041   1.358   .     S
C995   C1020   1.407   .     A
C996   C1019   1.407   .     A
C996   F1042   1.358   .     S
C996   C464    1.387   1_556 S
C997   C1002   1.409   .     A
C997   O1043   1.386   .     S
C998   C1001   1.409   .     A
C998   O1045   1.386   .     S
C998   C1062   1.389   .     S
C999   O1047   1.387   .     S
C999   C1001   1.401   .     A
C999   C1059   1.389   .     S
C1000  O1049   1.387   .     S
C1000  C1002   1.401   .     A
C1003  F1051   1.355   .     S
C1003  N1028   1.367   .     A
C1004  N1027   1.367   .     A
C1004  F1052   1.355   .     S
C1004  C633    1.417   1_565 S
C1005  F1053   1.355   .     S
C1005  N1028   1.367   .     A
C1006  N1027   1.367   .     A
C1006  F1054   1.355   .     S
C1006  C631    1.417   1_565 S
C1007  O1036   1.288   .     A
C1007  C1012   1.437   .     S
C1007  O1033   1.287   .     A
C1008  O1035   1.288   .     A
C1008  C1011   1.437   .     S
C1008  O1034   1.287   .     A
C1009  C1019   1.392   .     A
C1009  C1011   1.401   .     A
C1009  F1039   1.360   .     S
C1010  C1012   1.401   .     A
C1010  C1020   1.392   .     A
C1010  F1040   1.360   .     S
C1011  C1013   1.394   .     A
C1012  C1014   1.394   .     A
C1013  H1023   1.085   .     S
C1013  C1015   1.381   .     A
C1014  H1024   1.085   .     S
C1014  C1016   1.381   .     A
C1015  C1017   1.410   .     A
C1015  C1021   1.397   .     A
C1016  C1018   1.410   .     A
C1016  C1022   1.397   .     A
C1017  C1019   1.416   .     A
C1017  C460    1.395   1_556 S
C1018  C1020   1.416   .     A
C1021  H1025   1.084   .     S
C1021  C437    1.387   1_556 S
C1022  H1026   1.084   .     S
N1027  Zn1037  2.010   .     S
N1028  Zn1038  2.010   .     S
O1029  Zn1037  1.989   .     S
O1030  Zn1038  1.989   .     S
O1031  Zn1037  1.983   .     S
O1032  Zn1038  1.983   .     S
O1033  Zn1037  2.022   .     S
O1034  Zn1038  2.022   .     S
O1035  Zn1037  2.016   .     S
O1036  Zn1038  2.016   .     S
O1043  H1044   0.989   .     S
O1045  H1046   0.989   .     S
O1047  H1048   0.989   .     S
O1049  H1050   0.989   .     S
C1055  O1091   1.277   .     A
C1055  O1094   1.280   .     A
C1055  C1064   1.409   .     S
C1056  O1092   1.277   .     A
C1056  C1063   1.409   .     S
C1056  O1093   1.280   .     A
C1057  F1103   1.358   .     S
C1057  C1082   1.407   .     A
C1058  C1081   1.407   .     A
C1058  F1104   1.358   .     S
C1058  C526    1.387   1_556 S
C1059  C1064   1.409   .     A
C1059  O1105   1.386   .     S
C1060  C1063   1.409   .     A
C1060  O1107   1.386   .     S
C1060  C938    1.389   1_655 S
C1061  O1109   1.387   .     S
C1061  C1063   1.401   .     A
C1061  C935    1.389   1_655 S
C1062  O1111   1.387   .     S
C1062  C1064   1.401   .     A
C1065  F1113   1.355   .     S
C1065  N1090   1.367   .     A
C1066  N1089   1.367   .     A
C1066  F1114   1.355   .     S
C1066  C695    1.417   1_565 S
C1067  F1115   1.355   .     S
C1067  N1090   1.367   .     A
C1068  N1089   1.367   .     A
C1068  F1116   1.355   .     S
C1068  C693    1.417   1_565 S
C1069  O1098   1.288   .     A
C1069  C1074   1.437   .     S
C1069  O1095   1.287   .     A
C1070  O1097   1.288   .     A
C1070  C1073   1.437   .     S
C1070  O1096   1.287   .     A
C1071  C1081   1.392   .     A
C1071  C1073   1.401   .     A
C1071  F1101   1.360   .     S
C1072  C1074   1.401   .     A
C1072  C1082   1.392   .     A
C1072  F1102   1.360   .     S
C1073  C1075   1.394   .     A
C1074  C1076   1.394   .     A
C1075  H1085   1.085   .     S
C1075  C1077   1.381   .     A
C1076  H1086   1.085   .     S
C1076  C1078   1.381   .     A
C1077  C1079   1.410   .     A
C1077  C1083   1.397   .     A
C1078  C1080   1.410   .     A
C1078  C1084   1.397   .     A
C1079  C1081   1.416   .     A
C1079  C522    1.395   1_556 S
C1080  C1082   1.416   .     A
C1083  H1087   1.084   .     S
C1083  C499    1.387   1_556 S
C1084  H1088   1.084   .     S
N1089  Zn1099  2.010   .     S
N1090  Zn1100  2.010   .     S
O1091  Zn1099  1.989   .     S
O1092  Zn1100  1.989   .     S
O1093  Zn1099  1.983   .     S
O1094  Zn1100  1.983   .     S
O1095  Zn1099  2.022   .     S
O1096  Zn1100  2.022   .     S
O1097  Zn1099  2.016   .     S
O1098  Zn1100  2.016   .     S
O1105  H1106   0.989   .     S
O1107  H1108   0.989   .     S
O1109  H1110   0.989   .     S
O1111  H1112   0.989   .     S
