data_str_m3_o1_o17_pcu_sym.174
_audit_creation_date              2020-01-03
_audit_creation_method            'Materials Studio'
_symmetry_space_group_name_H-M    'P1'
_symmetry_Int_Tables_number       1
_symmetry_cell_setting            triclinic
loop_
_symmetry_equiv_pos_as_xyz
  x,y,z
_cell_length_a                    32.0897
_cell_length_b                    29.5374
_cell_length_c                    29.8930
_cell_angle_alpha                 90.0128
_cell_angle_beta                  89.9296
_cell_angle_gamma                 89.9198
loop_
_atom_site_label
_atom_site_type_symbol
_atom_site_fract_x
_atom_site_fract_y
_atom_site_fract_z
_atom_site_U_iso_or_equiv
_atom_site_adp_type
_atom_site_occupancy
C1     C     0.08664   0.16669   0.24992   0.00000  Uiso   1.00
C2     C     0.24669   0.16664   0.25008   0.00000  Uiso   1.00
C3     C     0.09869   0.12841   0.02121   0.00000  Uiso   1.00
C4     C     0.23469   0.20486   0.47879   0.00000  Uiso   1.00
C5     C     0.02141   0.12774   0.23633   0.00000  Uiso   1.00
C6     C     0.31192   0.20559   0.26367   0.00000  Uiso   1.00
C7     C     0.31205   0.12768   0.23650   0.00000  Uiso   1.00
C8     C     0.02129   0.20565   0.26350   0.00000  Uiso   1.00
C9     C     0.29083   0.16661   0.25013   0.00000  Uiso   1.00
C10    C     0.04250   0.16672   0.24987   0.00000  Uiso   1.00
C11    C     0.19360   0.02394   0.27658   0.00000  Uiso   1.00
C12    C     0.13973   0.30939   0.22342   0.00000  Uiso   1.00
C13    C     0.13973   0.02402   0.22341   0.00000  Uiso   1.00
C14    C     0.19360   0.30932   0.27658   0.00000  Uiso   1.00
C15    C     0.16589   0.16665   0.16359   0.00000  Uiso   1.00
C16    C     0.16745   0.16668   0.33641   0.00000  Uiso   1.00
C17    C     0.20361   0.18372   0.40685   0.00000  Uiso   1.00
C18    C     0.12974   0.14962   0.09314   0.00000  Uiso   1.00
C19    C     0.16864   0.16674   0.38407   0.00000  Uiso   1.00
C20    C     0.16470   0.16659   0.11593   0.00000  Uiso   1.00
C21    C     0.13458   0.14826   0.40629   0.00000  Uiso   1.00
C22    C     0.19878   0.18503   0.09371   0.00000  Uiso   1.00
C23    C     0.13390   0.14754   0.45252   0.00000  Uiso   1.00
C24    C     0.19947   0.18575   0.04748   0.00000  Uiso   1.00
C25    C     0.16746   0.16640   0.47657   0.00000  Uiso   1.00
C26    C     0.16590   0.16690   0.02343   0.00000  Uiso   1.00
C27    C     0.20248   0.18482   0.45387   0.00000  Uiso   1.00
C28    C     0.13088   0.14849   0.04613   0.00000  Uiso   1.00
C29    C     0.10003   0.12838   0.47495   0.00000  Uiso   1.00
C30    C     0.23335   0.20488   0.02505   0.00000  Uiso   1.00
H31    H     0.07447   0.11306   0.45679   0.00000  Uiso   1.00
H32    H     0.25892   0.22018   0.04321   0.00000  Uiso   1.00
H33    H     0.07246   0.11191   0.03693   0.00000  Uiso   1.00
H34    H     0.26094   0.22134   0.46307   0.00000  Uiso   1.00
H35    H     0.03782   0.09764   0.22531   0.00000  Uiso   1.00
H36    H     0.29551   0.23569   0.27469   0.00000  Uiso   1.00
H37    H     0.29574   0.09754   0.22561   0.00000  Uiso   1.00
H38    H     0.03759   0.23580   0.27439   0.00000  Uiso   1.00
H39    H     0.21513   0.04207   0.29784   0.00000  Uiso   1.00
H40    H     0.11820   0.29126   0.20216   0.00000  Uiso   1.00
H41    H     0.11820   0.04221   0.20216   0.00000  Uiso   1.00
H42    H     0.21514   0.29113   0.29784   0.00000  Uiso   1.00
N43    N     0.16667   0.28573   0.25000   0.00000  Uiso   1.00
N44    N     0.16667   0.04760   0.25000   0.00000  Uiso   1.00
O45    O     0.10559   0.20487   0.24999   0.00000  Uiso   1.00
O46    O     0.22774   0.12846   0.25000   0.00000  Uiso   1.00
O47    O     0.22774   0.20487   0.25000   0.00000  Uiso   1.00
O48    O     0.10559   0.12846   0.24999   0.00000  Uiso   1.00
O49    O     0.16666   0.20489   0.18392   0.00000  Uiso   1.00
O50    O     0.16667   0.12844   0.31607   0.00000  Uiso   1.00
O51    O     0.16667   0.20489   0.31607   0.00000  Uiso   1.00
O52    O     0.16666   0.12844   0.18392   0.00000  Uiso   1.00
Zn53   Zn    0.16667   0.21771   0.25000   0.00000  Uiso   1.00
Zn54   Zn    0.16667   0.11563   0.25000   0.00000  Uiso   1.00
C55    C     0.24115   0.19798   0.38097   0.00000  Uiso   1.00
H56    H     0.23784   0.21785   0.35069   0.00000  Uiso   1.00
O57    O     0.27597   0.18562   0.39202   0.00000  Uiso   1.00
C58    C     0.09218   0.13541   0.11902   0.00000  Uiso   1.00
H59    H     0.09547   0.11563   0.14936   0.00000  Uiso   1.00
O60    O     0.05736   0.14771   0.10789   0.00000  Uiso   1.00
F61    F     0.10187   0.13146   0.38251   0.00000  Uiso   1.00
F62    F     0.23150   0.20181   0.11749   0.00000  Uiso   1.00
C63    C     0.41998   0.16669   0.24992   0.00000  Uiso   1.00
C64    C     0.58002   0.16664   0.25008   0.00000  Uiso   1.00
C65    C     0.43202   0.12841   0.02121   0.00000  Uiso   1.00
C66    C     0.56803   0.20486   0.47879   0.00000  Uiso   1.00
C67    C     0.35475   0.12774   0.23633   0.00000  Uiso   1.00
C68    C     0.64525   0.20559   0.26367   0.00000  Uiso   1.00
C69    C     0.64538   0.12768   0.23650   0.00000  Uiso   1.00
C70    C     0.35462   0.20565   0.26350   0.00000  Uiso   1.00
C71    C     0.62416   0.16661   0.25013   0.00000  Uiso   1.00
C72    C     0.37584   0.16672   0.24987   0.00000  Uiso   1.00
C73    C     0.52693   0.02394   0.27658   0.00000  Uiso   1.00
C74    C     0.47307   0.30939   0.22342   0.00000  Uiso   1.00
C75    C     0.47307   0.02402   0.22341   0.00000  Uiso   1.00
C76    C     0.52693   0.30932   0.27658   0.00000  Uiso   1.00
C77    C     0.49922   0.16665   0.16359   0.00000  Uiso   1.00
C78    C     0.50078   0.16668   0.33641   0.00000  Uiso   1.00
C79    C     0.53694   0.18372   0.40685   0.00000  Uiso   1.00
C80    C     0.46307   0.14962   0.09314   0.00000  Uiso   1.00
C81    C     0.50197   0.16674   0.38407   0.00000  Uiso   1.00
C82    C     0.49803   0.16659   0.11593   0.00000  Uiso   1.00
C83    C     0.46791   0.14826   0.40629   0.00000  Uiso   1.00
C84    C     0.53211   0.18503   0.09371   0.00000  Uiso   1.00
C85    C     0.46723   0.14754   0.45252   0.00000  Uiso   1.00
C86    C     0.53280   0.18575   0.04748   0.00000  Uiso   1.00
C87    C     0.50080   0.16640   0.47657   0.00000  Uiso   1.00
C88    C     0.49923   0.16690   0.02343   0.00000  Uiso   1.00
C89    C     0.53582   0.18482   0.45387   0.00000  Uiso   1.00
C90    C     0.46421   0.14849   0.04613   0.00000  Uiso   1.00
C91    C     0.43337   0.12838   0.47495   0.00000  Uiso   1.00
C92    C     0.56668   0.20488   0.02505   0.00000  Uiso   1.00
H93    H     0.40781   0.11306   0.45679   0.00000  Uiso   1.00
H94    H     0.59225   0.22018   0.04321   0.00000  Uiso   1.00
H95    H     0.40579   0.11191   0.03693   0.00000  Uiso   1.00
H96    H     0.59427   0.22134   0.46307   0.00000  Uiso   1.00
H97    H     0.37116   0.09764   0.22531   0.00000  Uiso   1.00
H98    H     0.62884   0.23569   0.27469   0.00000  Uiso   1.00
H99    H     0.62908   0.09754   0.22561   0.00000  Uiso   1.00
H100   H     0.37092   0.23580   0.27439   0.00000  Uiso   1.00
H101   H     0.54847   0.04207   0.29784   0.00000  Uiso   1.00
H102   H     0.45153   0.29126   0.20216   0.00000  Uiso   1.00
H103   H     0.45153   0.04221   0.20216   0.00000  Uiso   1.00
H104   H     0.54847   0.29113   0.29784   0.00000  Uiso   1.00
N105   N     0.50000   0.28573   0.25000   0.00000  Uiso   1.00
N106   N     0.50000   0.04760   0.25000   0.00000  Uiso   1.00
O107   O     0.43892   0.20487   0.24999   0.00000  Uiso   1.00
O108   O     0.56108   0.12846   0.25000   0.00000  Uiso   1.00
O109   O     0.56108   0.20487   0.25000   0.00000  Uiso   1.00
O110   O     0.43892   0.12846   0.24999   0.00000  Uiso   1.00
O111   O     0.49999   0.20489   0.18392   0.00000  Uiso   1.00
O112   O     0.50001   0.12844   0.31607   0.00000  Uiso   1.00
O113   O     0.50001   0.20489   0.31607   0.00000  Uiso   1.00
O114   O     0.49999   0.12844   0.18392   0.00000  Uiso   1.00
Zn115  Zn    0.50000   0.21771   0.25000   0.00000  Uiso   1.00
Zn116  Zn    0.50000   0.11563   0.25000   0.00000  Uiso   1.00
C117   C     0.57448   0.19798   0.38097   0.00000  Uiso   1.00
H118   H     0.57117   0.21785   0.35069   0.00000  Uiso   1.00
O119   O     0.60930   0.18562   0.39202   0.00000  Uiso   1.00
C120   C     0.42551   0.13541   0.11902   0.00000  Uiso   1.00
H121   H     0.42880   0.11563   0.14936   0.00000  Uiso   1.00
O122   O     0.39069   0.14771   0.10789   0.00000  Uiso   1.00
F123   F     0.43520   0.13146   0.38251   0.00000  Uiso   1.00
F124   F     0.56483   0.20181   0.11749   0.00000  Uiso   1.00
C125   C     0.75331   0.16669   0.24992   0.00000  Uiso   1.00
C126   C     0.91336   0.16664   0.25008   0.00000  Uiso   1.00
C127   C     0.76535   0.12841   0.02121   0.00000  Uiso   1.00
C128   C     0.90136   0.20486   0.47879   0.00000  Uiso   1.00
C129   C     0.68808   0.12774   0.23633   0.00000  Uiso   1.00
C130   C     0.97859   0.20559   0.26367   0.00000  Uiso   1.00
C131   C     0.97871   0.12768   0.23650   0.00000  Uiso   1.00
C132   C     0.68795   0.20565   0.26350   0.00000  Uiso   1.00
C133   C     0.95750   0.16661   0.25013   0.00000  Uiso   1.00
C134   C     0.70917   0.16672   0.24987   0.00000  Uiso   1.00
C135   C     0.86027   0.02394   0.27658   0.00000  Uiso   1.00
C136   C     0.80640   0.30939   0.22342   0.00000  Uiso   1.00
C137   C     0.80640   0.02402   0.22341   0.00000  Uiso   1.00
C138   C     0.86027   0.30932   0.27658   0.00000  Uiso   1.00
C139   C     0.83256   0.16665   0.16359   0.00000  Uiso   1.00
C140   C     0.83411   0.16668   0.33641   0.00000  Uiso   1.00
C141   C     0.87027   0.18372   0.40685   0.00000  Uiso   1.00
C142   C     0.79640   0.14962   0.09314   0.00000  Uiso   1.00
C143   C     0.83531   0.16674   0.38407   0.00000  Uiso   1.00
C144   C     0.83137   0.16659   0.11593   0.00000  Uiso   1.00
C145   C     0.80124   0.14826   0.40629   0.00000  Uiso   1.00
C146   C     0.86545   0.18503   0.09371   0.00000  Uiso   1.00
C147   C     0.80056   0.14754   0.45252   0.00000  Uiso   1.00
C148   C     0.86613   0.18575   0.04748   0.00000  Uiso   1.00
C149   C     0.83413   0.16640   0.47657   0.00000  Uiso   1.00
C150   C     0.83257   0.16690   0.02343   0.00000  Uiso   1.00
C151   C     0.86915   0.18482   0.45387   0.00000  Uiso   1.00
C152   C     0.79754   0.14849   0.04613   0.00000  Uiso   1.00
C153   C     0.76670   0.12838   0.47495   0.00000  Uiso   1.00
C154   C     0.90002   0.20488   0.02505   0.00000  Uiso   1.00
H155   H     0.74114   0.11306   0.45679   0.00000  Uiso   1.00
H156   H     0.92559   0.22018   0.04321   0.00000  Uiso   1.00
H157   H     0.73913   0.11191   0.03693   0.00000  Uiso   1.00
H158   H     0.92761   0.22134   0.46307   0.00000  Uiso   1.00
H159   H     0.70449   0.09764   0.22531   0.00000  Uiso   1.00
H160   H     0.96218   0.23569   0.27469   0.00000  Uiso   1.00
H161   H     0.96241   0.09754   0.22561   0.00000  Uiso   1.00
H162   H     0.70426   0.23580   0.27439   0.00000  Uiso   1.00
H163   H     0.88180   0.04207   0.29784   0.00000  Uiso   1.00
H164   H     0.78487   0.29126   0.20216   0.00000  Uiso   1.00
H165   H     0.78486   0.04221   0.20216   0.00000  Uiso   1.00
H166   H     0.88181   0.29113   0.29784   0.00000  Uiso   1.00
N167   N     0.83333   0.28573   0.25000   0.00000  Uiso   1.00
N168   N     0.83333   0.04760   0.25000   0.00000  Uiso   1.00
O169   O     0.77226   0.20487   0.24999   0.00000  Uiso   1.00
O170   O     0.89441   0.12846   0.25000   0.00000  Uiso   1.00
O171   O     0.89441   0.20487   0.25000   0.00000  Uiso   1.00
O172   O     0.77226   0.12846   0.24999   0.00000  Uiso   1.00
O173   O     0.83333   0.20489   0.18392   0.00000  Uiso   1.00
O174   O     0.83334   0.12844   0.31607   0.00000  Uiso   1.00
O175   O     0.83334   0.20489   0.31607   0.00000  Uiso   1.00
O176   O     0.83333   0.12844   0.18392   0.00000  Uiso   1.00
Zn177  Zn    0.83333   0.21771   0.25000   0.00000  Uiso   1.00
Zn178  Zn    0.83333   0.11563   0.25000   0.00000  Uiso   1.00
C179   C     0.90781   0.19798   0.38097   0.00000  Uiso   1.00
H180   H     0.90450   0.21785   0.35069   0.00000  Uiso   1.00
O181   O     0.94264   0.18562   0.39202   0.00000  Uiso   1.00
C182   C     0.75885   0.13541   0.11902   0.00000  Uiso   1.00
H183   H     0.76214   0.11563   0.14936   0.00000  Uiso   1.00
O184   O     0.72403   0.14771   0.10789   0.00000  Uiso   1.00
F185   F     0.76853   0.13146   0.38251   0.00000  Uiso   1.00
F186   F     0.89816   0.20181   0.11749   0.00000  Uiso   1.00
C187   C     0.08664   0.50002   0.24992   0.00000  Uiso   1.00
C188   C     0.24669   0.49998   0.25008   0.00000  Uiso   1.00
C189   C     0.09869   0.46175   0.02121   0.00000  Uiso   1.00
C190   C     0.23469   0.53819   0.47879   0.00000  Uiso   1.00
C191   C     0.02141   0.46108   0.23633   0.00000  Uiso   1.00
C192   C     0.31192   0.53892   0.26367   0.00000  Uiso   1.00
C193   C     0.31205   0.46101   0.23650   0.00000  Uiso   1.00
C194   C     0.02129   0.53899   0.26350   0.00000  Uiso   1.00
C195   C     0.29083   0.49995   0.25013   0.00000  Uiso   1.00
C196   C     0.04250   0.50005   0.24987   0.00000  Uiso   1.00
C197   C     0.19360   0.35727   0.27658   0.00000  Uiso   1.00
C198   C     0.13973   0.64273   0.22342   0.00000  Uiso   1.00
C199   C     0.13973   0.35735   0.22341   0.00000  Uiso   1.00
C200   C     0.19360   0.64265   0.27658   0.00000  Uiso   1.00
C201   C     0.16589   0.49998   0.16359   0.00000  Uiso   1.00
C202   C     0.16745   0.50002   0.33641   0.00000  Uiso   1.00
C203   C     0.20361   0.51706   0.40685   0.00000  Uiso   1.00
C204   C     0.12974   0.48295   0.09314   0.00000  Uiso   1.00
C205   C     0.16864   0.50007   0.38407   0.00000  Uiso   1.00
C206   C     0.16470   0.49993   0.11593   0.00000  Uiso   1.00
C207   C     0.13458   0.48160   0.40629   0.00000  Uiso   1.00
C208   C     0.19878   0.51837   0.09371   0.00000  Uiso   1.00
C209   C     0.13390   0.48087   0.45252   0.00000  Uiso   1.00
C210   C     0.19947   0.51909   0.04748   0.00000  Uiso   1.00
C211   C     0.16746   0.49973   0.47657   0.00000  Uiso   1.00
C212   C     0.16590   0.50024   0.02343   0.00000  Uiso   1.00
C213   C     0.20248   0.51815   0.45387   0.00000  Uiso   1.00
C214   C     0.13088   0.48183   0.04613   0.00000  Uiso   1.00
C215   C     0.10003   0.46172   0.47495   0.00000  Uiso   1.00
C216   C     0.23335   0.53822   0.02505   0.00000  Uiso   1.00
H217   H     0.07447   0.44639   0.45679   0.00000  Uiso   1.00
H218   H     0.25892   0.55352   0.04321   0.00000  Uiso   1.00
H219   H     0.07246   0.44524   0.03693   0.00000  Uiso   1.00
H220   H     0.26094   0.55467   0.46307   0.00000  Uiso   1.00
H221   H     0.03782   0.43098   0.22531   0.00000  Uiso   1.00
H222   H     0.29551   0.56902   0.27469   0.00000  Uiso   1.00
H223   H     0.29574   0.43087   0.22561   0.00000  Uiso   1.00
H224   H     0.03759   0.56913   0.27439   0.00000  Uiso   1.00
H225   H     0.21513   0.37541   0.29784   0.00000  Uiso   1.00
H226   H     0.11820   0.62459   0.20216   0.00000  Uiso   1.00
H227   H     0.11820   0.37554   0.20216   0.00000  Uiso   1.00
H228   H     0.21514   0.62446   0.29784   0.00000  Uiso   1.00
N229   N     0.16667   0.61907   0.25000   0.00000  Uiso   1.00
N230   N     0.16667   0.38093   0.25000   0.00000  Uiso   1.00
O231   O     0.10559   0.53821   0.24999   0.00000  Uiso   1.00
O232   O     0.22774   0.46179   0.25000   0.00000  Uiso   1.00
O233   O     0.22774   0.53821   0.25000   0.00000  Uiso   1.00
O234   O     0.10559   0.46179   0.24999   0.00000  Uiso   1.00
O235   O     0.16666   0.53823   0.18392   0.00000  Uiso   1.00
O236   O     0.16667   0.46177   0.31607   0.00000  Uiso   1.00
O237   O     0.16667   0.53823   0.31607   0.00000  Uiso   1.00
O238   O     0.16666   0.46177   0.18392   0.00000  Uiso   1.00
Zn239  Zn    0.16667   0.55104   0.25000   0.00000  Uiso   1.00
Zn240  Zn    0.16667   0.44896   0.25000   0.00000  Uiso   1.00
C241   C     0.24115   0.53131   0.38097   0.00000  Uiso   1.00
H242   H     0.23784   0.55118   0.35069   0.00000  Uiso   1.00
O243   O     0.27597   0.51895   0.39202   0.00000  Uiso   1.00
C244   C     0.09218   0.46875   0.11902   0.00000  Uiso   1.00
H245   H     0.09547   0.44896   0.14936   0.00000  Uiso   1.00
O246   O     0.05736   0.48104   0.10789   0.00000  Uiso   1.00
F247   F     0.10187   0.46479   0.38251   0.00000  Uiso   1.00
F248   F     0.23150   0.53514   0.11749   0.00000  Uiso   1.00
C249   C     0.41998   0.50002   0.24992   0.00000  Uiso   1.00
C250   C     0.58002   0.49998   0.25008   0.00000  Uiso   1.00
C251   C     0.43202   0.46175   0.02121   0.00000  Uiso   1.00
C252   C     0.56803   0.53819   0.47879   0.00000  Uiso   1.00
C253   C     0.35475   0.46108   0.23633   0.00000  Uiso   1.00
C254   C     0.64525   0.53892   0.26367   0.00000  Uiso   1.00
C255   C     0.64538   0.46101   0.23650   0.00000  Uiso   1.00
C256   C     0.35462   0.53899   0.26350   0.00000  Uiso   1.00
C257   C     0.62416   0.49995   0.25013   0.00000  Uiso   1.00
C258   C     0.37584   0.50005   0.24987   0.00000  Uiso   1.00
C259   C     0.52693   0.35727   0.27658   0.00000  Uiso   1.00
C260   C     0.47307   0.64273   0.22342   0.00000  Uiso   1.00
C261   C     0.47307   0.35735   0.22341   0.00000  Uiso   1.00
C262   C     0.52693   0.64265   0.27658   0.00000  Uiso   1.00
C263   C     0.49922   0.49998   0.16359   0.00000  Uiso   1.00
C264   C     0.50078   0.50002   0.33641   0.00000  Uiso   1.00
C265   C     0.53694   0.51706   0.40685   0.00000  Uiso   1.00
C266   C     0.46307   0.48295   0.09314   0.00000  Uiso   1.00
C267   C     0.50197   0.50007   0.38407   0.00000  Uiso   1.00
C268   C     0.49803   0.49993   0.11593   0.00000  Uiso   1.00
C269   C     0.46791   0.48160   0.40629   0.00000  Uiso   1.00
C270   C     0.53211   0.51837   0.09371   0.00000  Uiso   1.00
C271   C     0.46723   0.48087   0.45252   0.00000  Uiso   1.00
C272   C     0.53280   0.51909   0.04748   0.00000  Uiso   1.00
C273   C     0.50080   0.49973   0.47657   0.00000  Uiso   1.00
C274   C     0.49923   0.50024   0.02343   0.00000  Uiso   1.00
C275   C     0.53582   0.51815   0.45387   0.00000  Uiso   1.00
C276   C     0.46421   0.48183   0.04613   0.00000  Uiso   1.00
C277   C     0.43337   0.46172   0.47495   0.00000  Uiso   1.00
C278   C     0.56668   0.53822   0.02505   0.00000  Uiso   1.00
H279   H     0.40781   0.44639   0.45679   0.00000  Uiso   1.00
H280   H     0.59225   0.55352   0.04321   0.00000  Uiso   1.00
H281   H     0.40579   0.44524   0.03693   0.00000  Uiso   1.00
H282   H     0.59427   0.55467   0.46307   0.00000  Uiso   1.00
H283   H     0.37116   0.43098   0.22531   0.00000  Uiso   1.00
H284   H     0.62884   0.56902   0.27469   0.00000  Uiso   1.00
H285   H     0.62908   0.43087   0.22561   0.00000  Uiso   1.00
H286   H     0.37092   0.56913   0.27439   0.00000  Uiso   1.00
H287   H     0.54847   0.37541   0.29784   0.00000  Uiso   1.00
H288   H     0.45153   0.62459   0.20216   0.00000  Uiso   1.00
H289   H     0.45153   0.37554   0.20216   0.00000  Uiso   1.00
H290   H     0.54847   0.62446   0.29784   0.00000  Uiso   1.00
N291   N     0.50000   0.61907   0.25000   0.00000  Uiso   1.00
N292   N     0.50000   0.38093   0.25000   0.00000  Uiso   1.00
O293   O     0.43892   0.53821   0.24999   0.00000  Uiso   1.00
O294   O     0.56108   0.46179   0.25000   0.00000  Uiso   1.00
O295   O     0.56108   0.53821   0.25000   0.00000  Uiso   1.00
O296   O     0.43892   0.46179   0.24999   0.00000  Uiso   1.00
O297   O     0.49999   0.53823   0.18392   0.00000  Uiso   1.00
O298   O     0.50001   0.46177   0.31607   0.00000  Uiso   1.00
O299   O     0.50001   0.53823   0.31607   0.00000  Uiso   1.00
O300   O     0.49999   0.46177   0.18392   0.00000  Uiso   1.00
Zn301  Zn    0.50000   0.55104   0.25000   0.00000  Uiso   1.00
Zn302  Zn    0.50000   0.44896   0.25000   0.00000  Uiso   1.00
C303   C     0.57448   0.53131   0.38097   0.00000  Uiso   1.00
H304   H     0.57117   0.55118   0.35069   0.00000  Uiso   1.00
O305   O     0.60930   0.51895   0.39202   0.00000  Uiso   1.00
C306   C     0.42551   0.46875   0.11902   0.00000  Uiso   1.00
H307   H     0.42880   0.44896   0.14936   0.00000  Uiso   1.00
O308   O     0.39069   0.48104   0.10789   0.00000  Uiso   1.00
F309   F     0.43520   0.46479   0.38251   0.00000  Uiso   1.00
F310   F     0.56483   0.53514   0.11749   0.00000  Uiso   1.00
C311   C     0.75331   0.50002   0.24992   0.00000  Uiso   1.00
C312   C     0.91336   0.49998   0.25008   0.00000  Uiso   1.00
C313   C     0.76535   0.46175   0.02121   0.00000  Uiso   1.00
C314   C     0.90136   0.53819   0.47879   0.00000  Uiso   1.00
C315   C     0.68808   0.46108   0.23633   0.00000  Uiso   1.00
C316   C     0.97859   0.53892   0.26367   0.00000  Uiso   1.00
C317   C     0.97871   0.46101   0.23650   0.00000  Uiso   1.00
C318   C     0.68795   0.53899   0.26350   0.00000  Uiso   1.00
C319   C     0.95750   0.49995   0.25013   0.00000  Uiso   1.00
C320   C     0.70917   0.50005   0.24987   0.00000  Uiso   1.00
C321   C     0.86027   0.35727   0.27658   0.00000  Uiso   1.00
C322   C     0.80640   0.64273   0.22342   0.00000  Uiso   1.00
C323   C     0.80640   0.35735   0.22341   0.00000  Uiso   1.00
C324   C     0.86027   0.64265   0.27658   0.00000  Uiso   1.00
C325   C     0.83256   0.49998   0.16359   0.00000  Uiso   1.00
C326   C     0.83411   0.50002   0.33641   0.00000  Uiso   1.00
C327   C     0.87027   0.51706   0.40685   0.00000  Uiso   1.00
C328   C     0.79640   0.48295   0.09314   0.00000  Uiso   1.00
C329   C     0.83531   0.50007   0.38407   0.00000  Uiso   1.00
C330   C     0.83137   0.49993   0.11593   0.00000  Uiso   1.00
C331   C     0.80124   0.48160   0.40629   0.00000  Uiso   1.00
C332   C     0.86545   0.51837   0.09371   0.00000  Uiso   1.00
C333   C     0.80056   0.48087   0.45252   0.00000  Uiso   1.00
C334   C     0.86613   0.51909   0.04748   0.00000  Uiso   1.00
C335   C     0.83413   0.49973   0.47657   0.00000  Uiso   1.00
C336   C     0.83257   0.50024   0.02343   0.00000  Uiso   1.00
C337   C     0.86915   0.51815   0.45387   0.00000  Uiso   1.00
C338   C     0.79754   0.48183   0.04613   0.00000  Uiso   1.00
C339   C     0.76670   0.46172   0.47495   0.00000  Uiso   1.00
C340   C     0.90002   0.53822   0.02505   0.00000  Uiso   1.00
H341   H     0.74114   0.44639   0.45679   0.00000  Uiso   1.00
H342   H     0.92559   0.55352   0.04321   0.00000  Uiso   1.00
H343   H     0.73913   0.44524   0.03693   0.00000  Uiso   1.00
H344   H     0.92761   0.55467   0.46307   0.00000  Uiso   1.00
H345   H     0.70449   0.43098   0.22531   0.00000  Uiso   1.00
H346   H     0.96218   0.56902   0.27469   0.00000  Uiso   1.00
H347   H     0.96241   0.43087   0.22561   0.00000  Uiso   1.00
H348   H     0.70426   0.56913   0.27439   0.00000  Uiso   1.00
H349   H     0.88180   0.37541   0.29784   0.00000  Uiso   1.00
H350   H     0.78487   0.62459   0.20216   0.00000  Uiso   1.00
H351   H     0.78486   0.37554   0.20216   0.00000  Uiso   1.00
H352   H     0.88181   0.62446   0.29784   0.00000  Uiso   1.00
N353   N     0.83333   0.61907   0.25000   0.00000  Uiso   1.00
N354   N     0.83333   0.38093   0.25000   0.00000  Uiso   1.00
O355   O     0.77226   0.53821   0.24999   0.00000  Uiso   1.00
O356   O     0.89441   0.46179   0.25000   0.00000  Uiso   1.00
O357   O     0.89441   0.53821   0.25000   0.00000  Uiso   1.00
O358   O     0.77226   0.46179   0.24999   0.00000  Uiso   1.00
O359   O     0.83333   0.53823   0.18392   0.00000  Uiso   1.00
O360   O     0.83334   0.46177   0.31607   0.00000  Uiso   1.00
O361   O     0.83334   0.53823   0.31607   0.00000  Uiso   1.00
O362   O     0.83333   0.46177   0.18392   0.00000  Uiso   1.00
Zn363  Zn    0.83333   0.55104   0.25000   0.00000  Uiso   1.00
Zn364  Zn    0.83333   0.44896   0.25000   0.00000  Uiso   1.00
C365   C     0.90781   0.53131   0.38097   0.00000  Uiso   1.00
H366   H     0.90450   0.55118   0.35069   0.00000  Uiso   1.00
O367   O     0.94264   0.51895   0.39202   0.00000  Uiso   1.00
C368   C     0.75885   0.46875   0.11902   0.00000  Uiso   1.00
H369   H     0.76214   0.44896   0.14936   0.00000  Uiso   1.00
O370   O     0.72403   0.48104   0.10789   0.00000  Uiso   1.00
F371   F     0.76853   0.46479   0.38251   0.00000  Uiso   1.00
F372   F     0.89816   0.53514   0.11749   0.00000  Uiso   1.00
C373   C     0.08664   0.83336   0.24992   0.00000  Uiso   1.00
C374   C     0.24669   0.83331   0.25008   0.00000  Uiso   1.00
C375   C     0.09869   0.79508   0.02121   0.00000  Uiso   1.00
C376   C     0.23469   0.87153   0.47879   0.00000  Uiso   1.00
C377   C     0.02141   0.79441   0.23633   0.00000  Uiso   1.00
C378   C     0.31192   0.87226   0.26367   0.00000  Uiso   1.00
C379   C     0.31205   0.79435   0.23650   0.00000  Uiso   1.00
C380   C     0.02129   0.87232   0.26350   0.00000  Uiso   1.00
C381   C     0.29083   0.83328   0.25013   0.00000  Uiso   1.00
C382   C     0.04250   0.83339   0.24987   0.00000  Uiso   1.00
C383   C     0.19360   0.69061   0.27658   0.00000  Uiso   1.00
C384   C     0.13973   0.97606   0.22342   0.00000  Uiso   1.00
C385   C     0.13973   0.69068   0.22341   0.00000  Uiso   1.00
C386   C     0.19360   0.97598   0.27658   0.00000  Uiso   1.00
C387   C     0.16589   0.83332   0.16359   0.00000  Uiso   1.00
C388   C     0.16745   0.83335   0.33641   0.00000  Uiso   1.00
C389   C     0.20361   0.85039   0.40685   0.00000  Uiso   1.00
C390   C     0.12974   0.81629   0.09314   0.00000  Uiso   1.00
C391   C     0.16864   0.83340   0.38407   0.00000  Uiso   1.00
C392   C     0.16470   0.83326   0.11593   0.00000  Uiso   1.00
C393   C     0.13458   0.81493   0.40629   0.00000  Uiso   1.00
C394   C     0.19878   0.85170   0.09371   0.00000  Uiso   1.00
C395   C     0.13390   0.81420   0.45252   0.00000  Uiso   1.00
C396   C     0.19947   0.85242   0.04748   0.00000  Uiso   1.00
C397   C     0.16746   0.83307   0.47657   0.00000  Uiso   1.00
C398   C     0.16590   0.83357   0.02343   0.00000  Uiso   1.00
C399   C     0.20248   0.85148   0.45387   0.00000  Uiso   1.00
C400   C     0.13088   0.81516   0.04613   0.00000  Uiso   1.00
C401   C     0.10003   0.79505   0.47495   0.00000  Uiso   1.00
C402   C     0.23335   0.87155   0.02505   0.00000  Uiso   1.00
H403   H     0.07447   0.77972   0.45679   0.00000  Uiso   1.00
H404   H     0.25892   0.88685   0.04321   0.00000  Uiso   1.00
H405   H     0.07246   0.77857   0.03693   0.00000  Uiso   1.00
H406   H     0.26094   0.88801   0.46307   0.00000  Uiso   1.00
H407   H     0.03782   0.76431   0.22531   0.00000  Uiso   1.00
H408   H     0.29551   0.90236   0.27469   0.00000  Uiso   1.00
H409   H     0.29574   0.76420   0.22561   0.00000  Uiso   1.00
H410   H     0.03759   0.90246   0.27439   0.00000  Uiso   1.00
H411   H     0.21513   0.70874   0.29784   0.00000  Uiso   1.00
H412   H     0.11820   0.95793   0.20216   0.00000  Uiso   1.00
H413   H     0.11820   0.70887   0.20216   0.00000  Uiso   1.00
H414   H     0.21514   0.95779   0.29784   0.00000  Uiso   1.00
N415   N     0.16667   0.95240   0.25000   0.00000  Uiso   1.00
N416   N     0.16667   0.71427   0.25000   0.00000  Uiso   1.00
O417   O     0.10559   0.87154   0.24999   0.00000  Uiso   1.00
O418   O     0.22774   0.79513   0.25000   0.00000  Uiso   1.00
O419   O     0.22774   0.87154   0.25000   0.00000  Uiso   1.00
O420   O     0.10559   0.79513   0.24999   0.00000  Uiso   1.00
O421   O     0.16666   0.87156   0.18392   0.00000  Uiso   1.00
O422   O     0.16667   0.79511   0.31607   0.00000  Uiso   1.00
O423   O     0.16667   0.87156   0.31607   0.00000  Uiso   1.00
O424   O     0.16666   0.79511   0.18392   0.00000  Uiso   1.00
Zn425  Zn    0.16667   0.88437   0.25000   0.00000  Uiso   1.00
Zn426  Zn    0.16667   0.78229   0.25000   0.00000  Uiso   1.00
C427   C     0.24115   0.86465   0.38097   0.00000  Uiso   1.00
H428   H     0.23784   0.88451   0.35069   0.00000  Uiso   1.00
O429   O     0.27597   0.85228   0.39202   0.00000  Uiso   1.00
C430   C     0.09218   0.80208   0.11902   0.00000  Uiso   1.00
H431   H     0.09547   0.78230   0.14936   0.00000  Uiso   1.00
O432   O     0.05736   0.81438   0.10789   0.00000  Uiso   1.00
F433   F     0.10187   0.79813   0.38251   0.00000  Uiso   1.00
F434   F     0.23150   0.86847   0.11749   0.00000  Uiso   1.00
C435   C     0.41998   0.83336   0.24992   0.00000  Uiso   1.00
C436   C     0.58002   0.83331   0.25008   0.00000  Uiso   1.00
C437   C     0.43202   0.79508   0.02121   0.00000  Uiso   1.00
C438   C     0.56803   0.87153   0.47879   0.00000  Uiso   1.00
C439   C     0.35475   0.79441   0.23633   0.00000  Uiso   1.00
C440   C     0.64525   0.87226   0.26367   0.00000  Uiso   1.00
C441   C     0.64538   0.79435   0.23650   0.00000  Uiso   1.00
C442   C     0.35462   0.87232   0.26350   0.00000  Uiso   1.00
C443   C     0.62416   0.83328   0.25013   0.00000  Uiso   1.00
C444   C     0.37584   0.83339   0.24987   0.00000  Uiso   1.00
C445   C     0.52693   0.69061   0.27658   0.00000  Uiso   1.00
C446   C     0.47307   0.97606   0.22342   0.00000  Uiso   1.00
C447   C     0.47307   0.69068   0.22341   0.00000  Uiso   1.00
C448   C     0.52693   0.97598   0.27658   0.00000  Uiso   1.00
C449   C     0.49922   0.83332   0.16359   0.00000  Uiso   1.00
C450   C     0.50078   0.83335   0.33641   0.00000  Uiso   1.00
C451   C     0.53694   0.85039   0.40685   0.00000  Uiso   1.00
C452   C     0.46307   0.81629   0.09314   0.00000  Uiso   1.00
C453   C     0.50197   0.83340   0.38407   0.00000  Uiso   1.00
C454   C     0.49803   0.83326   0.11593   0.00000  Uiso   1.00
C455   C     0.46791   0.81493   0.40629   0.00000  Uiso   1.00
C456   C     0.53211   0.85170   0.09371   0.00000  Uiso   1.00
C457   C     0.46723   0.81420   0.45252   0.00000  Uiso   1.00
C458   C     0.53280   0.85242   0.04748   0.00000  Uiso   1.00
C459   C     0.50080   0.83307   0.47657   0.00000  Uiso   1.00
C460   C     0.49923   0.83357   0.02343   0.00000  Uiso   1.00
C461   C     0.53582   0.85148   0.45387   0.00000  Uiso   1.00
C462   C     0.46421   0.81516   0.04613   0.00000  Uiso   1.00
C463   C     0.43337   0.79505   0.47495   0.00000  Uiso   1.00
C464   C     0.56668   0.87155   0.02505   0.00000  Uiso   1.00
H465   H     0.40781   0.77972   0.45679   0.00000  Uiso   1.00
H466   H     0.59225   0.88685   0.04321   0.00000  Uiso   1.00
H467   H     0.40579   0.77857   0.03693   0.00000  Uiso   1.00
H468   H     0.59427   0.88801   0.46307   0.00000  Uiso   1.00
H469   H     0.37116   0.76431   0.22531   0.00000  Uiso   1.00
H470   H     0.62884   0.90236   0.27469   0.00000  Uiso   1.00
H471   H     0.62908   0.76420   0.22561   0.00000  Uiso   1.00
H472   H     0.37092   0.90246   0.27439   0.00000  Uiso   1.00
H473   H     0.54847   0.70874   0.29784   0.00000  Uiso   1.00
H474   H     0.45153   0.95793   0.20216   0.00000  Uiso   1.00
H475   H     0.45153   0.70887   0.20216   0.00000  Uiso   1.00
H476   H     0.54847   0.95779   0.29784   0.00000  Uiso   1.00
N477   N     0.50000   0.95240   0.25000   0.00000  Uiso   1.00
N478   N     0.50000   0.71427   0.25000   0.00000  Uiso   1.00
O479   O     0.43892   0.87154   0.24999   0.00000  Uiso   1.00
O480   O     0.56108   0.79513   0.25000   0.00000  Uiso   1.00
O481   O     0.56108   0.87154   0.25000   0.00000  Uiso   1.00
O482   O     0.43892   0.79513   0.24999   0.00000  Uiso   1.00
O483   O     0.49999   0.87156   0.18392   0.00000  Uiso   1.00
O484   O     0.50001   0.79511   0.31607   0.00000  Uiso   1.00
O485   O     0.50001   0.87156   0.31607   0.00000  Uiso   1.00
O486   O     0.49999   0.79511   0.18392   0.00000  Uiso   1.00
Zn487  Zn    0.50000   0.88437   0.25000   0.00000  Uiso   1.00
Zn488  Zn    0.50000   0.78229   0.25000   0.00000  Uiso   1.00
C489   C     0.57448   0.86465   0.38097   0.00000  Uiso   1.00
H490   H     0.57117   0.88451   0.35069   0.00000  Uiso   1.00
O491   O     0.60930   0.85228   0.39202   0.00000  Uiso   1.00
C492   C     0.42551   0.80208   0.11902   0.00000  Uiso   1.00
H493   H     0.42880   0.78230   0.14936   0.00000  Uiso   1.00
O494   O     0.39069   0.81438   0.10789   0.00000  Uiso   1.00
F495   F     0.43520   0.79813   0.38251   0.00000  Uiso   1.00
F496   F     0.56483   0.86847   0.11749   0.00000  Uiso   1.00
C497   C     0.75331   0.83336   0.24992   0.00000  Uiso   1.00
C498   C     0.91336   0.83331   0.25008   0.00000  Uiso   1.00
C499   C     0.76535   0.79508   0.02121   0.00000  Uiso   1.00
C500   C     0.90136   0.87153   0.47879   0.00000  Uiso   1.00
C501   C     0.68808   0.79441   0.23633   0.00000  Uiso   1.00
C502   C     0.97859   0.87226   0.26367   0.00000  Uiso   1.00
C503   C     0.97871   0.79435   0.23650   0.00000  Uiso   1.00
C504   C     0.68795   0.87232   0.26350   0.00000  Uiso   1.00
C505   C     0.95750   0.83328   0.25013   0.00000  Uiso   1.00
C506   C     0.70917   0.83339   0.24987   0.00000  Uiso   1.00
C507   C     0.86027   0.69061   0.27658   0.00000  Uiso   1.00
C508   C     0.80640   0.97606   0.22342   0.00000  Uiso   1.00
C509   C     0.80640   0.69068   0.22341   0.00000  Uiso   1.00
C510   C     0.86027   0.97598   0.27658   0.00000  Uiso   1.00
C511   C     0.83256   0.83332   0.16359   0.00000  Uiso   1.00
C512   C     0.83411   0.83335   0.33641   0.00000  Uiso   1.00
C513   C     0.87027   0.85039   0.40685   0.00000  Uiso   1.00
C514   C     0.79640   0.81629   0.09314   0.00000  Uiso   1.00
C515   C     0.83531   0.83340   0.38407   0.00000  Uiso   1.00
C516   C     0.83137   0.83326   0.11593   0.00000  Uiso   1.00
C517   C     0.80124   0.81493   0.40629   0.00000  Uiso   1.00
C518   C     0.86545   0.85170   0.09371   0.00000  Uiso   1.00
C519   C     0.80056   0.81420   0.45252   0.00000  Uiso   1.00
C520   C     0.86613   0.85242   0.04748   0.00000  Uiso   1.00
C521   C     0.83413   0.83307   0.47657   0.00000  Uiso   1.00
C522   C     0.83257   0.83357   0.02343   0.00000  Uiso   1.00
C523   C     0.86915   0.85148   0.45387   0.00000  Uiso   1.00
C524   C     0.79754   0.81516   0.04613   0.00000  Uiso   1.00
C525   C     0.76670   0.79505   0.47495   0.00000  Uiso   1.00
C526   C     0.90002   0.87155   0.02505   0.00000  Uiso   1.00
H527   H     0.74114   0.77972   0.45679   0.00000  Uiso   1.00
H528   H     0.92559   0.88685   0.04321   0.00000  Uiso   1.00
H529   H     0.73913   0.77857   0.03693   0.00000  Uiso   1.00
H530   H     0.92761   0.88801   0.46307   0.00000  Uiso   1.00
H531   H     0.70449   0.76431   0.22531   0.00000  Uiso   1.00
H532   H     0.96218   0.90236   0.27469   0.00000  Uiso   1.00
H533   H     0.96241   0.76420   0.22561   0.00000  Uiso   1.00
H534   H     0.70426   0.90246   0.27439   0.00000  Uiso   1.00
H535   H     0.88180   0.70874   0.29784   0.00000  Uiso   1.00
H536   H     0.78487   0.95793   0.20216   0.00000  Uiso   1.00
H537   H     0.78486   0.70887   0.20216   0.00000  Uiso   1.00
H538   H     0.88181   0.95779   0.29784   0.00000  Uiso   1.00
N539   N     0.83333   0.95240   0.25000   0.00000  Uiso   1.00
N540   N     0.83333   0.71427   0.25000   0.00000  Uiso   1.00
O541   O     0.77226   0.87154   0.24999   0.00000  Uiso   1.00
O542   O     0.89441   0.79513   0.25000   0.00000  Uiso   1.00
O543   O     0.89441   0.87154   0.25000   0.00000  Uiso   1.00
O544   O     0.77226   0.79513   0.24999   0.00000  Uiso   1.00
O545   O     0.83333   0.87156   0.18392   0.00000  Uiso   1.00
O546   O     0.83334   0.79511   0.31607   0.00000  Uiso   1.00
O547   O     0.83334   0.87156   0.31607   0.00000  Uiso   1.00
O548   O     0.83333   0.79511   0.18392   0.00000  Uiso   1.00
Zn549  Zn    0.83333   0.88437   0.25000   0.00000  Uiso   1.00
Zn550  Zn    0.83333   0.78229   0.25000   0.00000  Uiso   1.00
C551   C     0.90781   0.86465   0.38097   0.00000  Uiso   1.00
H552   H     0.90450   0.88451   0.35069   0.00000  Uiso   1.00
O553   O     0.94264   0.85228   0.39202   0.00000  Uiso   1.00
C554   C     0.75885   0.80208   0.11902   0.00000  Uiso   1.00
H555   H     0.76214   0.78230   0.14936   0.00000  Uiso   1.00
O556   O     0.72403   0.81438   0.10789   0.00000  Uiso   1.00
F557   F     0.76853   0.79813   0.38251   0.00000  Uiso   1.00
F558   F     0.89816   0.86847   0.11749   0.00000  Uiso   1.00
C559   C     0.08664   0.16669   0.74992   0.00000  Uiso   1.00
C560   C     0.24669   0.16664   0.75008   0.00000  Uiso   1.00
C561   C     0.09869   0.12841   0.52121   0.00000  Uiso   1.00
C562   C     0.23469   0.20486   0.97879   0.00000  Uiso   1.00
C563   C     0.02141   0.12774   0.73633   0.00000  Uiso   1.00
C564   C     0.31192   0.20559   0.76367   0.00000  Uiso   1.00
C565   C     0.31205   0.12768   0.73650   0.00000  Uiso   1.00
C566   C     0.02129   0.20565   0.76350   0.00000  Uiso   1.00
C567   C     0.29083   0.16661   0.75013   0.00000  Uiso   1.00
C568   C     0.04250   0.16672   0.74987   0.00000  Uiso   1.00
C569   C     0.19360   0.02394   0.77658   0.00000  Uiso   1.00
C570   C     0.13973   0.30939   0.72342   0.00000  Uiso   1.00
C571   C     0.13973   0.02402   0.72341   0.00000  Uiso   1.00
C572   C     0.19360   0.30932   0.77658   0.00000  Uiso   1.00
C573   C     0.16589   0.16665   0.66359   0.00000  Uiso   1.00
C574   C     0.16745   0.16668   0.83641   0.00000  Uiso   1.00
C575   C     0.20361   0.18372   0.90685   0.00000  Uiso   1.00
C576   C     0.12974   0.14962   0.59314   0.00000  Uiso   1.00
C577   C     0.16864   0.16674   0.88407   0.00000  Uiso   1.00
C578   C     0.16470   0.16659   0.61593   0.00000  Uiso   1.00
C579   C     0.13458   0.14826   0.90629   0.00000  Uiso   1.00
C580   C     0.19878   0.18503   0.59371   0.00000  Uiso   1.00
C581   C     0.13390   0.14754   0.95252   0.00000  Uiso   1.00
C582   C     0.19947   0.18575   0.54748   0.00000  Uiso   1.00
C583   C     0.16746   0.16640   0.97657   0.00000  Uiso   1.00
C584   C     0.16590   0.16690   0.52343   0.00000  Uiso   1.00
C585   C     0.20248   0.18482   0.95387   0.00000  Uiso   1.00
C586   C     0.13088   0.14849   0.54613   0.00000  Uiso   1.00
C587   C     0.10003   0.12838   0.97495   0.00000  Uiso   1.00
C588   C     0.23335   0.20488   0.52505   0.00000  Uiso   1.00
H589   H     0.07447   0.11306   0.95679   0.00000  Uiso   1.00
H590   H     0.25892   0.22018   0.54321   0.00000  Uiso   1.00
H591   H     0.07246   0.11191   0.53693   0.00000  Uiso   1.00
H592   H     0.26094   0.22134   0.96307   0.00000  Uiso   1.00
H593   H     0.03782   0.09764   0.72531   0.00000  Uiso   1.00
H594   H     0.29551   0.23569   0.77469   0.00000  Uiso   1.00
H595   H     0.29574   0.09754   0.72561   0.00000  Uiso   1.00
H596   H     0.03759   0.23580   0.77439   0.00000  Uiso   1.00
H597   H     0.21513   0.04207   0.79784   0.00000  Uiso   1.00
H598   H     0.11820   0.29126   0.70216   0.00000  Uiso   1.00
H599   H     0.11820   0.04221   0.70216   0.00000  Uiso   1.00
H600   H     0.21514   0.29113   0.79784   0.00000  Uiso   1.00
N601   N     0.16667   0.28573   0.75000   0.00000  Uiso   1.00
N602   N     0.16667   0.04760   0.75000   0.00000  Uiso   1.00
O603   O     0.10559   0.20487   0.74999   0.00000  Uiso   1.00
O604   O     0.22774   0.12846   0.75000   0.00000  Uiso   1.00
O605   O     0.22774   0.20487   0.75000   0.00000  Uiso   1.00
O606   O     0.10559   0.12846   0.74999   0.00000  Uiso   1.00
O607   O     0.16666   0.20489   0.68392   0.00000  Uiso   1.00
O608   O     0.16667   0.12844   0.81607   0.00000  Uiso   1.00
O609   O     0.16667   0.20489   0.81607   0.00000  Uiso   1.00
O610   O     0.16666   0.12844   0.68392   0.00000  Uiso   1.00
Zn611  Zn    0.16667   0.21771   0.75000   0.00000  Uiso   1.00
Zn612  Zn    0.16667   0.11563   0.75000   0.00000  Uiso   1.00
C613   C     0.24115   0.19798   0.88097   0.00000  Uiso   1.00
H614   H     0.23784   0.21785   0.85069   0.00000  Uiso   1.00
O615   O     0.27597   0.18562   0.89202   0.00000  Uiso   1.00
C616   C     0.09218   0.13541   0.61902   0.00000  Uiso   1.00
H617   H     0.09547   0.11563   0.64936   0.00000  Uiso   1.00
O618   O     0.05736   0.14771   0.60789   0.00000  Uiso   1.00
F619   F     0.10187   0.13146   0.88251   0.00000  Uiso   1.00
F620   F     0.23150   0.20181   0.61749   0.00000  Uiso   1.00
C621   C     0.41998   0.16669   0.74992   0.00000  Uiso   1.00
C622   C     0.58002   0.16664   0.75008   0.00000  Uiso   1.00
C623   C     0.43202   0.12841   0.52121   0.00000  Uiso   1.00
C624   C     0.56803   0.20486   0.97879   0.00000  Uiso   1.00
C625   C     0.35475   0.12774   0.73633   0.00000  Uiso   1.00
C626   C     0.64525   0.20559   0.76367   0.00000  Uiso   1.00
C627   C     0.64538   0.12768   0.73650   0.00000  Uiso   1.00
C628   C     0.35462   0.20565   0.76350   0.00000  Uiso   1.00
C629   C     0.62416   0.16661   0.75013   0.00000  Uiso   1.00
C630   C     0.37584   0.16672   0.74987   0.00000  Uiso   1.00
C631   C     0.52693   0.02394   0.77658   0.00000  Uiso   1.00
C632   C     0.47307   0.30939   0.72342   0.00000  Uiso   1.00
C633   C     0.47307   0.02402   0.72341   0.00000  Uiso   1.00
C634   C     0.52693   0.30932   0.77658   0.00000  Uiso   1.00
C635   C     0.49922   0.16665   0.66359   0.00000  Uiso   1.00
C636   C     0.50078   0.16668   0.83641   0.00000  Uiso   1.00
C637   C     0.53694   0.18372   0.90685   0.00000  Uiso   1.00
C638   C     0.46307   0.14962   0.59314   0.00000  Uiso   1.00
C639   C     0.50197   0.16674   0.88407   0.00000  Uiso   1.00
C640   C     0.49803   0.16659   0.61593   0.00000  Uiso   1.00
C641   C     0.46791   0.14826   0.90629   0.00000  Uiso   1.00
C642   C     0.53211   0.18503   0.59371   0.00000  Uiso   1.00
C643   C     0.46723   0.14754   0.95252   0.00000  Uiso   1.00
C644   C     0.53280   0.18575   0.54748   0.00000  Uiso   1.00
C645   C     0.50080   0.16640   0.97657   0.00000  Uiso   1.00
C646   C     0.49923   0.16690   0.52343   0.00000  Uiso   1.00
C647   C     0.53582   0.18482   0.95387   0.00000  Uiso   1.00
C648   C     0.46421   0.14849   0.54613   0.00000  Uiso   1.00
C649   C     0.43337   0.12838   0.97495   0.00000  Uiso   1.00
C650   C     0.56668   0.20488   0.52505   0.00000  Uiso   1.00
H651   H     0.40781   0.11306   0.95679   0.00000  Uiso   1.00
H652   H     0.59225   0.22018   0.54321   0.00000  Uiso   1.00
H653   H     0.40579   0.11191   0.53693   0.00000  Uiso   1.00
H654   H     0.59427   0.22134   0.96307   0.00000  Uiso   1.00
H655   H     0.37116   0.09764   0.72531   0.00000  Uiso   1.00
H656   H     0.62884   0.23569   0.77469   0.00000  Uiso   1.00
H657   H     0.62908   0.09754   0.72561   0.00000  Uiso   1.00
H658   H     0.37092   0.23580   0.77439   0.00000  Uiso   1.00
H659   H     0.54847   0.04207   0.79784   0.00000  Uiso   1.00
H660   H     0.45153   0.29126   0.70216   0.00000  Uiso   1.00
H661   H     0.45153   0.04221   0.70216   0.00000  Uiso   1.00
H662   H     0.54847   0.29113   0.79784   0.00000  Uiso   1.00
N663   N     0.50000   0.28573   0.75000   0.00000  Uiso   1.00
N664   N     0.50000   0.04760   0.75000   0.00000  Uiso   1.00
O665   O     0.43892   0.20487   0.74999   0.00000  Uiso   1.00
O666   O     0.56108   0.12846   0.75000   0.00000  Uiso   1.00
O667   O     0.56108   0.20487   0.75000   0.00000  Uiso   1.00
O668   O     0.43892   0.12846   0.74999   0.00000  Uiso   1.00
O669   O     0.49999   0.20489   0.68392   0.00000  Uiso   1.00
O670   O     0.50001   0.12844   0.81607   0.00000  Uiso   1.00
O671   O     0.50001   0.20489   0.81607   0.00000  Uiso   1.00
O672   O     0.49999   0.12844   0.68392   0.00000  Uiso   1.00
Zn673  Zn    0.50000   0.21771   0.75000   0.00000  Uiso   1.00
Zn674  Zn    0.50000   0.11563   0.75000   0.00000  Uiso   1.00
C675   C     0.57448   0.19798   0.88097   0.00000  Uiso   1.00
H676   H     0.57117   0.21785   0.85069   0.00000  Uiso   1.00
O677   O     0.60930   0.18562   0.89202   0.00000  Uiso   1.00
C678   C     0.42551   0.13541   0.61902   0.00000  Uiso   1.00
H679   H     0.42880   0.11563   0.64936   0.00000  Uiso   1.00
O680   O     0.39069   0.14771   0.60789   0.00000  Uiso   1.00
F681   F     0.43520   0.13146   0.88251   0.00000  Uiso   1.00
F682   F     0.56483   0.20181   0.61749   0.00000  Uiso   1.00
C683   C     0.75331   0.16669   0.74992   0.00000  Uiso   1.00
C684   C     0.91336   0.16664   0.75008   0.00000  Uiso   1.00
C685   C     0.76535   0.12841   0.52121   0.00000  Uiso   1.00
C686   C     0.90136   0.20486   0.97879   0.00000  Uiso   1.00
C687   C     0.68808   0.12774   0.73633   0.00000  Uiso   1.00
C688   C     0.97859   0.20559   0.76367   0.00000  Uiso   1.00
C689   C     0.97871   0.12768   0.73650   0.00000  Uiso   1.00
C690   C     0.68795   0.20565   0.76350   0.00000  Uiso   1.00
C691   C     0.95750   0.16661   0.75013   0.00000  Uiso   1.00
C692   C     0.70917   0.16672   0.74987   0.00000  Uiso   1.00
C693   C     0.86027   0.02394   0.77658   0.00000  Uiso   1.00
C694   C     0.80640   0.30939   0.72342   0.00000  Uiso   1.00
C695   C     0.80640   0.02402   0.72341   0.00000  Uiso   1.00
C696   C     0.86027   0.30932   0.77658   0.00000  Uiso   1.00
C697   C     0.83256   0.16665   0.66359   0.00000  Uiso   1.00
C698   C     0.83411   0.16668   0.83641   0.00000  Uiso   1.00
C699   C     0.87027   0.18372   0.90685   0.00000  Uiso   1.00
C700   C     0.79640   0.14962   0.59314   0.00000  Uiso   1.00
C701   C     0.83531   0.16674   0.88407   0.00000  Uiso   1.00
C702   C     0.83137   0.16659   0.61593   0.00000  Uiso   1.00
C703   C     0.80124   0.14826   0.90629   0.00000  Uiso   1.00
C704   C     0.86545   0.18503   0.59371   0.00000  Uiso   1.00
C705   C     0.80056   0.14754   0.95252   0.00000  Uiso   1.00
C706   C     0.86613   0.18575   0.54748   0.00000  Uiso   1.00
C707   C     0.83413   0.16640   0.97657   0.00000  Uiso   1.00
C708   C     0.83257   0.16690   0.52343   0.00000  Uiso   1.00
C709   C     0.86915   0.18482   0.95387   0.00000  Uiso   1.00
C710   C     0.79754   0.14849   0.54613   0.00000  Uiso   1.00
C711   C     0.76670   0.12838   0.97495   0.00000  Uiso   1.00
C712   C     0.90002   0.20488   0.52505   0.00000  Uiso   1.00
H713   H     0.74114   0.11306   0.95679   0.00000  Uiso   1.00
H714   H     0.92559   0.22018   0.54321   0.00000  Uiso   1.00
H715   H     0.73913   0.11191   0.53693   0.00000  Uiso   1.00
H716   H     0.92761   0.22134   0.96307   0.00000  Uiso   1.00
H717   H     0.70449   0.09764   0.72531   0.00000  Uiso   1.00
H718   H     0.96218   0.23569   0.77469   0.00000  Uiso   1.00
H719   H     0.96241   0.09754   0.72561   0.00000  Uiso   1.00
H720   H     0.70426   0.23580   0.77439   0.00000  Uiso   1.00
H721   H     0.88180   0.04207   0.79784   0.00000  Uiso   1.00
H722   H     0.78487   0.29126   0.70216   0.00000  Uiso   1.00
H723   H     0.78486   0.04221   0.70216   0.00000  Uiso   1.00
H724   H     0.88181   0.29113   0.79784   0.00000  Uiso   1.00
N725   N     0.83333   0.28573   0.75000   0.00000  Uiso   1.00
N726   N     0.83333   0.04760   0.75000   0.00000  Uiso   1.00
O727   O     0.77226   0.20487   0.74999   0.00000  Uiso   1.00
O728   O     0.89441   0.12846   0.75000   0.00000  Uiso   1.00
O729   O     0.89441   0.20487   0.75000   0.00000  Uiso   1.00
O730   O     0.77226   0.12846   0.74999   0.00000  Uiso   1.00
O731   O     0.83333   0.20489   0.68392   0.00000  Uiso   1.00
O732   O     0.83334   0.12844   0.81607   0.00000  Uiso   1.00
O733   O     0.83334   0.20489   0.81607   0.00000  Uiso   1.00
O734   O     0.83333   0.12844   0.68392   0.00000  Uiso   1.00
Zn735  Zn    0.83333   0.21771   0.75000   0.00000  Uiso   1.00
Zn736  Zn    0.83333   0.11563   0.75000   0.00000  Uiso   1.00
C737   C     0.90781   0.19798   0.88097   0.00000  Uiso   1.00
H738   H     0.90450   0.21785   0.85069   0.00000  Uiso   1.00
O739   O     0.94264   0.18562   0.89202   0.00000  Uiso   1.00
C740   C     0.75885   0.13541   0.61902   0.00000  Uiso   1.00
H741   H     0.76214   0.11563   0.64936   0.00000  Uiso   1.00
O742   O     0.72403   0.14771   0.60789   0.00000  Uiso   1.00
F743   F     0.76853   0.13146   0.88251   0.00000  Uiso   1.00
F744   F     0.89816   0.20181   0.61749   0.00000  Uiso   1.00
C745   C     0.08664   0.50002   0.74992   0.00000  Uiso   1.00
C746   C     0.24669   0.49998   0.75008   0.00000  Uiso   1.00
C747   C     0.09869   0.46175   0.52121   0.00000  Uiso   1.00
C748   C     0.23469   0.53819   0.97879   0.00000  Uiso   1.00
C749   C     0.02141   0.46108   0.73633   0.00000  Uiso   1.00
C750   C     0.31192   0.53892   0.76367   0.00000  Uiso   1.00
C751   C     0.31205   0.46101   0.73650   0.00000  Uiso   1.00
C752   C     0.02129   0.53899   0.76350   0.00000  Uiso   1.00
C753   C     0.29083   0.49995   0.75013   0.00000  Uiso   1.00
C754   C     0.04250   0.50005   0.74987   0.00000  Uiso   1.00
C755   C     0.19360   0.35727   0.77658   0.00000  Uiso   1.00
C756   C     0.13973   0.64273   0.72342   0.00000  Uiso   1.00
C757   C     0.13973   0.35735   0.72341   0.00000  Uiso   1.00
C758   C     0.19360   0.64265   0.77658   0.00000  Uiso   1.00
C759   C     0.16589   0.49998   0.66359   0.00000  Uiso   1.00
C760   C     0.16745   0.50002   0.83641   0.00000  Uiso   1.00
C761   C     0.20361   0.51706   0.90685   0.00000  Uiso   1.00
C762   C     0.12974   0.48295   0.59314   0.00000  Uiso   1.00
C763   C     0.16864   0.50007   0.88407   0.00000  Uiso   1.00
C764   C     0.16470   0.49993   0.61593   0.00000  Uiso   1.00
C765   C     0.13458   0.48160   0.90629   0.00000  Uiso   1.00
C766   C     0.19878   0.51837   0.59371   0.00000  Uiso   1.00
C767   C     0.13390   0.48087   0.95252   0.00000  Uiso   1.00
C768   C     0.19947   0.51909   0.54748   0.00000  Uiso   1.00
C769   C     0.16746   0.49973   0.97657   0.00000  Uiso   1.00
C770   C     0.16590   0.50024   0.52343   0.00000  Uiso   1.00
C771   C     0.20248   0.51815   0.95387   0.00000  Uiso   1.00
C772   C     0.13088   0.48183   0.54613   0.00000  Uiso   1.00
C773   C     0.10003   0.46172   0.97495   0.00000  Uiso   1.00
C774   C     0.23335   0.53822   0.52505   0.00000  Uiso   1.00
H775   H     0.07447   0.44639   0.95679   0.00000  Uiso   1.00
H776   H     0.25892   0.55352   0.54321   0.00000  Uiso   1.00
H777   H     0.07246   0.44524   0.53693   0.00000  Uiso   1.00
H778   H     0.26094   0.55467   0.96307   0.00000  Uiso   1.00
H779   H     0.03782   0.43098   0.72531   0.00000  Uiso   1.00
H780   H     0.29551   0.56902   0.77469   0.00000  Uiso   1.00
H781   H     0.29574   0.43087   0.72561   0.00000  Uiso   1.00
H782   H     0.03759   0.56913   0.77439   0.00000  Uiso   1.00
H783   H     0.21513   0.37541   0.79784   0.00000  Uiso   1.00
H784   H     0.11820   0.62459   0.70216   0.00000  Uiso   1.00
H785   H     0.11820   0.37554   0.70216   0.00000  Uiso   1.00
H786   H     0.21514   0.62446   0.79784   0.00000  Uiso   1.00
N787   N     0.16667   0.61907   0.75000   0.00000  Uiso   1.00
N788   N     0.16667   0.38093   0.75000   0.00000  Uiso   1.00
O789   O     0.10559   0.53821   0.74999   0.00000  Uiso   1.00
O790   O     0.22774   0.46179   0.75000   0.00000  Uiso   1.00
O791   O     0.22774   0.53821   0.75000   0.00000  Uiso   1.00
O792   O     0.10559   0.46179   0.74999   0.00000  Uiso   1.00
O793   O     0.16666   0.53823   0.68392   0.00000  Uiso   1.00
O794   O     0.16667   0.46177   0.81607   0.00000  Uiso   1.00
O795   O     0.16667   0.53823   0.81607   0.00000  Uiso   1.00
O796   O     0.16666   0.46177   0.68392   0.00000  Uiso   1.00
Zn797  Zn    0.16667   0.55104   0.75000   0.00000  Uiso   1.00
Zn798  Zn    0.16667   0.44896   0.75000   0.00000  Uiso   1.00
C799   C     0.24115   0.53131   0.88097   0.00000  Uiso   1.00
H800   H     0.23784   0.55118   0.85069   0.00000  Uiso   1.00
O801   O     0.27597   0.51895   0.89202   0.00000  Uiso   1.00
C802   C     0.09218   0.46875   0.61902   0.00000  Uiso   1.00
H803   H     0.09547   0.44896   0.64936   0.00000  Uiso   1.00
O804   O     0.05736   0.48104   0.60789   0.00000  Uiso   1.00
F805   F     0.10187   0.46479   0.88251   0.00000  Uiso   1.00
F806   F     0.23150   0.53514   0.61749   0.00000  Uiso   1.00
C807   C     0.41998   0.50002   0.74992   0.00000  Uiso   1.00
C808   C     0.58002   0.49998   0.75008   0.00000  Uiso   1.00
C809   C     0.43202   0.46175   0.52121   0.00000  Uiso   1.00
C810   C     0.56803   0.53819   0.97879   0.00000  Uiso   1.00
C811   C     0.35475   0.46108   0.73633   0.00000  Uiso   1.00
C812   C     0.64525   0.53892   0.76367   0.00000  Uiso   1.00
C813   C     0.64538   0.46101   0.73650   0.00000  Uiso   1.00
C814   C     0.35462   0.53899   0.76350   0.00000  Uiso   1.00
C815   C     0.62416   0.49995   0.75013   0.00000  Uiso   1.00
C816   C     0.37584   0.50005   0.74987   0.00000  Uiso   1.00
C817   C     0.52693   0.35727   0.77658   0.00000  Uiso   1.00
C818   C     0.47307   0.64273   0.72342   0.00000  Uiso   1.00
C819   C     0.47307   0.35735   0.72341   0.00000  Uiso   1.00
C820   C     0.52693   0.64265   0.77658   0.00000  Uiso   1.00
C821   C     0.49922   0.49998   0.66359   0.00000  Uiso   1.00
C822   C     0.50078   0.50002   0.83641   0.00000  Uiso   1.00
C823   C     0.53694   0.51706   0.90685   0.00000  Uiso   1.00
C824   C     0.46307   0.48295   0.59314   0.00000  Uiso   1.00
C825   C     0.50197   0.50007   0.88407   0.00000  Uiso   1.00
C826   C     0.49803   0.49993   0.61593   0.00000  Uiso   1.00
C827   C     0.46791   0.48160   0.90629   0.00000  Uiso   1.00
C828   C     0.53211   0.51837   0.59371   0.00000  Uiso   1.00
C829   C     0.46723   0.48087   0.95252   0.00000  Uiso   1.00
C830   C     0.53280   0.51909   0.54748   0.00000  Uiso   1.00
C831   C     0.50080   0.49973   0.97657   0.00000  Uiso   1.00
C832   C     0.49923   0.50024   0.52343   0.00000  Uiso   1.00
C833   C     0.53582   0.51815   0.95387   0.00000  Uiso   1.00
C834   C     0.46421   0.48183   0.54613   0.00000  Uiso   1.00
C835   C     0.43337   0.46172   0.97495   0.00000  Uiso   1.00
C836   C     0.56668   0.53822   0.52505   0.00000  Uiso   1.00
H837   H     0.40781   0.44639   0.95679   0.00000  Uiso   1.00
H838   H     0.59225   0.55352   0.54321   0.00000  Uiso   1.00
H839   H     0.40579   0.44524   0.53693   0.00000  Uiso   1.00
H840   H     0.59427   0.55467   0.96307   0.00000  Uiso   1.00
H841   H     0.37116   0.43098   0.72531   0.00000  Uiso   1.00
H842   H     0.62884   0.56902   0.77469   0.00000  Uiso   1.00
H843   H     0.62908   0.43087   0.72561   0.00000  Uiso   1.00
H844   H     0.37092   0.56913   0.77439   0.00000  Uiso   1.00
H845   H     0.54847   0.37541   0.79784   0.00000  Uiso   1.00
H846   H     0.45153   0.62459   0.70216   0.00000  Uiso   1.00
H847   H     0.45153   0.37554   0.70216   0.00000  Uiso   1.00
H848   H     0.54847   0.62446   0.79784   0.00000  Uiso   1.00
N849   N     0.50000   0.61907   0.75000   0.00000  Uiso   1.00
N850   N     0.50000   0.38093   0.75000   0.00000  Uiso   1.00
O851   O     0.43892   0.53821   0.74999   0.00000  Uiso   1.00
O852   O     0.56108   0.46179   0.75000   0.00000  Uiso   1.00
O853   O     0.56108   0.53821   0.75000   0.00000  Uiso   1.00
O854   O     0.43892   0.46179   0.74999   0.00000  Uiso   1.00
O855   O     0.49999   0.53823   0.68392   0.00000  Uiso   1.00
O856   O     0.50001   0.46177   0.81607   0.00000  Uiso   1.00
O857   O     0.50001   0.53823   0.81607   0.00000  Uiso   1.00
O858   O     0.49999   0.46177   0.68392   0.00000  Uiso   1.00
Zn859  Zn    0.50000   0.55104   0.75000   0.00000  Uiso   1.00
Zn860  Zn    0.50000   0.44896   0.75000   0.00000  Uiso   1.00
C861   C     0.57448   0.53131   0.88097   0.00000  Uiso   1.00
H862   H     0.57117   0.55118   0.85069   0.00000  Uiso   1.00
O863   O     0.60930   0.51895   0.89202   0.00000  Uiso   1.00
C864   C     0.42551   0.46875   0.61902   0.00000  Uiso   1.00
H865   H     0.42880   0.44896   0.64936   0.00000  Uiso   1.00
O866   O     0.39069   0.48104   0.60789   0.00000  Uiso   1.00
F867   F     0.43520   0.46479   0.88251   0.00000  Uiso   1.00
F868   F     0.56483   0.53514   0.61749   0.00000  Uiso   1.00
C869   C     0.75331   0.50002   0.74992   0.00000  Uiso   1.00
C870   C     0.91336   0.49998   0.75008   0.00000  Uiso   1.00
C871   C     0.76535   0.46175   0.52121   0.00000  Uiso   1.00
C872   C     0.90136   0.53819   0.97879   0.00000  Uiso   1.00
C873   C     0.68808   0.46108   0.73633   0.00000  Uiso   1.00
C874   C     0.97859   0.53892   0.76367   0.00000  Uiso   1.00
C875   C     0.97871   0.46101   0.73650   0.00000  Uiso   1.00
C876   C     0.68795   0.53899   0.76350   0.00000  Uiso   1.00
C877   C     0.95750   0.49995   0.75013   0.00000  Uiso   1.00
C878   C     0.70917   0.50005   0.74987   0.00000  Uiso   1.00
C879   C     0.86027   0.35727   0.77658   0.00000  Uiso   1.00
C880   C     0.80640   0.64273   0.72342   0.00000  Uiso   1.00
C881   C     0.80640   0.35735   0.72341   0.00000  Uiso   1.00
C882   C     0.86027   0.64265   0.77658   0.00000  Uiso   1.00
C883   C     0.83256   0.49998   0.66359   0.00000  Uiso   1.00
C884   C     0.83411   0.50002   0.83641   0.00000  Uiso   1.00
C885   C     0.87027   0.51706   0.90685   0.00000  Uiso   1.00
C886   C     0.79640   0.48295   0.59314   0.00000  Uiso   1.00
C887   C     0.83531   0.50007   0.88407   0.00000  Uiso   1.00
C888   C     0.83137   0.49993   0.61593   0.00000  Uiso   1.00
C889   C     0.80124   0.48160   0.90629   0.00000  Uiso   1.00
C890   C     0.86545   0.51837   0.59371   0.00000  Uiso   1.00
C891   C     0.80056   0.48087   0.95252   0.00000  Uiso   1.00
C892   C     0.86613   0.51909   0.54748   0.00000  Uiso   1.00
C893   C     0.83413   0.49973   0.97657   0.00000  Uiso   1.00
C894   C     0.83257   0.50024   0.52343   0.00000  Uiso   1.00
C895   C     0.86915   0.51815   0.95387   0.00000  Uiso   1.00
C896   C     0.79754   0.48183   0.54613   0.00000  Uiso   1.00
C897   C     0.76670   0.46172   0.97495   0.00000  Uiso   1.00
C898   C     0.90002   0.53822   0.52505   0.00000  Uiso   1.00
H899   H     0.74114   0.44639   0.95679   0.00000  Uiso   1.00
H900   H     0.92559   0.55352   0.54321   0.00000  Uiso   1.00
H901   H     0.73913   0.44524   0.53693   0.00000  Uiso   1.00
H902   H     0.92761   0.55467   0.96307   0.00000  Uiso   1.00
H903   H     0.70449   0.43098   0.72531   0.00000  Uiso   1.00
H904   H     0.96218   0.56902   0.77469   0.00000  Uiso   1.00
H905   H     0.96241   0.43087   0.72561   0.00000  Uiso   1.00
H906   H     0.70426   0.56913   0.77439   0.00000  Uiso   1.00
H907   H     0.88180   0.37541   0.79784   0.00000  Uiso   1.00
H908   H     0.78487   0.62459   0.70216   0.00000  Uiso   1.00
H909   H     0.78486   0.37554   0.70216   0.00000  Uiso   1.00
H910   H     0.88181   0.62446   0.79784   0.00000  Uiso   1.00
N911   N     0.83333   0.61907   0.75000   0.00000  Uiso   1.00
N912   N     0.83333   0.38093   0.75000   0.00000  Uiso   1.00
O913   O     0.77226   0.53821   0.74999   0.00000  Uiso   1.00
O914   O     0.89441   0.46179   0.75000   0.00000  Uiso   1.00
O915   O     0.89441   0.53821   0.75000   0.00000  Uiso   1.00
O916   O     0.77226   0.46179   0.74999   0.00000  Uiso   1.00
O917   O     0.83333   0.53823   0.68392   0.00000  Uiso   1.00
O918   O     0.83334   0.46177   0.81607   0.00000  Uiso   1.00
O919   O     0.83334   0.53823   0.81607   0.00000  Uiso   1.00
O920   O     0.83333   0.46177   0.68392   0.00000  Uiso   1.00
Zn921  Zn    0.83333   0.55104   0.75000   0.00000  Uiso   1.00
Zn922  Zn    0.83333   0.44896   0.75000   0.00000  Uiso   1.00
C923   C     0.90781   0.53131   0.88097   0.00000  Uiso   1.00
H924   H     0.90450   0.55118   0.85069   0.00000  Uiso   1.00
O925   O     0.94264   0.51895   0.89202   0.00000  Uiso   1.00
C926   C     0.75885   0.46875   0.61902   0.00000  Uiso   1.00
H927   H     0.76214   0.44896   0.64936   0.00000  Uiso   1.00
O928   O     0.72403   0.48104   0.60789   0.00000  Uiso   1.00
F929   F     0.76853   0.46479   0.88251   0.00000  Uiso   1.00
F930   F     0.89816   0.53514   0.61749   0.00000  Uiso   1.00
C931   C     0.08664   0.83336   0.74992   0.00000  Uiso   1.00
C932   C     0.24669   0.83331   0.75008   0.00000  Uiso   1.00
C933   C     0.09869   0.79508   0.52121   0.00000  Uiso   1.00
C934   C     0.23469   0.87153   0.97879   0.00000  Uiso   1.00
C935   C     0.02141   0.79441   0.73633   0.00000  Uiso   1.00
C936   C     0.31192   0.87226   0.76367   0.00000  Uiso   1.00
C937   C     0.31205   0.79435   0.73650   0.00000  Uiso   1.00
C938   C     0.02129   0.87232   0.76350   0.00000  Uiso   1.00
C939   C     0.29083   0.83328   0.75013   0.00000  Uiso   1.00
C940   C     0.04250   0.83339   0.74987   0.00000  Uiso   1.00
C941   C     0.19360   0.69061   0.77658   0.00000  Uiso   1.00
C942   C     0.13973   0.97606   0.72342   0.00000  Uiso   1.00
C943   C     0.13973   0.69068   0.72341   0.00000  Uiso   1.00
C944   C     0.19360   0.97598   0.77658   0.00000  Uiso   1.00
C945   C     0.16589   0.83332   0.66359   0.00000  Uiso   1.00
C946   C     0.16745   0.83335   0.83641   0.00000  Uiso   1.00
C947   C     0.20361   0.85039   0.90685   0.00000  Uiso   1.00
C948   C     0.12974   0.81629   0.59314   0.00000  Uiso   1.00
C949   C     0.16864   0.83340   0.88407   0.00000  Uiso   1.00
C950   C     0.16470   0.83326   0.61593   0.00000  Uiso   1.00
C951   C     0.13458   0.81493   0.90629   0.00000  Uiso   1.00
C952   C     0.19878   0.85170   0.59371   0.00000  Uiso   1.00
C953   C     0.13390   0.81420   0.95252   0.00000  Uiso   1.00
C954   C     0.19947   0.85242   0.54748   0.00000  Uiso   1.00
C955   C     0.16746   0.83307   0.97657   0.00000  Uiso   1.00
C956   C     0.16590   0.83357   0.52343   0.00000  Uiso   1.00
C957   C     0.20248   0.85148   0.95387   0.00000  Uiso   1.00
C958   C     0.13088   0.81516   0.54613   0.00000  Uiso   1.00
C959   C     0.10003   0.79505   0.97495   0.00000  Uiso   1.00
C960   C     0.23335   0.87155   0.52505   0.00000  Uiso   1.00
H961   H     0.07447   0.77972   0.95679   0.00000  Uiso   1.00
H962   H     0.25892   0.88685   0.54321   0.00000  Uiso   1.00
H963   H     0.07246   0.77857   0.53693   0.00000  Uiso   1.00
H964   H     0.26094   0.88801   0.96307   0.00000  Uiso   1.00
H965   H     0.03782   0.76431   0.72531   0.00000  Uiso   1.00
H966   H     0.29551   0.90236   0.77469   0.00000  Uiso   1.00
H967   H     0.29574   0.76420   0.72561   0.00000  Uiso   1.00
H968   H     0.03759   0.90246   0.77439   0.00000  Uiso   1.00
H969   H     0.21513   0.70874   0.79784   0.00000  Uiso   1.00
H970   H     0.11820   0.95793   0.70216   0.00000  Uiso   1.00
H971   H     0.11820   0.70887   0.70216   0.00000  Uiso   1.00
H972   H     0.21514   0.95779   0.79784   0.00000  Uiso   1.00
N973   N     0.16667   0.95240   0.75000   0.00000  Uiso   1.00
N974   N     0.16667   0.71427   0.75000   0.00000  Uiso   1.00
O975   O     0.10559   0.87154   0.74999   0.00000  Uiso   1.00
O976   O     0.22774   0.79513   0.75000   0.00000  Uiso   1.00
O977   O     0.22774   0.87154   0.75000   0.00000  Uiso   1.00
O978   O     0.10559   0.79513   0.74999   0.00000  Uiso   1.00
O979   O     0.16666   0.87156   0.68392   0.00000  Uiso   1.00
O980   O     0.16667   0.79511   0.81607   0.00000  Uiso   1.00
O981   O     0.16667   0.87156   0.81607   0.00000  Uiso   1.00
O982   O     0.16666   0.79511   0.68392   0.00000  Uiso   1.00
Zn983  Zn    0.16667   0.88437   0.75000   0.00000  Uiso   1.00
Zn984  Zn    0.16667   0.78229   0.75000   0.00000  Uiso   1.00
C985   C     0.24115   0.86465   0.88097   0.00000  Uiso   1.00
H986   H     0.23784   0.88451   0.85069   0.00000  Uiso   1.00
O987   O     0.27597   0.85228   0.89202   0.00000  Uiso   1.00
C988   C     0.09218   0.80208   0.61902   0.00000  Uiso   1.00
H989   H     0.09547   0.78230   0.64936   0.00000  Uiso   1.00
O990   O     0.05736   0.81438   0.60789   0.00000  Uiso   1.00
F991   F     0.10187   0.79813   0.88251   0.00000  Uiso   1.00
F992   F     0.23150   0.86847   0.61749   0.00000  Uiso   1.00
C993   C     0.41998   0.83336   0.74992   0.00000  Uiso   1.00
C994   C     0.58002   0.83331   0.75008   0.00000  Uiso   1.00
C995   C     0.43202   0.79508   0.52121   0.00000  Uiso   1.00
C996   C     0.56803   0.87153   0.97879   0.00000  Uiso   1.00
C997   C     0.35475   0.79441   0.73633   0.00000  Uiso   1.00
C998   C     0.64525   0.87226   0.76367   0.00000  Uiso   1.00
C999   C     0.64538   0.79435   0.73650   0.00000  Uiso   1.00
C1000  C     0.35462   0.87232   0.76350   0.00000  Uiso   1.00
C1001  C     0.62416   0.83328   0.75013   0.00000  Uiso   1.00
C1002  C     0.37584   0.83339   0.74987   0.00000  Uiso   1.00
C1003  C     0.52693   0.69061   0.77658   0.00000  Uiso   1.00
C1004  C     0.47307   0.97606   0.72342   0.00000  Uiso   1.00
C1005  C     0.47307   0.69068   0.72341   0.00000  Uiso   1.00
C1006  C     0.52693   0.97598   0.77658   0.00000  Uiso   1.00
C1007  C     0.49922   0.83332   0.66359   0.00000  Uiso   1.00
C1008  C     0.50078   0.83335   0.83641   0.00000  Uiso   1.00
C1009  C     0.53694   0.85039   0.90685   0.00000  Uiso   1.00
C1010  C     0.46307   0.81629   0.59314   0.00000  Uiso   1.00
C1011  C     0.50197   0.83340   0.88407   0.00000  Uiso   1.00
C1012  C     0.49803   0.83326   0.61593   0.00000  Uiso   1.00
C1013  C     0.46791   0.81493   0.90629   0.00000  Uiso   1.00
C1014  C     0.53211   0.85170   0.59371   0.00000  Uiso   1.00
C1015  C     0.46723   0.81420   0.95252   0.00000  Uiso   1.00
C1016  C     0.53280   0.85242   0.54748   0.00000  Uiso   1.00
C1017  C     0.50080   0.83307   0.97657   0.00000  Uiso   1.00
C1018  C     0.49923   0.83357   0.52343   0.00000  Uiso   1.00
C1019  C     0.53582   0.85148   0.95387   0.00000  Uiso   1.00
C1020  C     0.46421   0.81516   0.54613   0.00000  Uiso   1.00
C1021  C     0.43337   0.79505   0.97495   0.00000  Uiso   1.00
C1022  C     0.56668   0.87155   0.52505   0.00000  Uiso   1.00
H1023  H     0.40781   0.77972   0.95679   0.00000  Uiso   1.00
H1024  H     0.59225   0.88685   0.54321   0.00000  Uiso   1.00
H1025  H     0.40579   0.77857   0.53693   0.00000  Uiso   1.00
H1026  H     0.59427   0.88801   0.96307   0.00000  Uiso   1.00
H1027  H     0.37116   0.76431   0.72531   0.00000  Uiso   1.00
H1028  H     0.62884   0.90236   0.77469   0.00000  Uiso   1.00
H1029  H     0.62908   0.76420   0.72561   0.00000  Uiso   1.00
H1030  H     0.37092   0.90246   0.77439   0.00000  Uiso   1.00
H1031  H     0.54847   0.70874   0.79784   0.00000  Uiso   1.00
H1032  H     0.45153   0.95793   0.70216   0.00000  Uiso   1.00
H1033  H     0.45153   0.70887   0.70216   0.00000  Uiso   1.00
H1034  H     0.54847   0.95779   0.79784   0.00000  Uiso   1.00
N1035  N     0.50000   0.95240   0.75000   0.00000  Uiso   1.00
N1036  N     0.50000   0.71427   0.75000   0.00000  Uiso   1.00
O1037  O     0.43892   0.87154   0.74999   0.00000  Uiso   1.00
O1038  O     0.56108   0.79513   0.75000   0.00000  Uiso   1.00
O1039  O     0.56108   0.87154   0.75000   0.00000  Uiso   1.00
O1040  O     0.43892   0.79513   0.74999   0.00000  Uiso   1.00
O1041  O     0.49999   0.87156   0.68392   0.00000  Uiso   1.00
O1042  O     0.50001   0.79511   0.81607   0.00000  Uiso   1.00
O1043  O     0.50001   0.87156   0.81607   0.00000  Uiso   1.00
O1044  O     0.49999   0.79511   0.68392   0.00000  Uiso   1.00
Zn1045 Zn    0.50000   0.88437   0.75000   0.00000  Uiso   1.00
Zn1046 Zn    0.50000   0.78229   0.75000   0.00000  Uiso   1.00
C1047  C     0.57448   0.86465   0.88097   0.00000  Uiso   1.00
H1048  H     0.57117   0.88451   0.85069   0.00000  Uiso   1.00
O1049  O     0.60930   0.85228   0.89202   0.00000  Uiso   1.00
C1050  C     0.42551   0.80208   0.61902   0.00000  Uiso   1.00
H1051  H     0.42880   0.78230   0.64936   0.00000  Uiso   1.00
O1052  O     0.39069   0.81438   0.60789   0.00000  Uiso   1.00
F1053  F     0.43520   0.79813   0.88251   0.00000  Uiso   1.00
F1054  F     0.56483   0.86847   0.61749   0.00000  Uiso   1.00
C1055  C     0.75331   0.83336   0.74992   0.00000  Uiso   1.00
C1056  C     0.91336   0.83331   0.75008   0.00000  Uiso   1.00
C1057  C     0.76535   0.79508   0.52121   0.00000  Uiso   1.00
C1058  C     0.90136   0.87153   0.97879   0.00000  Uiso   1.00
C1059  C     0.68808   0.79441   0.73633   0.00000  Uiso   1.00
C1060  C     0.97859   0.87226   0.76367   0.00000  Uiso   1.00
C1061  C     0.97871   0.79435   0.73650   0.00000  Uiso   1.00
C1062  C     0.68795   0.87232   0.76350   0.00000  Uiso   1.00
C1063  C     0.95750   0.83328   0.75013   0.00000  Uiso   1.00
C1064  C     0.70917   0.83339   0.74987   0.00000  Uiso   1.00
C1065  C     0.86027   0.69061   0.77658   0.00000  Uiso   1.00
C1066  C     0.80640   0.97606   0.72342   0.00000  Uiso   1.00
C1067  C     0.80640   0.69068   0.72341   0.00000  Uiso   1.00
C1068  C     0.86027   0.97598   0.77658   0.00000  Uiso   1.00
C1069  C     0.83256   0.83332   0.66359   0.00000  Uiso   1.00
C1070  C     0.83411   0.83335   0.83641   0.00000  Uiso   1.00
C1071  C     0.87027   0.85039   0.90685   0.00000  Uiso   1.00
C1072  C     0.79640   0.81629   0.59314   0.00000  Uiso   1.00
C1073  C     0.83531   0.83340   0.88407   0.00000  Uiso   1.00
C1074  C     0.83137   0.83326   0.61593   0.00000  Uiso   1.00
C1075  C     0.80124   0.81493   0.90629   0.00000  Uiso   1.00
C1076  C     0.86545   0.85170   0.59371   0.00000  Uiso   1.00
C1077  C     0.80056   0.81420   0.95252   0.00000  Uiso   1.00
C1078  C     0.86613   0.85242   0.54748   0.00000  Uiso   1.00
C1079  C     0.83413   0.83307   0.97657   0.00000  Uiso   1.00
C1080  C     0.83257   0.83357   0.52343   0.00000  Uiso   1.00
C1081  C     0.86915   0.85148   0.95387   0.00000  Uiso   1.00
C1082  C     0.79754   0.81516   0.54613   0.00000  Uiso   1.00
C1083  C     0.76670   0.79505   0.97495   0.00000  Uiso   1.00
C1084  C     0.90002   0.87155   0.52505   0.00000  Uiso   1.00
H1085  H     0.74114   0.77972   0.95679   0.00000  Uiso   1.00
H1086  H     0.92559   0.88685   0.54321   0.00000  Uiso   1.00
H1087  H     0.73913   0.77857   0.53693   0.00000  Uiso   1.00
H1088  H     0.92761   0.88801   0.96307   0.00000  Uiso   1.00
H1089  H     0.70449   0.76431   0.72531   0.00000  Uiso   1.00
H1090  H     0.96218   0.90236   0.77469   0.00000  Uiso   1.00
H1091  H     0.96241   0.76420   0.72561   0.00000  Uiso   1.00
H1092  H     0.70426   0.90246   0.77439   0.00000  Uiso   1.00
H1093  H     0.88180   0.70874   0.79784   0.00000  Uiso   1.00
H1094  H     0.78487   0.95793   0.70216   0.00000  Uiso   1.00
H1095  H     0.78486   0.70887   0.70216   0.00000  Uiso   1.00
H1096  H     0.88181   0.95779   0.79784   0.00000  Uiso   1.00
N1097  N     0.83333   0.95240   0.75000   0.00000  Uiso   1.00
N1098  N     0.83333   0.71427   0.75000   0.00000  Uiso   1.00
O1099  O     0.77226   0.87154   0.74999   0.00000  Uiso   1.00
O1100  O     0.89441   0.79513   0.75000   0.00000  Uiso   1.00
O1101  O     0.89441   0.87154   0.75000   0.00000  Uiso   1.00
O1102  O     0.77226   0.79513   0.74999   0.00000  Uiso   1.00
O1103  O     0.83333   0.87156   0.68392   0.00000  Uiso   1.00
O1104  O     0.83334   0.79511   0.81607   0.00000  Uiso   1.00
O1105  O     0.83334   0.87156   0.81607   0.00000  Uiso   1.00
O1106  O     0.83333   0.79511   0.68392   0.00000  Uiso   1.00
Zn1107 Zn    0.83333   0.88437   0.75000   0.00000  Uiso   1.00
Zn1108 Zn    0.83333   0.78229   0.75000   0.00000  Uiso   1.00
C1109  C     0.90781   0.86465   0.88097   0.00000  Uiso   1.00
H1110  H     0.90450   0.88451   0.85069   0.00000  Uiso   1.00
O1111  O     0.94264   0.85228   0.89202   0.00000  Uiso   1.00
C1112  C     0.75885   0.80208   0.61902   0.00000  Uiso   1.00
H1113  H     0.76214   0.78230   0.64936   0.00000  Uiso   1.00
O1114  O     0.72403   0.81438   0.60789   0.00000  Uiso   1.00
F1115  F     0.76853   0.79813   0.88251   0.00000  Uiso   1.00
F1116  F     0.89816   0.86847   0.61749   0.00000  Uiso   1.00
loop_
_geom_bond_atom_site_label_1
_geom_bond_atom_site_label_2
_geom_bond_distance
_geom_bond_site_symmetry_2
_ccdc_geom_bond_type
C1     O48     1.282   .     A
C1     O45     1.282   .     A
C1     C10     1.416   .     S
C2     O47     1.282   .     A
C2     O46     1.282   .     A
C2     C9      1.416   .     S
C3     C28     1.406   .     A
C3     H33     1.080   .     S
C3     C587    1.384   1_554 S
C4     H34     1.080   .     S
C4     C27     1.406   .     A
C4     C588    1.384   .     S
C5     H35     1.084   .     S
C5     C10     1.396   .     A
C5     C131    1.370   1_455 S
C6     C9      1.396   .     A
C6     H36     1.084   .     S
C6     C70     1.370   .     S
C7     C9      1.396   .     A
C7     H37     1.084   .     S
C7     C67     1.370   .     S
C8     H38     1.084   .     S
C8     C10     1.396   .     A
C8     C130    1.370   1_455 S
C11    N44     1.366   .     A
C11    H39     1.082   .     S
C11    C386    1.417   1_545 S
C12    H40     1.082   .     S
C12    N43     1.366   .     A
C12    C199    1.417   .     S
C13    H41     1.082   .     S
C13    N44     1.366   .     A
C13    C384    1.417   1_545 S
C14    H42     1.082   .     S
C14    N43     1.366   .     A
C14    C197    1.417   .     S
C15    O52     1.282   .     A
C15    O49     1.283   .     A
C15    C20     1.425   .     S
C16    O51     1.282   .     A
C16    C19     1.425   .     S
C16    O50     1.283   .     A
C17    C55     1.492   .     S
C17    C27     1.406   .     A
C17    C19     1.406   .     A
C18    C58     1.492   .     S
C18    C28     1.406   .     A
C18    C20     1.406   .     A
C19    C21     1.391   .     A
C20    C22     1.391   .     A
C21    F61     1.362   .     S
C21    C23     1.382   .     A
C22    F62     1.362   .     S
C22    C24     1.382   .     A
C23    C29     1.397   .     A
C23    C25     1.411   .     A
C24    C30     1.397   .     A
C24    C26     1.411   .     A
C25    C27     1.421   .     A
C25    C584    1.401   .     S
C26    C28     1.421   .     A
C26    C583    1.401   1_554 S
C29    H31     1.084   .     S
C29    C561    1.384   .     S
C30    H32     1.084   .     S
C30    C562    1.384   1_554 S
N43    Zn53    2.009   .     S
N44    Zn54    2.009   .     S
O45    Zn53    1.997   .     S
O46    Zn54    1.997   .     S
O47    Zn53    1.996   .     S
O48    Zn54    1.996   .     S
O49    Zn53    2.011   .     S
O50    Zn54    2.011   .     S
O51    Zn53    2.011   .     S
O52    Zn54    2.011   .     S
C55    H56     1.084   .     S
C55    O57     1.221   .     D
C58    H59     1.084   .     S
C58    O60     1.221   .     D
C63    O110    1.282   .     A
C63    O107    1.282   .     A
C63    C72     1.416   .     S
C64    O109    1.282   .     A
C64    O108    1.282   .     A
C64    C71     1.416   .     S
C65    C90     1.406   .     A
C65    H95     1.080   .     S
C65    C649    1.384   1_554 S
C66    H96     1.080   .     S
C66    C89     1.406   .     A
C66    C650    1.384   .     S
C67    H97     1.084   .     S
C67    C72     1.396   .     A
C68    C71     1.396   .     A
C68    H98     1.084   .     S
C68    C132    1.370   .     S
C69    C71     1.396   .     A
C69    H99     1.084   .     S
C69    C129    1.370   .     S
C70    H100    1.084   .     S
C70    C72     1.396   .     A
C73    N106    1.366   .     A
C73    H101    1.082   .     S
C73    C448    1.417   1_545 S
C74    H102    1.082   .     S
C74    N105    1.366   .     A
C74    C261    1.417   .     S
C75    H103    1.082   .     S
C75    N106    1.366   .     A
C75    C446    1.417   1_545 S
C76    H104    1.082   .     S
C76    N105    1.366   .     A
C76    C259    1.417   .     S
C77    O114    1.282   .     A
C77    O111    1.283   .     A
C77    C82     1.425   .     S
C78    O113    1.282   .     A
C78    C81     1.425   .     S
C78    O112    1.283   .     A
C79    C117    1.492   .     S
C79    C89     1.406   .     A
C79    C81     1.406   .     A
C80    C120    1.492   .     S
C80    C90     1.406   .     A
C80    C82     1.406   .     A
C81    C83     1.391   .     A
C82    C84     1.391   .     A
C83    F123    1.362   .     S
C83    C85     1.382   .     A
C84    F124    1.362   .     S
C84    C86     1.382   .     A
C85    C91     1.397   .     A
C85    C87     1.411   .     A
C86    C92     1.397   .     A
C86    C88     1.411   .     A
C87    C89     1.421   .     A
C87    C646    1.401   .     S
C88    C90     1.421   .     A
C88    C645    1.401   1_554 S
C91    H93     1.084   .     S
C91    C623    1.384   .     S
C92    H94     1.084   .     S
C92    C624    1.384   1_554 S
N105   Zn115   2.009   .     S
N106   Zn116   2.009   .     S
O107   Zn115   1.997   .     S
O108   Zn116   1.997   .     S
O109   Zn115   1.996   .     S
O110   Zn116   1.996   .     S
O111   Zn115   2.011   .     S
O112   Zn116   2.011   .     S
O113   Zn115   2.011   .     S
O114   Zn116   2.011   .     S
C117   H118    1.084   .     S
C117   O119    1.221   .     D
C120   H121    1.084   .     S
C120   O122    1.221   .     D
C125   O172    1.282   .     A
C125   O169    1.282   .     A
C125   C134    1.416   .     S
C126   O171    1.282   .     A
C126   O170    1.282   .     A
C126   C133    1.416   .     S
C127   C152    1.406   .     A
C127   H157    1.080   .     S
C127   C711    1.384   1_554 S
C128   H158    1.080   .     S
C128   C151    1.406   .     A
C128   C712    1.384   .     S
C129   H159    1.084   .     S
C129   C134    1.396   .     A
C130   C133    1.396   .     A
C130   H160    1.084   .     S
C130   C8      1.370   1_655 S
C131   C133    1.396   .     A
C131   H161    1.084   .     S
C131   C5      1.370   1_655 S
C132   H162    1.084   .     S
C132   C134    1.396   .     A
C135   N168    1.366   .     A
C135   H163    1.082   .     S
C135   C510    1.417   1_545 S
C136   H164    1.082   .     S
C136   N167    1.366   .     A
C136   C323    1.417   .     S
C137   H165    1.082   .     S
C137   N168    1.366   .     A
C137   C508    1.417   1_545 S
C138   H166    1.082   .     S
C138   N167    1.366   .     A
C138   C321    1.417   .     S
C139   O176    1.282   .     A
C139   O173    1.283   .     A
C139   C144    1.425   .     S
C140   O175    1.282   .     A
C140   C143    1.425   .     S
C140   O174    1.283   .     A
C141   C179    1.492   .     S
C141   C151    1.406   .     A
C141   C143    1.406   .     A
C142   C182    1.492   .     S
C142   C152    1.406   .     A
C142   C144    1.406   .     A
C143   C145    1.391   .     A
C144   C146    1.391   .     A
C145   F185    1.362   .     S
C145   C147    1.382   .     A
C146   F186    1.362   .     S
C146   C148    1.382   .     A
C147   C153    1.397   .     A
C147   C149    1.411   .     A
C148   C154    1.397   .     A
C148   C150    1.411   .     A
C149   C151    1.421   .     A
C149   C708    1.401   .     S
C150   C152    1.421   .     A
C150   C707    1.401   1_554 S
C153   H155    1.084   .     S
C153   C685    1.384   .     S
C154   H156    1.084   .     S
C154   C686    1.384   1_554 S
N167   Zn177   2.009   .     S
N168   Zn178   2.009   .     S
O169   Zn177   1.997   .     S
O170   Zn178   1.997   .     S
O171   Zn177   1.996   .     S
O172   Zn178   1.996   .     S
O173   Zn177   2.011   .     S
O174   Zn178   2.011   .     S
O175   Zn177   2.011   .     S
O176   Zn178   2.011   .     S
C179   H180    1.084   .     S
C179   O181    1.221   .     D
C182   H183    1.084   .     S
C182   O184    1.221   .     D
C187   O234    1.282   .     A
C187   O231    1.282   .     A
C187   C196    1.416   .     S
C188   O233    1.282   .     A
C188   O232    1.282   .     A
C188   C195    1.416   .     S
C189   C214    1.406   .     A
C189   H219    1.080   .     S
C189   C773    1.384   1_554 S
C190   H220    1.080   .     S
C190   C213    1.406   .     A
C190   C774    1.384   .     S
C191   H221    1.084   .     S
C191   C196    1.396   .     A
C191   C317    1.370   1_455 S
C192   C195    1.396   .     A
C192   H222    1.084   .     S
C192   C256    1.370   .     S
C193   C195    1.396   .     A
C193   H223    1.084   .     S
C193   C253    1.370   .     S
C194   H224    1.084   .     S
C194   C196    1.396   .     A
C194   C316    1.370   1_455 S
C197   N230    1.366   .     A
C197   H225    1.082   .     S
C198   H226    1.082   .     S
C198   N229    1.366   .     A
C198   C385    1.417   .     S
C199   H227    1.082   .     S
C199   N230    1.366   .     A
C200   H228    1.082   .     S
C200   N229    1.366   .     A
C200   C383    1.417   .     S
C201   O238    1.282   .     A
C201   O235    1.283   .     A
C201   C206    1.425   .     S
C202   O237    1.282   .     A
C202   C205    1.425   .     S
C202   O236    1.283   .     A
C203   C241    1.492   .     S
C203   C213    1.406   .     A
C203   C205    1.406   .     A
C204   C244    1.492   .     S
C204   C214    1.406   .     A
C204   C206    1.406   .     A
C205   C207    1.391   .     A
C206   C208    1.391   .     A
C207   F247    1.362   .     S
C207   C209    1.382   .     A
C208   F248    1.362   .     S
C208   C210    1.382   .     A
C209   C215    1.397   .     A
C209   C211    1.411   .     A
C210   C216    1.397   .     A
C210   C212    1.411   .     A
C211   C213    1.421   .     A
C211   C770    1.401   .     S
C212   C214    1.421   .     A
C212   C769    1.401   1_554 S
C215   H217    1.084   .     S
C215   C747    1.384   .     S
C216   H218    1.084   .     S
C216   C748    1.384   1_554 S
N229   Zn239   2.009   .     S
N230   Zn240   2.009   .     S
O231   Zn239   1.997   .     S
O232   Zn240   1.997   .     S
O233   Zn239   1.996   .     S
O234   Zn240   1.996   .     S
O235   Zn239   2.011   .     S
O236   Zn240   2.011   .     S
O237   Zn239   2.011   .     S
O238   Zn240   2.011   .     S
C241   H242    1.084   .     S
C241   O243    1.221   .     D
C244   H245    1.084   .     S
C244   O246    1.221   .     D
C249   O296    1.282   .     A
C249   O293    1.282   .     A
C249   C258    1.416   .     S
C250   O295    1.282   .     A
C250   O294    1.282   .     A
C250   C257    1.416   .     S
C251   C276    1.406   .     A
C251   H281    1.080   .     S
C251   C835    1.384   1_554 S
C252   H282    1.080   .     S
C252   C275    1.406   .     A
C252   C836    1.384   .     S
C253   H283    1.084   .     S
C253   C258    1.396   .     A
C254   C257    1.396   .     A
C254   H284    1.084   .     S
C254   C318    1.370   .     S
C255   C257    1.396   .     A
C255   H285    1.084   .     S
C255   C315    1.370   .     S
C256   H286    1.084   .     S
C256   C258    1.396   .     A
C259   N292    1.366   .     A
C259   H287    1.082   .     S
C260   H288    1.082   .     S
C260   N291    1.366   .     A
C260   C447    1.417   .     S
C261   H289    1.082   .     S
C261   N292    1.366   .     A
C262   H290    1.082   .     S
C262   N291    1.366   .     A
C262   C445    1.417   .     S
C263   O300    1.282   .     A
C263   O297    1.283   .     A
C263   C268    1.425   .     S
C264   O299    1.282   .     A
C264   C267    1.425   .     S
C264   O298    1.283   .     A
C265   C303    1.492   .     S
C265   C275    1.406   .     A
C265   C267    1.406   .     A
C266   C306    1.492   .     S
C266   C276    1.406   .     A
C266   C268    1.406   .     A
C267   C269    1.391   .     A
C268   C270    1.391   .     A
C269   F309    1.362   .     S
C269   C271    1.382   .     A
C270   F310    1.362   .     S
C270   C272    1.382   .     A
C271   C277    1.397   .     A
C271   C273    1.411   .     A
C272   C278    1.397   .     A
C272   C274    1.411   .     A
C273   C275    1.421   .     A
C273   C832    1.401   .     S
C274   C276    1.421   .     A
C274   C831    1.401   1_554 S
C277   H279    1.084   .     S
C277   C809    1.384   .     S
C278   H280    1.084   .     S
C278   C810    1.384   1_554 S
N291   Zn301   2.009   .     S
N292   Zn302   2.009   .     S
O293   Zn301   1.997   .     S
O294   Zn302   1.997   .     S
O295   Zn301   1.996   .     S
O296   Zn302   1.996   .     S
O297   Zn301   2.011   .     S
O298   Zn302   2.011   .     S
O299   Zn301   2.011   .     S
O300   Zn302   2.011   .     S
C303   H304    1.084   .     S
C303   O305    1.221   .     D
C306   H307    1.084   .     S
C306   O308    1.221   .     D
C311   O358    1.282   .     A
C311   O355    1.282   .     A
C311   C320    1.416   .     S
C312   O357    1.282   .     A
C312   O356    1.282   .     A
C312   C319    1.416   .     S
C313   C338    1.406   .     A
C313   H343    1.080   .     S
C313   C897    1.384   1_554 S
C314   H344    1.080   .     S
C314   C337    1.406   .     A
C314   C898    1.384   .     S
C315   H345    1.084   .     S
C315   C320    1.396   .     A
C316   C319    1.396   .     A
C316   H346    1.084   .     S
C316   C194    1.370   1_655 S
C317   C319    1.396   .     A
C317   H347    1.084   .     S
C317   C191    1.370   1_655 S
C318   H348    1.084   .     S
C318   C320    1.396   .     A
C321   N354    1.366   .     A
C321   H349    1.082   .     S
C322   H350    1.082   .     S
C322   N353    1.366   .     A
C322   C509    1.417   .     S
C323   H351    1.082   .     S
C323   N354    1.366   .     A
C324   H352    1.082   .     S
C324   N353    1.366   .     A
C324   C507    1.417   .     S
C325   O362    1.282   .     A
C325   O359    1.283   .     A
C325   C330    1.425   .     S
C326   O361    1.282   .     A
C326   C329    1.425   .     S
C326   O360    1.283   .     A
C327   C365    1.492   .     S
C327   C337    1.406   .     A
C327   C329    1.406   .     A
C328   C368    1.492   .     S
C328   C338    1.406   .     A
C328   C330    1.406   .     A
C329   C331    1.391   .     A
C330   C332    1.391   .     A
C331   F371    1.362   .     S
C331   C333    1.382   .     A
C332   F372    1.362   .     S
C332   C334    1.382   .     A
C333   C339    1.397   .     A
C333   C335    1.411   .     A
C334   C340    1.397   .     A
C334   C336    1.411   .     A
C335   C337    1.421   .     A
C335   C894    1.401   .     S
C336   C338    1.421   .     A
C336   C893    1.401   1_554 S
C339   H341    1.084   .     S
C339   C871    1.384   .     S
C340   H342    1.084   .     S
C340   C872    1.384   1_554 S
N353   Zn363   2.009   .     S
N354   Zn364   2.009   .     S
O355   Zn363   1.997   .     S
O356   Zn364   1.997   .     S
O357   Zn363   1.996   .     S
O358   Zn364   1.996   .     S
O359   Zn363   2.011   .     S
O360   Zn364   2.011   .     S
O361   Zn363   2.011   .     S
O362   Zn364   2.011   .     S
C365   H366    1.084   .     S
C365   O367    1.221   .     D
C368   H369    1.084   .     S
C368   O370    1.221   .     D
C373   O420    1.282   .     A
C373   O417    1.282   .     A
C373   C382    1.416   .     S
C374   O419    1.282   .     A
C374   O418    1.282   .     A
C374   C381    1.416   .     S
C375   C400    1.406   .     A
C375   H405    1.080   .     S
C375   C959    1.384   1_554 S
C376   H406    1.080   .     S
C376   C399    1.406   .     A
C376   C960    1.384   .     S
C377   H407    1.084   .     S
C377   C382    1.396   .     A
C377   C503    1.370   1_455 S
C378   C381    1.396   .     A
C378   H408    1.084   .     S
C378   C442    1.370   .     S
C379   C381    1.396   .     A
C379   H409    1.084   .     S
C379   C439    1.370   .     S
C380   H410    1.084   .     S
C380   C382    1.396   .     A
C380   C502    1.370   1_455 S
C383   N416    1.366   .     A
C383   H411    1.082   .     S
C384   H412    1.082   .     S
C384   N415    1.366   .     A
C384   C13     1.417   1_565 S
C385   H413    1.082   .     S
C385   N416    1.366   .     A
C386   H414    1.082   .     S
C386   N415    1.366   .     A
C386   C11     1.417   1_565 S
C387   O424    1.282   .     A
C387   O421    1.283   .     A
C387   C392    1.425   .     S
C388   O423    1.282   .     A
C388   C391    1.425   .     S
C388   O422    1.283   .     A
C389   C427    1.492   .     S
C389   C399    1.406   .     A
C389   C391    1.406   .     A
C390   C430    1.492   .     S
C390   C400    1.406   .     A
C390   C392    1.406   .     A
C391   C393    1.391   .     A
C392   C394    1.391   .     A
C393   F433    1.362   .     S
C393   C395    1.382   .     A
C394   F434    1.362   .     S
C394   C396    1.382   .     A
C395   C401    1.397   .     A
C395   C397    1.411   .     A
C396   C402    1.397   .     A
C396   C398    1.411   .     A
C397   C399    1.421   .     A
C397   C956    1.401   .     S
C398   C400    1.421   .     A
C398   C955    1.401   1_554 S
C401   H403    1.084   .     S
C401   C933    1.384   .     S
C402   H404    1.084   .     S
C402   C934    1.384   1_554 S
N415   Zn425   2.009   .     S
N416   Zn426   2.009   .     S
O417   Zn425   1.997   .     S
O418   Zn426   1.997   .     S
O419   Zn425   1.996   .     S
O420   Zn426   1.996   .     S
O421   Zn425   2.011   .     S
O422   Zn426   2.011   .     S
O423   Zn425   2.011   .     S
O424   Zn426   2.011   .     S
C427   H428    1.084   .     S
C427   O429    1.221   .     D
C430   H431    1.084   .     S
C430   O432    1.221   .     D
C435   O482    1.282   .     A
C435   O479    1.282   .     A
C435   C444    1.416   .     S
C436   O481    1.282   .     A
C436   O480    1.282   .     A
C436   C443    1.416   .     S
C437   C462    1.406   .     A
C437   H467    1.080   .     S
C437   C1021   1.384   1_554 S
C438   H468    1.080   .     S
C438   C461    1.406   .     A
C438   C1022   1.384   .     S
C439   H469    1.084   .     S
C439   C444    1.396   .     A
C440   C443    1.396   .     A
C440   H470    1.084   .     S
C440   C504    1.370   .     S
C441   C443    1.396   .     A
C441   H471    1.084   .     S
C441   C501    1.370   .     S
C442   H472    1.084   .     S
C442   C444    1.396   .     A
C445   N478    1.366   .     A
C445   H473    1.082   .     S
C446   H474    1.082   .     S
C446   N477    1.366   .     A
C446   C75     1.417   1_565 S
C447   H475    1.082   .     S
C447   N478    1.366   .     A
C448   H476    1.082   .     S
C448   N477    1.366   .     A
C448   C73     1.417   1_565 S
C449   O486    1.282   .     A
C449   O483    1.283   .     A
C449   C454    1.425   .     S
C450   O485    1.282   .     A
C450   C453    1.425   .     S
C450   O484    1.283   .     A
C451   C489    1.492   .     S
C451   C461    1.406   .     A
C451   C453    1.406   .     A
C452   C492    1.492   .     S
C452   C462    1.406   .     A
C452   C454    1.406   .     A
C453   C455    1.391   .     A
C454   C456    1.391   .     A
C455   F495    1.362   .     S
C455   C457    1.382   .     A
C456   F496    1.362   .     S
C456   C458    1.382   .     A
C457   C463    1.397   .     A
C457   C459    1.411   .     A
C458   C464    1.397   .     A
C458   C460    1.411   .     A
C459   C461    1.421   .     A
C459   C1018   1.401   .     S
C460   C462    1.421   .     A
C460   C1017   1.401   1_554 S
C463   H465    1.084   .     S
C463   C995    1.384   .     S
C464   H466    1.084   .     S
C464   C996    1.384   1_554 S
N477   Zn487   2.009   .     S
N478   Zn488   2.009   .     S
O479   Zn487   1.997   .     S
O480   Zn488   1.997   .     S
O481   Zn487   1.996   .     S
O482   Zn488   1.996   .     S
O483   Zn487   2.011   .     S
O484   Zn488   2.011   .     S
O485   Zn487   2.011   .     S
O486   Zn488   2.011   .     S
C489   H490    1.084   .     S
C489   O491    1.221   .     D
C492   H493    1.084   .     S
C492   O494    1.221   .     D
C497   O544    1.282   .     A
C497   O541    1.282   .     A
C497   C506    1.416   .     S
C498   O543    1.282   .     A
C498   O542    1.282   .     A
C498   C505    1.416   .     S
C499   C524    1.406   .     A
C499   H529    1.080   .     S
C499   C1083   1.384   1_554 S
C500   H530    1.080   .     S
C500   C523    1.406   .     A
C500   C1084   1.384   .     S
C501   H531    1.084   .     S
C501   C506    1.396   .     A
C502   C505    1.396   .     A
C502   H532    1.084   .     S
C502   C380    1.370   1_655 S
C503   C505    1.396   .     A
C503   H533    1.084   .     S
C503   C377    1.370   1_655 S
C504   H534    1.084   .     S
C504   C506    1.396   .     A
C507   N540    1.366   .     A
C507   H535    1.082   .     S
C508   H536    1.082   .     S
C508   N539    1.366   .     A
C508   C137    1.417   1_565 S
C509   H537    1.082   .     S
C509   N540    1.366   .     A
C510   H538    1.082   .     S
C510   N539    1.366   .     A
C510   C135    1.417   1_565 S
C511   O548    1.282   .     A
C511   O545    1.283   .     A
C511   C516    1.425   .     S
C512   O547    1.282   .     A
C512   C515    1.425   .     S
C512   O546    1.283   .     A
C513   C551    1.492   .     S
C513   C523    1.406   .     A
C513   C515    1.406   .     A
C514   C554    1.492   .     S
C514   C524    1.406   .     A
C514   C516    1.406   .     A
C515   C517    1.391   .     A
C516   C518    1.391   .     A
C517   F557    1.362   .     S
C517   C519    1.382   .     A
C518   F558    1.362   .     S
C518   C520    1.382   .     A
C519   C525    1.397   .     A
C519   C521    1.411   .     A
C520   C526    1.397   .     A
C520   C522    1.411   .     A
C521   C523    1.421   .     A
C521   C1080   1.401   .     S
C522   C524    1.421   .     A
C522   C1079   1.401   1_554 S
C525   H527    1.084   .     S
C525   C1057   1.384   .     S
C526   H528    1.084   .     S
C526   C1058   1.384   1_554 S
N539   Zn549   2.009   .     S
N540   Zn550   2.009   .     S
O541   Zn549   1.997   .     S
O542   Zn550   1.997   .     S
O543   Zn549   1.996   .     S
O544   Zn550   1.996   .     S
O545   Zn549   2.011   .     S
O546   Zn550   2.011   .     S
O547   Zn549   2.011   .     S
O548   Zn550   2.011   .     S
C551   H552    1.084   .     S
C551   O553    1.221   .     D
C554   H555    1.084   .     S
C554   O556    1.221   .     D
C559   O606    1.282   .     A
C559   O603    1.282   .     A
C559   C568    1.416   .     S
C560   O605    1.282   .     A
C560   O604    1.282   .     A
C560   C567    1.416   .     S
C561   C586    1.406   .     A
C561   H591    1.080   .     S
C562   H592    1.080   .     S
C562   C585    1.406   .     A
C562   C30     1.384   1_556 S
C563   H593    1.084   .     S
C563   C568    1.396   .     A
C563   C689    1.370   1_455 S
C564   C567    1.396   .     A
C564   H594    1.084   .     S
C564   C628    1.370   .     S
C565   C567    1.396   .     A
C565   H595    1.084   .     S
C565   C625    1.370   .     S
C566   H596    1.084   .     S
C566   C568    1.396   .     A
C566   C688    1.370   1_455 S
C569   N602    1.366   .     A
C569   H597    1.082   .     S
C569   C944    1.417   1_545 S
C570   H598    1.082   .     S
C570   N601    1.366   .     A
C570   C757    1.417   .     S
C571   H599    1.082   .     S
C571   N602    1.366   .     A
C571   C942    1.417   1_545 S
C572   H600    1.082   .     S
C572   N601    1.366   .     A
C572   C755    1.417   .     S
C573   O610    1.282   .     A
C573   O607    1.283   .     A
C573   C578    1.425   .     S
C574   O609    1.282   .     A
C574   C577    1.425   .     S
C574   O608    1.283   .     A
C575   C613    1.492   .     S
C575   C585    1.406   .     A
C575   C577    1.406   .     A
C576   C616    1.492   .     S
C576   C586    1.406   .     A
C576   C578    1.406   .     A
C577   C579    1.391   .     A
C578   C580    1.391   .     A
C579   F619    1.362   .     S
C579   C581    1.382   .     A
C580   F620    1.362   .     S
C580   C582    1.382   .     A
C581   C587    1.397   .     A
C581   C583    1.411   .     A
C582   C588    1.397   .     A
C582   C584    1.411   .     A
C583   C585    1.421   .     A
C583   C26     1.401   1_556 S
C584   C586    1.421   .     A
C587   H589    1.084   .     S
C587   C3      1.384   1_556 S
C588   H590    1.084   .     S
N601   Zn611   2.009   .     S
N602   Zn612   2.009   .     S
O603   Zn611   1.997   .     S
O604   Zn612   1.997   .     S
O605   Zn611   1.996   .     S
O606   Zn612   1.996   .     S
O607   Zn611   2.011   .     S
O608   Zn612   2.011   .     S
O609   Zn611   2.011   .     S
O610   Zn612   2.011   .     S
C613   H614    1.084   .     S
C613   O615    1.221   .     D
C616   H617    1.084   .     S
C616   O618    1.221   .     D
C621   O668    1.282   .     A
C621   O665    1.282   .     A
C621   C630    1.416   .     S
C622   O667    1.282   .     A
C622   O666    1.282   .     A
C622   C629    1.416   .     S
C623   C648    1.406   .     A
C623   H653    1.080   .     S
C624   H654    1.080   .     S
C624   C647    1.406   .     A
C624   C92     1.384   1_556 S
C625   H655    1.084   .     S
C625   C630    1.396   .     A
C626   C629    1.396   .     A
C626   H656    1.084   .     S
C626   C690    1.370   .     S
C627   C629    1.396   .     A
C627   H657    1.084   .     S
C627   C687    1.370   .     S
C628   H658    1.084   .     S
C628   C630    1.396   .     A
C631   N664    1.366   .     A
C631   H659    1.082   .     S
C631   C1006   1.417   1_545 S
C632   H660    1.082   .     S
C632   N663    1.366   .     A
C632   C819    1.417   .     S
C633   H661    1.082   .     S
C633   N664    1.366   .     A
C633   C1004   1.417   1_545 S
C634   H662    1.082   .     S
C634   N663    1.366   .     A
C634   C817    1.417   .     S
C635   O672    1.282   .     A
C635   O669    1.283   .     A
C635   C640    1.425   .     S
C636   O671    1.282   .     A
C636   C639    1.425   .     S
C636   O670    1.283   .     A
C637   C675    1.492   .     S
C637   C647    1.406   .     A
C637   C639    1.406   .     A
C638   C678    1.492   .     S
C638   C648    1.406   .     A
C638   C640    1.406   .     A
C639   C641    1.391   .     A
C640   C642    1.391   .     A
C641   F681    1.362   .     S
C641   C643    1.382   .     A
C642   F682    1.362   .     S
C642   C644    1.382   .     A
C643   C649    1.397   .     A
C643   C645    1.411   .     A
C644   C650    1.397   .     A
C644   C646    1.411   .     A
C645   C647    1.421   .     A
C645   C88     1.401   1_556 S
C646   C648    1.421   .     A
C649   H651    1.084   .     S
C649   C65     1.384   1_556 S
C650   H652    1.084   .     S
N663   Zn673   2.009   .     S
N664   Zn674   2.009   .     S
O665   Zn673   1.997   .     S
O666   Zn674   1.997   .     S
O667   Zn673   1.996   .     S
O668   Zn674   1.996   .     S
O669   Zn673   2.011   .     S
O670   Zn674   2.011   .     S
O671   Zn673   2.011   .     S
O672   Zn674   2.011   .     S
C675   H676    1.084   .     S
C675   O677    1.221   .     D
C678   H679    1.084   .     S
C678   O680    1.221   .     D
C683   O730    1.282   .     A
C683   O727    1.282   .     A
C683   C692    1.416   .     S
C684   O729    1.282   .     A
C684   O728    1.282   .     A
C684   C691    1.416   .     S
C685   C710    1.406   .     A
C685   H715    1.080   .     S
C686   H716    1.080   .     S
C686   C709    1.406   .     A
C686   C154    1.384   1_556 S
C687   H717    1.084   .     S
C687   C692    1.396   .     A
C688   C691    1.396   .     A
C688   H718    1.084   .     S
C688   C566    1.370   1_655 S
C689   C691    1.396   .     A
C689   H719    1.084   .     S
C689   C563    1.370   1_655 S
C690   H720    1.084   .     S
C690   C692    1.396   .     A
C693   N726    1.366   .     A
C693   H721    1.082   .     S
C693   C1068   1.417   1_545 S
C694   H722    1.082   .     S
C694   N725    1.366   .     A
C694   C881    1.417   .     S
C695   H723    1.082   .     S
C695   N726    1.366   .     A
C695   C1066   1.417   1_545 S
C696   H724    1.082   .     S
C696   N725    1.366   .     A
C696   C879    1.417   .     S
C697   O734    1.282   .     A
C697   O731    1.283   .     A
C697   C702    1.425   .     S
C698   O733    1.282   .     A
C698   C701    1.425   .     S
C698   O732    1.283   .     A
C699   C737    1.492   .     S
C699   C709    1.406   .     A
C699   C701    1.406   .     A
C700   C740    1.492   .     S
C700   C710    1.406   .     A
C700   C702    1.406   .     A
C701   C703    1.391   .     A
C702   C704    1.391   .     A
C703   F743    1.362   .     S
C703   C705    1.382   .     A
C704   F744    1.362   .     S
C704   C706    1.382   .     A
C705   C711    1.397   .     A
C705   C707    1.411   .     A
C706   C712    1.397   .     A
C706   C708    1.411   .     A
C707   C709    1.421   .     A
C707   C150    1.401   1_556 S
C708   C710    1.421   .     A
C711   H713    1.084   .     S
C711   C127    1.384   1_556 S
C712   H714    1.084   .     S
N725   Zn735   2.009   .     S
N726   Zn736   2.009   .     S
O727   Zn735   1.997   .     S
O728   Zn736   1.997   .     S
O729   Zn735   1.996   .     S
O730   Zn736   1.996   .     S
O731   Zn735   2.011   .     S
O732   Zn736   2.011   .     S
O733   Zn735   2.011   .     S
O734   Zn736   2.011   .     S
C737   H738    1.084   .     S
C737   O739    1.221   .     D
C740   H741    1.084   .     S
C740   O742    1.221   .     D
C745   O792    1.282   .     A
C745   O789    1.282   .     A
C745   C754    1.416   .     S
C746   O791    1.282   .     A
C746   O790    1.282   .     A
C746   C753    1.416   .     S
C747   C772    1.406   .     A
C747   H777    1.080   .     S
C748   H778    1.080   .     S
C748   C771    1.406   .     A
C748   C216    1.384   1_556 S
C749   H779    1.084   .     S
C749   C754    1.396   .     A
C749   C875    1.370   1_455 S
C750   C753    1.396   .     A
C750   H780    1.084   .     S
C750   C814    1.370   .     S
C751   C753    1.396   .     A
C751   H781    1.084   .     S
C751   C811    1.370   .     S
C752   H782    1.084   .     S
C752   C754    1.396   .     A
C752   C874    1.370   1_455 S
C755   N788    1.366   .     A
C755   H783    1.082   .     S
C756   H784    1.082   .     S
C756   N787    1.366   .     A
C756   C943    1.417   .     S
C757   H785    1.082   .     S
C757   N788    1.366   .     A
C758   H786    1.082   .     S
C758   N787    1.366   .     A
C758   C941    1.417   .     S
C759   O796    1.282   .     A
C759   O793    1.283   .     A
C759   C764    1.425   .     S
C760   O795    1.282   .     A
C760   C763    1.425   .     S
C760   O794    1.283   .     A
C761   C799    1.492   .     S
C761   C771    1.406   .     A
C761   C763    1.406   .     A
C762   C802    1.492   .     S
C762   C772    1.406   .     A
C762   C764    1.406   .     A
C763   C765    1.391   .     A
C764   C766    1.391   .     A
C765   F805    1.362   .     S
C765   C767    1.382   .     A
C766   F806    1.362   .     S
C766   C768    1.382   .     A
C767   C773    1.397   .     A
C767   C769    1.411   .     A
C768   C774    1.397   .     A
C768   C770    1.411   .     A
C769   C771    1.421   .     A
C769   C212    1.401   1_556 S
C770   C772    1.421   .     A
C773   H775    1.084   .     S
C773   C189    1.384   1_556 S
C774   H776    1.084   .     S
N787   Zn797   2.009   .     S
N788   Zn798   2.009   .     S
O789   Zn797   1.997   .     S
O790   Zn798   1.997   .     S
O791   Zn797   1.996   .     S
O792   Zn798   1.996   .     S
O793   Zn797   2.011   .     S
O794   Zn798   2.011   .     S
O795   Zn797   2.011   .     S
O796   Zn798   2.011   .     S
C799   H800    1.084   .     S
C799   O801    1.221   .     D
C802   H803    1.084   .     S
C802   O804    1.221   .     D
C807   O854    1.282   .     A
C807   O851    1.282   .     A
C807   C816    1.416   .     S
C808   O853    1.282   .     A
C808   O852    1.282   .     A
C808   C815    1.416   .     S
C809   C834    1.406   .     A
C809   H839    1.080   .     S
C810   H840    1.080   .     S
C810   C833    1.406   .     A
C810   C278    1.384   1_556 S
C811   H841    1.084   .     S
C811   C816    1.396   .     A
C812   C815    1.396   .     A
C812   H842    1.084   .     S
C812   C876    1.370   .     S
C813   C815    1.396   .     A
C813   H843    1.084   .     S
C813   C873    1.370   .     S
C814   H844    1.084   .     S
C814   C816    1.396   .     A
C817   N850    1.366   .     A
C817   H845    1.082   .     S
C818   H846    1.082   .     S
C818   N849    1.366   .     A
C818   C1005   1.417   .     S
C819   H847    1.082   .     S
C819   N850    1.366   .     A
C820   H848    1.082   .     S
C820   N849    1.366   .     A
C820   C1003   1.417   .     S
C821   O858    1.282   .     A
C821   O855    1.283   .     A
C821   C826    1.425   .     S
C822   O857    1.282   .     A
C822   C825    1.425   .     S
C822   O856    1.283   .     A
C823   C861    1.492   .     S
C823   C833    1.406   .     A
C823   C825    1.406   .     A
C824   C864    1.492   .     S
C824   C834    1.406   .     A
C824   C826    1.406   .     A
C825   C827    1.391   .     A
C826   C828    1.391   .     A
C827   F867    1.362   .     S
C827   C829    1.382   .     A
C828   F868    1.362   .     S
C828   C830    1.382   .     A
C829   C835    1.397   .     A
C829   C831    1.411   .     A
C830   C836    1.397   .     A
C830   C832    1.411   .     A
C831   C833    1.421   .     A
C831   C274    1.401   1_556 S
C832   C834    1.421   .     A
C835   H837    1.084   .     S
C835   C251    1.384   1_556 S
C836   H838    1.084   .     S
N849   Zn859   2.009   .     S
N850   Zn860   2.009   .     S
O851   Zn859   1.997   .     S
O852   Zn860   1.997   .     S
O853   Zn859   1.996   .     S
O854   Zn860   1.996   .     S
O855   Zn859   2.011   .     S
O856   Zn860   2.011   .     S
O857   Zn859   2.011   .     S
O858   Zn860   2.011   .     S
C861   H862    1.084   .     S
C861   O863    1.221   .     D
C864   H865    1.084   .     S
C864   O866    1.221   .     D
C869   O916    1.282   .     A
C869   O913    1.282   .     A
C869   C878    1.416   .     S
C870   O915    1.282   .     A
C870   O914    1.282   .     A
C870   C877    1.416   .     S
C871   C896    1.406   .     A
C871   H901    1.080   .     S
C872   H902    1.080   .     S
C872   C895    1.406   .     A
C872   C340    1.384   1_556 S
C873   H903    1.084   .     S
C873   C878    1.396   .     A
C874   C877    1.396   .     A
C874   H904    1.084   .     S
C874   C752    1.370   1_655 S
C875   C877    1.396   .     A
C875   H905    1.084   .     S
C875   C749    1.370   1_655 S
C876   H906    1.084   .     S
C876   C878    1.396   .     A
C879   N912    1.366   .     A
C879   H907    1.082   .     S
C880   H908    1.082   .     S
C880   N911    1.366   .     A
C880   C1067   1.417   .     S
C881   H909    1.082   .     S
C881   N912    1.366   .     A
C882   H910    1.082   .     S
C882   N911    1.366   .     A
C882   C1065   1.417   .     S
C883   O920    1.282   .     A
C883   O917    1.283   .     A
C883   C888    1.425   .     S
C884   O919    1.282   .     A
C884   C887    1.425   .     S
C884   O918    1.283   .     A
C885   C923    1.492   .     S
C885   C895    1.406   .     A
C885   C887    1.406   .     A
C886   C926    1.492   .     S
C886   C896    1.406   .     A
C886   C888    1.406   .     A
C887   C889    1.391   .     A
C888   C890    1.391   .     A
C889   F929    1.362   .     S
C889   C891    1.382   .     A
C890   F930    1.362   .     S
C890   C892    1.382   .     A
C891   C897    1.397   .     A
C891   C893    1.411   .     A
C892   C898    1.397   .     A
C892   C894    1.411   .     A
C893   C895    1.421   .     A
C893   C336    1.401   1_556 S
C894   C896    1.421   .     A
C897   H899    1.084   .     S
C897   C313    1.384   1_556 S
C898   H900    1.084   .     S
N911   Zn921   2.009   .     S
N912   Zn922   2.009   .     S
O913   Zn921   1.997   .     S
O914   Zn922   1.997   .     S
O915   Zn921   1.996   .     S
O916   Zn922   1.996   .     S
O917   Zn921   2.011   .     S
O918   Zn922   2.011   .     S
O919   Zn921   2.011   .     S
O920   Zn922   2.011   .     S
C923   H924    1.084   .     S
C923   O925    1.221   .     D
C926   H927    1.084   .     S
C926   O928    1.221   .     D
C931   O978    1.282   .     A
C931   O975    1.282   .     A
C931   C940    1.416   .     S
C932   O977    1.282   .     A
C932   O976    1.282   .     A
C932   C939    1.416   .     S
C933   C958    1.406   .     A
C933   H963    1.080   .     S
C934   H964    1.080   .     S
C934   C957    1.406   .     A
C934   C402    1.384   1_556 S
C935   H965    1.084   .     S
C935   C940    1.396   .     A
C935   C1061   1.370   1_455 S
C936   C939    1.396   .     A
C936   H966    1.084   .     S
C936   C1000   1.370   .     S
C937   C939    1.396   .     A
C937   H967    1.084   .     S
C937   C997    1.370   .     S
C938   H968    1.084   .     S
C938   C940    1.396   .     A
C938   C1060   1.370   1_455 S
C941   N974    1.366   .     A
C941   H969    1.082   .     S
C942   H970    1.082   .     S
C942   N973    1.366   .     A
C942   C571    1.417   1_565 S
C943   H971    1.082   .     S
C943   N974    1.366   .     A
C944   H972    1.082   .     S
C944   N973    1.366   .     A
C944   C569    1.417   1_565 S
C945   O982    1.282   .     A
C945   O979    1.283   .     A
C945   C950    1.425   .     S
C946   O981    1.282   .     A
C946   C949    1.425   .     S
C946   O980    1.283   .     A
C947   C985    1.492   .     S
C947   C957    1.406   .     A
C947   C949    1.406   .     A
C948   C988    1.492   .     S
C948   C958    1.406   .     A
C948   C950    1.406   .     A
C949   C951    1.391   .     A
C950   C952    1.391   .     A
C951   F991    1.362   .     S
C951   C953    1.382   .     A
C952   F992    1.362   .     S
C952   C954    1.382   .     A
C953   C959    1.397   .     A
C953   C955    1.411   .     A
C954   C960    1.397   .     A
C954   C956    1.411   .     A
C955   C957    1.421   .     A
C955   C398    1.401   1_556 S
C956   C958    1.421   .     A
C959   H961    1.084   .     S
C959   C375    1.384   1_556 S
C960   H962    1.084   .     S
N973   Zn983   2.009   .     S
N974   Zn984   2.009   .     S
O975   Zn983   1.997   .     S
O976   Zn984   1.997   .     S
O977   Zn983   1.996   .     S
O978   Zn984   1.996   .     S
O979   Zn983   2.011   .     S
O980   Zn984   2.011   .     S
O981   Zn983   2.011   .     S
O982   Zn984   2.011   .     S
C985   H986    1.084   .     S
C985   O987    1.221   .     D
C988   H989    1.084   .     S
C988   O990    1.221   .     D
C993   O1040   1.282   .     A
C993   O1037   1.282   .     A
C993   C1002   1.416   .     S
C994   O1039   1.282   .     A
C994   O1038   1.282   .     A
C994   C1001   1.416   .     S
C995   C1020   1.406   .     A
C995   H1025   1.080   .     S
C996   H1026   1.080   .     S
C996   C1019   1.406   .     A
C996   C464    1.384   1_556 S
C997   H1027   1.084   .     S
C997   C1002   1.396   .     A
C998   C1001   1.396   .     A
C998   H1028   1.084   .     S
C998   C1062   1.370   .     S
C999   C1001   1.396   .     A
C999   H1029   1.084   .     S
C999   C1059   1.370   .     S
C1000  H1030   1.084   .     S
C1000  C1002   1.396   .     A
C1003  N1036   1.366   .     A
C1003  H1031   1.082   .     S
C1004  H1032   1.082   .     S
C1004  N1035   1.366   .     A
C1004  C633    1.417   1_565 S
C1005  H1033   1.082   .     S
C1005  N1036   1.366   .     A
C1006  H1034   1.082   .     S
C1006  N1035   1.366   .     A
C1006  C631    1.417   1_565 S
C1007  O1044   1.282   .     A
C1007  O1041   1.283   .     A
C1007  C1012   1.425   .     S
C1008  O1043   1.282   .     A
C1008  C1011   1.425   .     S
C1008  O1042   1.283   .     A
C1009  C1047   1.492   .     S
C1009  C1019   1.406   .     A
C1009  C1011   1.406   .     A
C1010  C1050   1.492   .     S
C1010  C1020   1.406   .     A
C1010  C1012   1.406   .     A
C1011  C1013   1.391   .     A
C1012  C1014   1.391   .     A
C1013  F1053   1.362   .     S
C1013  C1015   1.382   .     A
C1014  F1054   1.362   .     S
C1014  C1016   1.382   .     A
C1015  C1021   1.397   .     A
C1015  C1017   1.411   .     A
C1016  C1022   1.397   .     A
C1016  C1018   1.411   .     A
C1017  C1019   1.421   .     A
C1017  C460    1.401   1_556 S
C1018  C1020   1.421   .     A
C1021  H1023   1.084   .     S
C1021  C437    1.384   1_556 S
C1022  H1024   1.084   .     S
N1035  Zn1045  2.009   .     S
N1036  Zn1046  2.009   .     S
O1037  Zn1045  1.997   .     S
O1038  Zn1046  1.997   .     S
O1039  Zn1045  1.996   .     S
O1040  Zn1046  1.996   .     S
O1041  Zn1045  2.011   .     S
O1042  Zn1046  2.011   .     S
O1043  Zn1045  2.011   .     S
O1044  Zn1046  2.011   .     S
C1047  H1048   1.084   .     S
C1047  O1049   1.221   .     D
C1050  H1051   1.084   .     S
C1050  O1052   1.221   .     D
C1055  O1102   1.282   .     A
C1055  O1099   1.282   .     A
C1055  C1064   1.416   .     S
C1056  O1101   1.282   .     A
C1056  O1100   1.282   .     A
C1056  C1063   1.416   .     S
C1057  C1082   1.406   .     A
C1057  H1087   1.080   .     S
C1058  H1088   1.080   .     S
C1058  C1081   1.406   .     A
C1058  C526    1.384   1_556 S
C1059  H1089   1.084   .     S
C1059  C1064   1.396   .     A
C1060  C1063   1.396   .     A
C1060  H1090   1.084   .     S
C1060  C938    1.370   1_655 S
C1061  C1063   1.396   .     A
C1061  H1091   1.084   .     S
C1061  C935    1.370   1_655 S
C1062  H1092   1.084   .     S
C1062  C1064   1.396   .     A
C1065  N1098   1.366   .     A
C1065  H1093   1.082   .     S
C1066  H1094   1.082   .     S
C1066  N1097   1.366   .     A
C1066  C695    1.417   1_565 S
C1067  H1095   1.082   .     S
C1067  N1098   1.366   .     A
C1068  H1096   1.082   .     S
C1068  N1097   1.366   .     A
C1068  C693    1.417   1_565 S
C1069  O1106   1.282   .     A
C1069  O1103   1.283   .     A
C1069  C1074   1.425   .     S
C1070  O1105   1.282   .     A
C1070  C1073   1.425   .     S
C1070  O1104   1.283   .     A
C1071  C1109   1.492   .     S
C1071  C1081   1.406   .     A
C1071  C1073   1.406   .     A
C1072  C1112   1.492   .     S
C1072  C1082   1.406   .     A
C1072  C1074   1.406   .     A
C1073  C1075   1.391   .     A
C1074  C1076   1.391   .     A
C1075  F1115   1.362   .     S
C1075  C1077   1.382   .     A
C1076  F1116   1.362   .     S
C1076  C1078   1.382   .     A
C1077  C1083   1.397   .     A
C1077  C1079   1.411   .     A
C1078  C1084   1.397   .     A
C1078  C1080   1.411   .     A
C1079  C1081   1.421   .     A
C1079  C522    1.401   1_556 S
C1080  C1082   1.421   .     A
C1083  H1085   1.084   .     S
C1083  C499    1.384   1_556 S
C1084  H1086   1.084   .     S
N1097  Zn1107  2.009   .     S
N1098  Zn1108  2.009   .     S
O1099  Zn1107  1.997   .     S
O1100  Zn1108  1.997   .     S
O1101  Zn1107  1.996   .     S
O1102  Zn1108  1.996   .     S
O1103  Zn1107  2.011   .     S
O1104  Zn1108  2.011   .     S
O1105  Zn1107  2.011   .     S
O1106  Zn1108  2.011   .     S
C1109  H1110   1.084   .     S
C1109  O1111   1.221   .     D
C1112  H1113   1.084   .     S
C1112  O1114   1.221   .     D
