data_str_m3_o1_o17_pcu_sym.131
_audit_creation_date              2020-01-03
_audit_creation_method            'Materials Studio'
_symmetry_space_group_name_H-M    'P1'
_symmetry_Int_Tables_number       1
_symmetry_cell_setting            triclinic
loop_
_symmetry_equiv_pos_as_xyz
  x,y,z
_cell_length_a                    31.5839
_cell_length_b                    29.7583
_cell_length_c                    29.6037
_cell_angle_alpha                 90.5989
_cell_angle_beta                  90.3600
_cell_angle_gamma                 90.0989
loop_
_atom_site_label
_atom_site_type_symbol
_atom_site_fract_x
_atom_site_fract_y
_atom_site_fract_z
_atom_site_U_iso_or_equiv
_atom_site_adp_type
_atom_site_occupancy
C1     C     0.08721   0.16670   0.25744   0.00000  Uiso   1.00
C2     C     0.24704   0.16674   0.24589   0.00000  Uiso   1.00
C3     C     0.09992   0.11466   0.02220   0.00000  Uiso   1.00
C4     C     0.24943   0.14985   0.47626   0.00000  Uiso   1.00
C5     C     0.02048   0.12586   0.26698   0.00000  Uiso   1.00
C6     C     0.31484   0.20834   0.24536   0.00000  Uiso   1.00
C7     C     0.31420   0.12555   0.24609   0.00000  Uiso   1.00
C8     C     0.02103   0.20799   0.26636   0.00000  Uiso   1.00
C9     C     0.29281   0.16697   0.24157   0.00000  Uiso   1.00
C10    C     0.04258   0.16683   0.26850   0.00000  Uiso   1.00
C11    C     0.19272   0.02447   0.27871   0.00000  Uiso   1.00
C12    C     0.14059   0.30896   0.22127   0.00000  Uiso   1.00
C13    C     0.13919   0.02362   0.22275   0.00000  Uiso   1.00
C14    C     0.19406   0.30980   0.27741   0.00000  Uiso   1.00
C15    C     0.16711   0.16634   0.16327   0.00000  Uiso   1.00
C16    C     0.16644   0.16670   0.33661   0.00000  Uiso   1.00
C17    C     0.20754   0.16469   0.40642   0.00000  Uiso   1.00
C18    C     0.13163   0.14760   0.09224   0.00000  Uiso   1.00
C19    C     0.16776   0.16502   0.38508   0.00000  Uiso   1.00
C20    C     0.16792   0.16391   0.11457   0.00000  Uiso   1.00
C21    C     0.13054   0.15341   0.40785   0.00000  Uiso   1.00
C22    C     0.20661   0.16930   0.09195   0.00000  Uiso   1.00
C23    C     0.13361   0.13803   0.45248   0.00000  Uiso   1.00
C24    C     0.20976   0.15532   0.04660   0.00000  Uiso   1.00
C25    C     0.17233   0.14398   0.47584   0.00000  Uiso   1.00
C26    C     0.17226   0.14374   0.02303   0.00000  Uiso   1.00
C27    C     0.21035   0.15311   0.45242   0.00000  Uiso   1.00
C28    C     0.13400   0.13534   0.04624   0.00000  Uiso   1.00
C29    C     0.09984   0.11587   0.47456   0.00000  Uiso   1.00
C30    C     0.24916   0.15162   0.02386   0.00000  Uiso   1.00
N31    N     0.16667   0.28573   0.25000   0.00000  Uiso   1.00
N32    N     0.16667   0.04760   0.25000   0.00000  Uiso   1.00
O33    O     0.10559   0.20487   0.24999   0.00000  Uiso   1.00
O34    O     0.22774   0.12846   0.25000   0.00000  Uiso   1.00
O35    O     0.22774   0.20487   0.25000   0.00000  Uiso   1.00
O36    O     0.10559   0.12846   0.24999   0.00000  Uiso   1.00
O37    O     0.16666   0.20489   0.18392   0.00000  Uiso   1.00
O38    O     0.16667   0.12844   0.31607   0.00000  Uiso   1.00
O39    O     0.16667   0.20489   0.31607   0.00000  Uiso   1.00
O40    O     0.16666   0.12844   0.18392   0.00000  Uiso   1.00
Zn41   Zn    0.16667   0.21771   0.25000   0.00000  Uiso   1.00
Zn42   Zn    0.16667   0.11563   0.25000   0.00000  Uiso   1.00
C43    C     0.24404   0.18071   0.38147   0.00000  Uiso   1.00
N44    N     0.27304   0.19339   0.36153   0.00000  Uiso   1.00
C45    C     0.09128   0.14998   0.11565   0.00000  Uiso   1.00
N46    N     0.05930   0.15209   0.13445   0.00000  Uiso   1.00
C47    C     0.08879   0.16294   0.38626   0.00000  Uiso   1.00
H48    H     0.08484   0.15977   0.35013   0.00000  Uiso   1.00
O49    O     0.05891   0.17631   0.40864   0.00000  Uiso   1.00
C50    C     0.24167   0.19528   0.11325   0.00000  Uiso   1.00
H51    H     0.25827   0.22052   0.09392   0.00000  Uiso   1.00
O52    O     0.25385   0.18701   0.15129   0.00000  Uiso   1.00
C53    C     0.06851   0.08835   0.44829   0.00000  Uiso   1.00
H54    H     0.03666   0.08335   0.46056   0.00000  Uiso   1.00
O55    O     0.07859   0.06974   0.41300   0.00000  Uiso   1.00
C56    C     0.28928   0.14329   0.04921   0.00000  Uiso   1.00
H57    H     0.31874   0.15851   0.03859   0.00000  Uiso   1.00
O58    O     0.28979   0.11820   0.08159   0.00000  Uiso   1.00
C59    C     0.06778   0.08697   0.04580   0.00000  Uiso   1.00
H60    H     0.03479   0.08790   0.03566   0.00000  Uiso   1.00
O61    O     0.07834   0.06179   0.07616   0.00000  Uiso   1.00
C62    C     0.28961   0.13878   0.45268   0.00000  Uiso   1.00
H63    H     0.31889   0.15562   0.46201   0.00000  Uiso   1.00
O64    O     0.29039   0.10947   0.42350   0.00000  Uiso   1.00
C65    C     0.03741   0.08590   0.29142   0.00000  Uiso   1.00
H66    H     0.06921   0.08613   0.30537   0.00000  Uiso   1.00
O67    O     0.01505   0.05360   0.29983   0.00000  Uiso   1.00
C68    C     0.29993   0.24961   0.22135   0.00000  Uiso   1.00
H69    H     0.26839   0.25211   0.20728   0.00000  Uiso   1.00
O70    O     0.32406   0.28063   0.21354   0.00000  Uiso   1.00
C71    C     0.29912   0.08402   0.22203   0.00000  Uiso   1.00
H72    H     0.31131   0.05116   0.23030   0.00000  Uiso   1.00
O73    O     0.27473   0.08643   0.18996   0.00000  Uiso   1.00
C74    C     0.03719   0.24893   0.29069   0.00000  Uiso   1.00
H75    H     0.02120   0.28093   0.28779   0.00000  Uiso   1.00
O76    O     0.06698   0.24677   0.31708   0.00000  Uiso   1.00
C77    C     0.21650   0.04921   0.31432   0.00000  Uiso   1.00
H78    H     0.23777   0.07623   0.30627   0.00000  Uiso   1.00
O79    O     0.21264   0.03886   0.35389   0.00000  Uiso   1.00
C80    C     0.11672   0.28448   0.18549   0.00000  Uiso   1.00
H81    H     0.09737   0.25577   0.19293   0.00000  Uiso   1.00
O82    O     0.11851   0.29678   0.14632   0.00000  Uiso   1.00
C83    C     0.10538   0.04737   0.19757   0.00000  Uiso   1.00
H84    H     0.11145   0.07826   0.18040   0.00000  Uiso   1.00
O85    O     0.06936   0.03239   0.19626   0.00000  Uiso   1.00
C86    C     0.22751   0.28618   0.30325   0.00000  Uiso   1.00
H87    H     0.22172   0.25443   0.31870   0.00000  Uiso   1.00
O88    O     0.26300   0.30219   0.30705   0.00000  Uiso   1.00
C89    C     0.42055   0.16670   0.25744   0.00000  Uiso   1.00
C90    C     0.58037   0.16674   0.24589   0.00000  Uiso   1.00
C91    C     0.43326   0.11466   0.02220   0.00000  Uiso   1.00
C92    C     0.58276   0.14985   0.47626   0.00000  Uiso   1.00
C93    C     0.35381   0.12586   0.26698   0.00000  Uiso   1.00
C94    C     0.64818   0.20834   0.24536   0.00000  Uiso   1.00
C95    C     0.64754   0.12555   0.24609   0.00000  Uiso   1.00
C96    C     0.35436   0.20799   0.26636   0.00000  Uiso   1.00
C97    C     0.62614   0.16697   0.24157   0.00000  Uiso   1.00
C98    C     0.37592   0.16683   0.26850   0.00000  Uiso   1.00
C99    C     0.52605   0.02447   0.27871   0.00000  Uiso   1.00
C100   C     0.47392   0.30896   0.22127   0.00000  Uiso   1.00
C101   C     0.47252   0.02362   0.22275   0.00000  Uiso   1.00
C102   C     0.52739   0.30980   0.27741   0.00000  Uiso   1.00
C103   C     0.50045   0.16634   0.16327   0.00000  Uiso   1.00
C104   C     0.49978   0.16670   0.33661   0.00000  Uiso   1.00
C105   C     0.54088   0.16469   0.40642   0.00000  Uiso   1.00
C106   C     0.46496   0.14760   0.09224   0.00000  Uiso   1.00
C107   C     0.50110   0.16502   0.38508   0.00000  Uiso   1.00
C108   C     0.50125   0.16391   0.11457   0.00000  Uiso   1.00
C109   C     0.46387   0.15341   0.40785   0.00000  Uiso   1.00
C110   C     0.53994   0.16930   0.09195   0.00000  Uiso   1.00
C111   C     0.46695   0.13803   0.45248   0.00000  Uiso   1.00
C112   C     0.54309   0.15532   0.04660   0.00000  Uiso   1.00
C113   C     0.50566   0.14398   0.47584   0.00000  Uiso   1.00
C114   C     0.50560   0.14374   0.02303   0.00000  Uiso   1.00
C115   C     0.54368   0.15311   0.45242   0.00000  Uiso   1.00
C116   C     0.46733   0.13534   0.04624   0.00000  Uiso   1.00
C117   C     0.43318   0.11587   0.47456   0.00000  Uiso   1.00
C118   C     0.58250   0.15162   0.02386   0.00000  Uiso   1.00
N119   N     0.50000   0.28573   0.25000   0.00000  Uiso   1.00
N120   N     0.50000   0.04760   0.25000   0.00000  Uiso   1.00
O121   O     0.43892   0.20487   0.24999   0.00000  Uiso   1.00
O122   O     0.56108   0.12846   0.25000   0.00000  Uiso   1.00
O123   O     0.56108   0.20487   0.25000   0.00000  Uiso   1.00
O124   O     0.43892   0.12846   0.24999   0.00000  Uiso   1.00
O125   O     0.49999   0.20489   0.18392   0.00000  Uiso   1.00
O126   O     0.50001   0.12844   0.31607   0.00000  Uiso   1.00
O127   O     0.50001   0.20489   0.31607   0.00000  Uiso   1.00
O128   O     0.49999   0.12844   0.18392   0.00000  Uiso   1.00
Zn129  Zn    0.50000   0.21771   0.25000   0.00000  Uiso   1.00
Zn130  Zn    0.50000   0.11563   0.25000   0.00000  Uiso   1.00
C131   C     0.57737   0.18071   0.38147   0.00000  Uiso   1.00
N132   N     0.60638   0.19339   0.36153   0.00000  Uiso   1.00
C133   C     0.42462   0.14998   0.11565   0.00000  Uiso   1.00
N134   N     0.39263   0.15209   0.13445   0.00000  Uiso   1.00
C135   C     0.42212   0.16294   0.38626   0.00000  Uiso   1.00
H136   H     0.41817   0.15977   0.35013   0.00000  Uiso   1.00
O137   O     0.39224   0.17631   0.40864   0.00000  Uiso   1.00
C138   C     0.57500   0.19528   0.11325   0.00000  Uiso   1.00
H139   H     0.59160   0.22052   0.09392   0.00000  Uiso   1.00
O140   O     0.58718   0.18701   0.15129   0.00000  Uiso   1.00
C141   C     0.40185   0.08835   0.44829   0.00000  Uiso   1.00
H142   H     0.36999   0.08335   0.46056   0.00000  Uiso   1.00
O143   O     0.41193   0.06974   0.41300   0.00000  Uiso   1.00
C144   C     0.62261   0.14329   0.04921   0.00000  Uiso   1.00
H145   H     0.65208   0.15851   0.03859   0.00000  Uiso   1.00
O146   O     0.62312   0.11820   0.08159   0.00000  Uiso   1.00
C147   C     0.40111   0.08697   0.04580   0.00000  Uiso   1.00
H148   H     0.36812   0.08790   0.03566   0.00000  Uiso   1.00
O149   O     0.41168   0.06179   0.07616   0.00000  Uiso   1.00
C150   C     0.62295   0.13878   0.45268   0.00000  Uiso   1.00
H151   H     0.65223   0.15562   0.46201   0.00000  Uiso   1.00
O152   O     0.62373   0.10947   0.42350   0.00000  Uiso   1.00
C153   C     0.37074   0.08590   0.29142   0.00000  Uiso   1.00
H154   H     0.40254   0.08613   0.30537   0.00000  Uiso   1.00
O155   O     0.34838   0.05360   0.29983   0.00000  Uiso   1.00
C156   C     0.63326   0.24961   0.22135   0.00000  Uiso   1.00
H157   H     0.60173   0.25211   0.20728   0.00000  Uiso   1.00
O158   O     0.65740   0.28063   0.21354   0.00000  Uiso   1.00
C159   C     0.63246   0.08402   0.22203   0.00000  Uiso   1.00
H160   H     0.64465   0.05116   0.23030   0.00000  Uiso   1.00
O161   O     0.60806   0.08643   0.18996   0.00000  Uiso   1.00
C162   C     0.37053   0.24893   0.29069   0.00000  Uiso   1.00
H163   H     0.35454   0.28093   0.28779   0.00000  Uiso   1.00
O164   O     0.40031   0.24677   0.31708   0.00000  Uiso   1.00
C165   C     0.54983   0.04921   0.31432   0.00000  Uiso   1.00
H166   H     0.57110   0.07623   0.30627   0.00000  Uiso   1.00
O167   O     0.54597   0.03886   0.35389   0.00000  Uiso   1.00
C168   C     0.45006   0.28448   0.18549   0.00000  Uiso   1.00
H169   H     0.43070   0.25577   0.19293   0.00000  Uiso   1.00
O170   O     0.45185   0.29678   0.14632   0.00000  Uiso   1.00
C171   C     0.43872   0.04737   0.19757   0.00000  Uiso   1.00
H172   H     0.44478   0.07826   0.18040   0.00000  Uiso   1.00
O173   O     0.40270   0.03239   0.19626   0.00000  Uiso   1.00
C174   C     0.56084   0.28618   0.30325   0.00000  Uiso   1.00
H175   H     0.55505   0.25443   0.31870   0.00000  Uiso   1.00
O176   O     0.59634   0.30219   0.30705   0.00000  Uiso   1.00
C177   C     0.75388   0.16670   0.25744   0.00000  Uiso   1.00
C178   C     0.91371   0.16674   0.24589   0.00000  Uiso   1.00
C179   C     0.76659   0.11466   0.02220   0.00000  Uiso   1.00
C180   C     0.91609   0.14985   0.47626   0.00000  Uiso   1.00
C181   C     0.68715   0.12586   0.26698   0.00000  Uiso   1.00
C182   C     0.98151   0.20834   0.24536   0.00000  Uiso   1.00
C183   C     0.98087   0.12555   0.24609   0.00000  Uiso   1.00
C184   C     0.68770   0.20799   0.26636   0.00000  Uiso   1.00
C185   C     0.95948   0.16697   0.24157   0.00000  Uiso   1.00
C186   C     0.70925   0.16683   0.26850   0.00000  Uiso   1.00
C187   C     0.85939   0.02447   0.27871   0.00000  Uiso   1.00
C188   C     0.80725   0.30896   0.22127   0.00000  Uiso   1.00
C189   C     0.80585   0.02362   0.22275   0.00000  Uiso   1.00
C190   C     0.86072   0.30980   0.27741   0.00000  Uiso   1.00
C191   C     0.83378   0.16634   0.16327   0.00000  Uiso   1.00
C192   C     0.83311   0.16670   0.33661   0.00000  Uiso   1.00
C193   C     0.87421   0.16469   0.40642   0.00000  Uiso   1.00
C194   C     0.79829   0.14760   0.09224   0.00000  Uiso   1.00
C195   C     0.83443   0.16502   0.38508   0.00000  Uiso   1.00
C196   C     0.83459   0.16391   0.11457   0.00000  Uiso   1.00
C197   C     0.79720   0.15341   0.40785   0.00000  Uiso   1.00
C198   C     0.87327   0.16930   0.09195   0.00000  Uiso   1.00
C199   C     0.80028   0.13803   0.45248   0.00000  Uiso   1.00
C200   C     0.87642   0.15532   0.04660   0.00000  Uiso   1.00
C201   C     0.83899   0.14398   0.47584   0.00000  Uiso   1.00
C202   C     0.83893   0.14374   0.02303   0.00000  Uiso   1.00
C203   C     0.87702   0.15311   0.45242   0.00000  Uiso   1.00
C204   C     0.80066   0.13534   0.04624   0.00000  Uiso   1.00
C205   C     0.76651   0.11587   0.47456   0.00000  Uiso   1.00
C206   C     0.91583   0.15162   0.02386   0.00000  Uiso   1.00
N207   N     0.83333   0.28573   0.25000   0.00000  Uiso   1.00
N208   N     0.83333   0.04760   0.25000   0.00000  Uiso   1.00
O209   O     0.77226   0.20487   0.24999   0.00000  Uiso   1.00
O210   O     0.89441   0.12846   0.25000   0.00000  Uiso   1.00
O211   O     0.89441   0.20487   0.25000   0.00000  Uiso   1.00
O212   O     0.77226   0.12846   0.24999   0.00000  Uiso   1.00
O213   O     0.83333   0.20489   0.18392   0.00000  Uiso   1.00
O214   O     0.83334   0.12844   0.31607   0.00000  Uiso   1.00
O215   O     0.83334   0.20489   0.31607   0.00000  Uiso   1.00
O216   O     0.83333   0.12844   0.18392   0.00000  Uiso   1.00
Zn217  Zn    0.83333   0.21771   0.25000   0.00000  Uiso   1.00
Zn218  Zn    0.83333   0.11563   0.25000   0.00000  Uiso   1.00
C219   C     0.91071   0.18071   0.38147   0.00000  Uiso   1.00
N220   N     0.93971   0.19339   0.36153   0.00000  Uiso   1.00
C221   C     0.75795   0.14998   0.11565   0.00000  Uiso   1.00
N222   N     0.72597   0.15209   0.13445   0.00000  Uiso   1.00
C223   C     0.75546   0.16294   0.38626   0.00000  Uiso   1.00
H224   H     0.75150   0.15977   0.35013   0.00000  Uiso   1.00
O225   O     0.72558   0.17631   0.40864   0.00000  Uiso   1.00
C226   C     0.90833   0.19528   0.11325   0.00000  Uiso   1.00
H227   H     0.92493   0.22052   0.09392   0.00000  Uiso   1.00
O228   O     0.92051   0.18701   0.15129   0.00000  Uiso   1.00
C229   C     0.73518   0.08835   0.44829   0.00000  Uiso   1.00
H230   H     0.70333   0.08335   0.46056   0.00000  Uiso   1.00
O231   O     0.74526   0.06974   0.41300   0.00000  Uiso   1.00
C232   C     0.95595   0.14329   0.04921   0.00000  Uiso   1.00
H233   H     0.98541   0.15851   0.03859   0.00000  Uiso   1.00
O234   O     0.95645   0.11820   0.08159   0.00000  Uiso   1.00
C235   C     0.73445   0.08697   0.04580   0.00000  Uiso   1.00
H236   H     0.70145   0.08790   0.03566   0.00000  Uiso   1.00
O237   O     0.74501   0.06179   0.07616   0.00000  Uiso   1.00
C238   C     0.95628   0.13878   0.45268   0.00000  Uiso   1.00
H239   H     0.98556   0.15562   0.46201   0.00000  Uiso   1.00
O240   O     0.95706   0.10947   0.42350   0.00000  Uiso   1.00
C241   C     0.70407   0.08590   0.29142   0.00000  Uiso   1.00
H242   H     0.73588   0.08613   0.30537   0.00000  Uiso   1.00
O243   O     0.68171   0.05360   0.29983   0.00000  Uiso   1.00
C244   C     0.96659   0.24961   0.22135   0.00000  Uiso   1.00
H245   H     0.93506   0.25211   0.20728   0.00000  Uiso   1.00
O246   O     0.99073   0.28063   0.21354   0.00000  Uiso   1.00
C247   C     0.96579   0.08402   0.22203   0.00000  Uiso   1.00
H248   H     0.97798   0.05116   0.23030   0.00000  Uiso   1.00
O249   O     0.94140   0.08643   0.18996   0.00000  Uiso   1.00
C250   C     0.70386   0.24893   0.29069   0.00000  Uiso   1.00
H251   H     0.68787   0.28093   0.28779   0.00000  Uiso   1.00
O252   O     0.73364   0.24677   0.31708   0.00000  Uiso   1.00
C253   C     0.88317   0.04921   0.31432   0.00000  Uiso   1.00
H254   H     0.90443   0.07623   0.30627   0.00000  Uiso   1.00
O255   O     0.87931   0.03886   0.35389   0.00000  Uiso   1.00
C256   C     0.78339   0.28448   0.18549   0.00000  Uiso   1.00
H257   H     0.76403   0.25577   0.19293   0.00000  Uiso   1.00
O258   O     0.78518   0.29678   0.14632   0.00000  Uiso   1.00
C259   C     0.77205   0.04737   0.19757   0.00000  Uiso   1.00
H260   H     0.77812   0.07826   0.18040   0.00000  Uiso   1.00
O261   O     0.73603   0.03239   0.19626   0.00000  Uiso   1.00
C262   C     0.89418   0.28618   0.30325   0.00000  Uiso   1.00
H263   H     0.88838   0.25443   0.31870   0.00000  Uiso   1.00
O264   O     0.92967   0.30219   0.30705   0.00000  Uiso   1.00
C265   C     0.08721   0.50003   0.25744   0.00000  Uiso   1.00
C266   C     0.24704   0.50008   0.24589   0.00000  Uiso   1.00
C267   C     0.09992   0.44799   0.02220   0.00000  Uiso   1.00
C268   C     0.24943   0.48318   0.47626   0.00000  Uiso   1.00
C269   C     0.02048   0.45919   0.26698   0.00000  Uiso   1.00
C270   C     0.31484   0.54167   0.24536   0.00000  Uiso   1.00
C271   C     0.31420   0.45888   0.24609   0.00000  Uiso   1.00
C272   C     0.02103   0.54132   0.26636   0.00000  Uiso   1.00
C273   C     0.29281   0.50030   0.24157   0.00000  Uiso   1.00
C274   C     0.04258   0.50016   0.26850   0.00000  Uiso   1.00
C275   C     0.19272   0.35780   0.27871   0.00000  Uiso   1.00
C276   C     0.14059   0.64229   0.22127   0.00000  Uiso   1.00
C277   C     0.13919   0.35696   0.22275   0.00000  Uiso   1.00
C278   C     0.19406   0.64313   0.27741   0.00000  Uiso   1.00
C279   C     0.16711   0.49967   0.16327   0.00000  Uiso   1.00
C280   C     0.16644   0.50003   0.33661   0.00000  Uiso   1.00
C281   C     0.20754   0.49803   0.40642   0.00000  Uiso   1.00
C282   C     0.13163   0.48093   0.09224   0.00000  Uiso   1.00
C283   C     0.16776   0.49835   0.38508   0.00000  Uiso   1.00
C284   C     0.16792   0.49724   0.11457   0.00000  Uiso   1.00
C285   C     0.13054   0.48674   0.40785   0.00000  Uiso   1.00
C286   C     0.20661   0.50263   0.09195   0.00000  Uiso   1.00
C287   C     0.13361   0.47137   0.45248   0.00000  Uiso   1.00
C288   C     0.20976   0.48865   0.04660   0.00000  Uiso   1.00
C289   C     0.17233   0.47731   0.47584   0.00000  Uiso   1.00
C290   C     0.17226   0.47708   0.02303   0.00000  Uiso   1.00
C291   C     0.21035   0.48644   0.45242   0.00000  Uiso   1.00
C292   C     0.13400   0.46868   0.04624   0.00000  Uiso   1.00
C293   C     0.09984   0.44920   0.47456   0.00000  Uiso   1.00
C294   C     0.24916   0.48495   0.02386   0.00000  Uiso   1.00
N295   N     0.16667   0.61907   0.25000   0.00000  Uiso   1.00
N296   N     0.16667   0.38093   0.25000   0.00000  Uiso   1.00
O297   O     0.10559   0.53821   0.24999   0.00000  Uiso   1.00
O298   O     0.22774   0.46179   0.25000   0.00000  Uiso   1.00
O299   O     0.22774   0.53821   0.25000   0.00000  Uiso   1.00
O300   O     0.10559   0.46179   0.24999   0.00000  Uiso   1.00
O301   O     0.16666   0.53823   0.18392   0.00000  Uiso   1.00
O302   O     0.16667   0.46177   0.31607   0.00000  Uiso   1.00
O303   O     0.16667   0.53823   0.31607   0.00000  Uiso   1.00
O304   O     0.16666   0.46177   0.18392   0.00000  Uiso   1.00
Zn305  Zn    0.16667   0.55104   0.25000   0.00000  Uiso   1.00
Zn306  Zn    0.16667   0.44896   0.25000   0.00000  Uiso   1.00
C307   C     0.24404   0.51404   0.38147   0.00000  Uiso   1.00
N308   N     0.27304   0.52672   0.36153   0.00000  Uiso   1.00
C309   C     0.09128   0.48331   0.11565   0.00000  Uiso   1.00
N310   N     0.05930   0.48542   0.13445   0.00000  Uiso   1.00
C311   C     0.08879   0.49627   0.38626   0.00000  Uiso   1.00
H312   H     0.08484   0.49310   0.35013   0.00000  Uiso   1.00
O313   O     0.05891   0.50965   0.40864   0.00000  Uiso   1.00
C314   C     0.24167   0.52861   0.11325   0.00000  Uiso   1.00
H315   H     0.25827   0.55385   0.09392   0.00000  Uiso   1.00
O316   O     0.25385   0.52034   0.15129   0.00000  Uiso   1.00
C317   C     0.06851   0.42168   0.44829   0.00000  Uiso   1.00
H318   H     0.03666   0.41668   0.46056   0.00000  Uiso   1.00
O319   O     0.07859   0.40308   0.41300   0.00000  Uiso   1.00
C320   C     0.28928   0.47663   0.04921   0.00000  Uiso   1.00
H321   H     0.31874   0.49185   0.03859   0.00000  Uiso   1.00
O322   O     0.28979   0.45153   0.08159   0.00000  Uiso   1.00
C323   C     0.06778   0.42030   0.04580   0.00000  Uiso   1.00
H324   H     0.03479   0.42123   0.03566   0.00000  Uiso   1.00
O325   O     0.07834   0.39513   0.07616   0.00000  Uiso   1.00
C326   C     0.28961   0.47212   0.45268   0.00000  Uiso   1.00
H327   H     0.31889   0.48896   0.46201   0.00000  Uiso   1.00
O328   O     0.29039   0.44281   0.42350   0.00000  Uiso   1.00
C329   C     0.03741   0.41923   0.29142   0.00000  Uiso   1.00
H330   H     0.06921   0.41946   0.30537   0.00000  Uiso   1.00
O331   O     0.01505   0.38693   0.29983   0.00000  Uiso   1.00
C332   C     0.29993   0.58294   0.22135   0.00000  Uiso   1.00
H333   H     0.26839   0.58545   0.20728   0.00000  Uiso   1.00
O334   O     0.32406   0.61396   0.21354   0.00000  Uiso   1.00
C335   C     0.29912   0.41735   0.22203   0.00000  Uiso   1.00
H336   H     0.31131   0.38449   0.23030   0.00000  Uiso   1.00
O337   O     0.27473   0.41976   0.18996   0.00000  Uiso   1.00
C338   C     0.03719   0.58226   0.29069   0.00000  Uiso   1.00
H339   H     0.02120   0.61427   0.28779   0.00000  Uiso   1.00
O340   O     0.06698   0.58010   0.31708   0.00000  Uiso   1.00
C341   C     0.21650   0.38255   0.31432   0.00000  Uiso   1.00
H342   H     0.23777   0.40957   0.30627   0.00000  Uiso   1.00
O343   O     0.21264   0.37219   0.35389   0.00000  Uiso   1.00
C344   C     0.11672   0.61781   0.18549   0.00000  Uiso   1.00
H345   H     0.09737   0.58910   0.19293   0.00000  Uiso   1.00
O346   O     0.11851   0.63012   0.14632   0.00000  Uiso   1.00
C347   C     0.10538   0.38070   0.19757   0.00000  Uiso   1.00
H348   H     0.11145   0.41159   0.18040   0.00000  Uiso   1.00
O349   O     0.06936   0.36573   0.19626   0.00000  Uiso   1.00
C350   C     0.22751   0.61951   0.30325   0.00000  Uiso   1.00
H351   H     0.22172   0.58777   0.31870   0.00000  Uiso   1.00
O352   O     0.26300   0.63552   0.30705   0.00000  Uiso   1.00
C353   C     0.42055   0.50003   0.25744   0.00000  Uiso   1.00
C354   C     0.58037   0.50008   0.24589   0.00000  Uiso   1.00
C355   C     0.43326   0.44799   0.02220   0.00000  Uiso   1.00
C356   C     0.58276   0.48318   0.47626   0.00000  Uiso   1.00
C357   C     0.35381   0.45919   0.26698   0.00000  Uiso   1.00
C358   C     0.64818   0.54167   0.24536   0.00000  Uiso   1.00
C359   C     0.64754   0.45888   0.24609   0.00000  Uiso   1.00
C360   C     0.35436   0.54132   0.26636   0.00000  Uiso   1.00
C361   C     0.62614   0.50030   0.24157   0.00000  Uiso   1.00
C362   C     0.37592   0.50016   0.26850   0.00000  Uiso   1.00
C363   C     0.52605   0.35780   0.27871   0.00000  Uiso   1.00
C364   C     0.47392   0.64229   0.22127   0.00000  Uiso   1.00
C365   C     0.47252   0.35696   0.22275   0.00000  Uiso   1.00
C366   C     0.52739   0.64313   0.27741   0.00000  Uiso   1.00
C367   C     0.50045   0.49967   0.16327   0.00000  Uiso   1.00
C368   C     0.49978   0.50003   0.33661   0.00000  Uiso   1.00
C369   C     0.54088   0.49803   0.40642   0.00000  Uiso   1.00
C370   C     0.46496   0.48093   0.09224   0.00000  Uiso   1.00
C371   C     0.50110   0.49835   0.38508   0.00000  Uiso   1.00
C372   C     0.50125   0.49724   0.11457   0.00000  Uiso   1.00
C373   C     0.46387   0.48674   0.40785   0.00000  Uiso   1.00
C374   C     0.53994   0.50263   0.09195   0.00000  Uiso   1.00
C375   C     0.46695   0.47137   0.45248   0.00000  Uiso   1.00
C376   C     0.54309   0.48865   0.04660   0.00000  Uiso   1.00
C377   C     0.50566   0.47731   0.47584   0.00000  Uiso   1.00
C378   C     0.50560   0.47708   0.02303   0.00000  Uiso   1.00
C379   C     0.54368   0.48644   0.45242   0.00000  Uiso   1.00
C380   C     0.46733   0.46868   0.04624   0.00000  Uiso   1.00
C381   C     0.43318   0.44920   0.47456   0.00000  Uiso   1.00
C382   C     0.58250   0.48495   0.02386   0.00000  Uiso   1.00
N383   N     0.50000   0.61907   0.25000   0.00000  Uiso   1.00
N384   N     0.50000   0.38093   0.25000   0.00000  Uiso   1.00
O385   O     0.43892   0.53821   0.24999   0.00000  Uiso   1.00
O386   O     0.56108   0.46179   0.25000   0.00000  Uiso   1.00
O387   O     0.56108   0.53821   0.25000   0.00000  Uiso   1.00
O388   O     0.43892   0.46179   0.24999   0.00000  Uiso   1.00
O389   O     0.49999   0.53823   0.18392   0.00000  Uiso   1.00
O390   O     0.50001   0.46177   0.31607   0.00000  Uiso   1.00
O391   O     0.50001   0.53823   0.31607   0.00000  Uiso   1.00
O392   O     0.49999   0.46177   0.18392   0.00000  Uiso   1.00
Zn393  Zn    0.50000   0.55104   0.25000   0.00000  Uiso   1.00
Zn394  Zn    0.50000   0.44896   0.25000   0.00000  Uiso   1.00
C395   C     0.57737   0.51404   0.38147   0.00000  Uiso   1.00
N396   N     0.60638   0.52672   0.36153   0.00000  Uiso   1.00
C397   C     0.42462   0.48331   0.11565   0.00000  Uiso   1.00
N398   N     0.39263   0.48542   0.13445   0.00000  Uiso   1.00
C399   C     0.42212   0.49627   0.38626   0.00000  Uiso   1.00
H400   H     0.41817   0.49310   0.35013   0.00000  Uiso   1.00
O401   O     0.39224   0.50965   0.40864   0.00000  Uiso   1.00
C402   C     0.57500   0.52861   0.11325   0.00000  Uiso   1.00
H403   H     0.59160   0.55385   0.09392   0.00000  Uiso   1.00
O404   O     0.58718   0.52034   0.15129   0.00000  Uiso   1.00
C405   C     0.40185   0.42168   0.44829   0.00000  Uiso   1.00
H406   H     0.36999   0.41668   0.46056   0.00000  Uiso   1.00
O407   O     0.41193   0.40308   0.41300   0.00000  Uiso   1.00
C408   C     0.62261   0.47663   0.04921   0.00000  Uiso   1.00
H409   H     0.65208   0.49185   0.03859   0.00000  Uiso   1.00
O410   O     0.62312   0.45153   0.08159   0.00000  Uiso   1.00
C411   C     0.40111   0.42030   0.04580   0.00000  Uiso   1.00
H412   H     0.36812   0.42123   0.03566   0.00000  Uiso   1.00
O413   O     0.41168   0.39513   0.07616   0.00000  Uiso   1.00
C414   C     0.62295   0.47212   0.45268   0.00000  Uiso   1.00
H415   H     0.65223   0.48896   0.46201   0.00000  Uiso   1.00
O416   O     0.62373   0.44281   0.42350   0.00000  Uiso   1.00
C417   C     0.37074   0.41923   0.29142   0.00000  Uiso   1.00
H418   H     0.40254   0.41946   0.30537   0.00000  Uiso   1.00
O419   O     0.34838   0.38693   0.29983   0.00000  Uiso   1.00
C420   C     0.63326   0.58294   0.22135   0.00000  Uiso   1.00
H421   H     0.60173   0.58545   0.20728   0.00000  Uiso   1.00
O422   O     0.65740   0.61396   0.21354   0.00000  Uiso   1.00
C423   C     0.63246   0.41735   0.22203   0.00000  Uiso   1.00
H424   H     0.64465   0.38449   0.23030   0.00000  Uiso   1.00
O425   O     0.60806   0.41976   0.18996   0.00000  Uiso   1.00
C426   C     0.37053   0.58226   0.29069   0.00000  Uiso   1.00
H427   H     0.35454   0.61427   0.28779   0.00000  Uiso   1.00
O428   O     0.40031   0.58010   0.31708   0.00000  Uiso   1.00
C429   C     0.54983   0.38255   0.31432   0.00000  Uiso   1.00
H430   H     0.57110   0.40957   0.30627   0.00000  Uiso   1.00
O431   O     0.54597   0.37219   0.35389   0.00000  Uiso   1.00
C432   C     0.45006   0.61781   0.18549   0.00000  Uiso   1.00
H433   H     0.43070   0.58910   0.19293   0.00000  Uiso   1.00
O434   O     0.45185   0.63012   0.14632   0.00000  Uiso   1.00
C435   C     0.43872   0.38070   0.19757   0.00000  Uiso   1.00
H436   H     0.44478   0.41159   0.18040   0.00000  Uiso   1.00
O437   O     0.40270   0.36573   0.19626   0.00000  Uiso   1.00
C438   C     0.56084   0.61951   0.30325   0.00000  Uiso   1.00
H439   H     0.55505   0.58777   0.31870   0.00000  Uiso   1.00
O440   O     0.59634   0.63552   0.30705   0.00000  Uiso   1.00
C441   C     0.75388   0.50003   0.25744   0.00000  Uiso   1.00
C442   C     0.91371   0.50008   0.24589   0.00000  Uiso   1.00
C443   C     0.76659   0.44799   0.02220   0.00000  Uiso   1.00
C444   C     0.91609   0.48318   0.47626   0.00000  Uiso   1.00
C445   C     0.68715   0.45919   0.26698   0.00000  Uiso   1.00
C446   C     0.98151   0.54167   0.24536   0.00000  Uiso   1.00
C447   C     0.98087   0.45888   0.24609   0.00000  Uiso   1.00
C448   C     0.68770   0.54132   0.26636   0.00000  Uiso   1.00
C449   C     0.95948   0.50030   0.24157   0.00000  Uiso   1.00
C450   C     0.70925   0.50016   0.26850   0.00000  Uiso   1.00
C451   C     0.85939   0.35780   0.27871   0.00000  Uiso   1.00
C452   C     0.80725   0.64229   0.22127   0.00000  Uiso   1.00
C453   C     0.80585   0.35696   0.22275   0.00000  Uiso   1.00
C454   C     0.86072   0.64313   0.27741   0.00000  Uiso   1.00
C455   C     0.83378   0.49967   0.16327   0.00000  Uiso   1.00
C456   C     0.83311   0.50003   0.33661   0.00000  Uiso   1.00
C457   C     0.87421   0.49803   0.40642   0.00000  Uiso   1.00
C458   C     0.79829   0.48093   0.09224   0.00000  Uiso   1.00
C459   C     0.83443   0.49835   0.38508   0.00000  Uiso   1.00
C460   C     0.83459   0.49724   0.11457   0.00000  Uiso   1.00
C461   C     0.79720   0.48674   0.40785   0.00000  Uiso   1.00
C462   C     0.87327   0.50263   0.09195   0.00000  Uiso   1.00
C463   C     0.80028   0.47137   0.45248   0.00000  Uiso   1.00
C464   C     0.87642   0.48865   0.04660   0.00000  Uiso   1.00
C465   C     0.83899   0.47731   0.47584   0.00000  Uiso   1.00
C466   C     0.83893   0.47708   0.02303   0.00000  Uiso   1.00
C467   C     0.87702   0.48644   0.45242   0.00000  Uiso   1.00
C468   C     0.80066   0.46868   0.04624   0.00000  Uiso   1.00
C469   C     0.76651   0.44920   0.47456   0.00000  Uiso   1.00
C470   C     0.91583   0.48495   0.02386   0.00000  Uiso   1.00
N471   N     0.83333   0.61907   0.25000   0.00000  Uiso   1.00
N472   N     0.83333   0.38093   0.25000   0.00000  Uiso   1.00
O473   O     0.77226   0.53821   0.24999   0.00000  Uiso   1.00
O474   O     0.89441   0.46179   0.25000   0.00000  Uiso   1.00
O475   O     0.89441   0.53821   0.25000   0.00000  Uiso   1.00
O476   O     0.77226   0.46179   0.24999   0.00000  Uiso   1.00
O477   O     0.83333   0.53823   0.18392   0.00000  Uiso   1.00
O478   O     0.83334   0.46177   0.31607   0.00000  Uiso   1.00
O479   O     0.83334   0.53823   0.31607   0.00000  Uiso   1.00
O480   O     0.83333   0.46177   0.18392   0.00000  Uiso   1.00
Zn481  Zn    0.83333   0.55104   0.25000   0.00000  Uiso   1.00
Zn482  Zn    0.83333   0.44896   0.25000   0.00000  Uiso   1.00
C483   C     0.91071   0.51404   0.38147   0.00000  Uiso   1.00
N484   N     0.93971   0.52672   0.36153   0.00000  Uiso   1.00
C485   C     0.75795   0.48331   0.11565   0.00000  Uiso   1.00
N486   N     0.72597   0.48542   0.13445   0.00000  Uiso   1.00
C487   C     0.75546   0.49627   0.38626   0.00000  Uiso   1.00
H488   H     0.75150   0.49310   0.35013   0.00000  Uiso   1.00
O489   O     0.72558   0.50965   0.40864   0.00000  Uiso   1.00
C490   C     0.90833   0.52861   0.11325   0.00000  Uiso   1.00
H491   H     0.92493   0.55385   0.09392   0.00000  Uiso   1.00
O492   O     0.92051   0.52034   0.15129   0.00000  Uiso   1.00
C493   C     0.73518   0.42168   0.44829   0.00000  Uiso   1.00
H494   H     0.70333   0.41668   0.46056   0.00000  Uiso   1.00
O495   O     0.74526   0.40308   0.41300   0.00000  Uiso   1.00
C496   C     0.95595   0.47663   0.04921   0.00000  Uiso   1.00
H497   H     0.98541   0.49185   0.03859   0.00000  Uiso   1.00
O498   O     0.95645   0.45153   0.08159   0.00000  Uiso   1.00
C499   C     0.73445   0.42030   0.04580   0.00000  Uiso   1.00
H500   H     0.70145   0.42123   0.03566   0.00000  Uiso   1.00
O501   O     0.74501   0.39513   0.07616   0.00000  Uiso   1.00
C502   C     0.95628   0.47212   0.45268   0.00000  Uiso   1.00
H503   H     0.98556   0.48896   0.46201   0.00000  Uiso   1.00
O504   O     0.95706   0.44281   0.42350   0.00000  Uiso   1.00
C505   C     0.70407   0.41923   0.29142   0.00000  Uiso   1.00
H506   H     0.73588   0.41946   0.30537   0.00000  Uiso   1.00
O507   O     0.68171   0.38693   0.29983   0.00000  Uiso   1.00
C508   C     0.96659   0.58294   0.22135   0.00000  Uiso   1.00
H509   H     0.93506   0.58545   0.20728   0.00000  Uiso   1.00
O510   O     0.99073   0.61396   0.21354   0.00000  Uiso   1.00
C511   C     0.96579   0.41735   0.22203   0.00000  Uiso   1.00
H512   H     0.97798   0.38449   0.23030   0.00000  Uiso   1.00
O513   O     0.94140   0.41976   0.18996   0.00000  Uiso   1.00
C514   C     0.70386   0.58226   0.29069   0.00000  Uiso   1.00
H515   H     0.68787   0.61427   0.28779   0.00000  Uiso   1.00
O516   O     0.73364   0.58010   0.31708   0.00000  Uiso   1.00
C517   C     0.88317   0.38255   0.31432   0.00000  Uiso   1.00
H518   H     0.90443   0.40957   0.30627   0.00000  Uiso   1.00
O519   O     0.87931   0.37219   0.35389   0.00000  Uiso   1.00
C520   C     0.78339   0.61781   0.18549   0.00000  Uiso   1.00
H521   H     0.76403   0.58910   0.19293   0.00000  Uiso   1.00
O522   O     0.78518   0.63012   0.14632   0.00000  Uiso   1.00
C523   C     0.77205   0.38070   0.19757   0.00000  Uiso   1.00
H524   H     0.77812   0.41159   0.18040   0.00000  Uiso   1.00
O525   O     0.73603   0.36573   0.19626   0.00000  Uiso   1.00
C526   C     0.89418   0.61951   0.30325   0.00000  Uiso   1.00
H527   H     0.88838   0.58777   0.31870   0.00000  Uiso   1.00
O528   O     0.92967   0.63552   0.30705   0.00000  Uiso   1.00
C529   C     0.08721   0.83336   0.25744   0.00000  Uiso   1.00
C530   C     0.24704   0.83341   0.24589   0.00000  Uiso   1.00
C531   C     0.09992   0.78132   0.02220   0.00000  Uiso   1.00
C532   C     0.24943   0.81652   0.47626   0.00000  Uiso   1.00
C533   C     0.02048   0.79252   0.26698   0.00000  Uiso   1.00
C534   C     0.31484   0.87501   0.24536   0.00000  Uiso   1.00
C535   C     0.31420   0.79222   0.24609   0.00000  Uiso   1.00
C536   C     0.02103   0.87466   0.26636   0.00000  Uiso   1.00
C537   C     0.29281   0.83363   0.24157   0.00000  Uiso   1.00
C538   C     0.04258   0.83349   0.26850   0.00000  Uiso   1.00
C539   C     0.19272   0.69114   0.27871   0.00000  Uiso   1.00
C540   C     0.14059   0.97563   0.22127   0.00000  Uiso   1.00
C541   C     0.13919   0.69029   0.22275   0.00000  Uiso   1.00
C542   C     0.19406   0.97647   0.27741   0.00000  Uiso   1.00
C543   C     0.16711   0.83300   0.16327   0.00000  Uiso   1.00
C544   C     0.16644   0.83336   0.33661   0.00000  Uiso   1.00
C545   C     0.20754   0.83136   0.40642   0.00000  Uiso   1.00
C546   C     0.13163   0.81427   0.09224   0.00000  Uiso   1.00
C547   C     0.16776   0.83169   0.38508   0.00000  Uiso   1.00
C548   C     0.16792   0.83057   0.11457   0.00000  Uiso   1.00
C549   C     0.13054   0.82007   0.40785   0.00000  Uiso   1.00
C550   C     0.20661   0.83597   0.09195   0.00000  Uiso   1.00
C551   C     0.13361   0.80470   0.45248   0.00000  Uiso   1.00
C552   C     0.20976   0.82199   0.04660   0.00000  Uiso   1.00
C553   C     0.17233   0.81064   0.47584   0.00000  Uiso   1.00
C554   C     0.17226   0.81041   0.02303   0.00000  Uiso   1.00
C555   C     0.21035   0.81978   0.45242   0.00000  Uiso   1.00
C556   C     0.13400   0.80201   0.04624   0.00000  Uiso   1.00
C557   C     0.09984   0.78253   0.47456   0.00000  Uiso   1.00
C558   C     0.24916   0.81829   0.02386   0.00000  Uiso   1.00
N559   N     0.16667   0.95240   0.25000   0.00000  Uiso   1.00
N560   N     0.16667   0.71427   0.25000   0.00000  Uiso   1.00
O561   O     0.10559   0.87154   0.24999   0.00000  Uiso   1.00
O562   O     0.22774   0.79513   0.25000   0.00000  Uiso   1.00
O563   O     0.22774   0.87154   0.25000   0.00000  Uiso   1.00
O564   O     0.10559   0.79513   0.24999   0.00000  Uiso   1.00
O565   O     0.16666   0.87156   0.18392   0.00000  Uiso   1.00
O566   O     0.16667   0.79511   0.31607   0.00000  Uiso   1.00
O567   O     0.16667   0.87156   0.31607   0.00000  Uiso   1.00
O568   O     0.16666   0.79511   0.18392   0.00000  Uiso   1.00
Zn569  Zn    0.16667   0.88437   0.25000   0.00000  Uiso   1.00
Zn570  Zn    0.16667   0.78229   0.25000   0.00000  Uiso   1.00
C571   C     0.24404   0.84737   0.38147   0.00000  Uiso   1.00
N572   N     0.27304   0.86006   0.36153   0.00000  Uiso   1.00
C573   C     0.09128   0.81665   0.11565   0.00000  Uiso   1.00
N574   N     0.05930   0.81876   0.13445   0.00000  Uiso   1.00
C575   C     0.08879   0.82961   0.38626   0.00000  Uiso   1.00
H576   H     0.08484   0.82643   0.35013   0.00000  Uiso   1.00
O577   O     0.05891   0.84298   0.40864   0.00000  Uiso   1.00
C578   C     0.24167   0.86194   0.11325   0.00000  Uiso   1.00
H579   H     0.25827   0.88719   0.09392   0.00000  Uiso   1.00
O580   O     0.25385   0.85367   0.15129   0.00000  Uiso   1.00
C581   C     0.06851   0.75501   0.44829   0.00000  Uiso   1.00
H582   H     0.03666   0.75002   0.46056   0.00000  Uiso   1.00
O583   O     0.07859   0.73641   0.41300   0.00000  Uiso   1.00
C584   C     0.28928   0.80996   0.04921   0.00000  Uiso   1.00
H585   H     0.31874   0.82518   0.03859   0.00000  Uiso   1.00
O586   O     0.28979   0.78487   0.08159   0.00000  Uiso   1.00
C587   C     0.06778   0.75364   0.04580   0.00000  Uiso   1.00
H588   H     0.03479   0.75456   0.03566   0.00000  Uiso   1.00
O589   O     0.07834   0.72846   0.07616   0.00000  Uiso   1.00
C590   C     0.28961   0.80545   0.45268   0.00000  Uiso   1.00
H591   H     0.31889   0.82229   0.46201   0.00000  Uiso   1.00
O592   O     0.29039   0.77614   0.42350   0.00000  Uiso   1.00
C593   C     0.03741   0.75256   0.29142   0.00000  Uiso   1.00
H594   H     0.06921   0.75280   0.30537   0.00000  Uiso   1.00
O595   O     0.01505   0.72026   0.29983   0.00000  Uiso   1.00
C596   C     0.29993   0.91627   0.22135   0.00000  Uiso   1.00
H597   H     0.26839   0.91878   0.20728   0.00000  Uiso   1.00
O598   O     0.32406   0.94729   0.21354   0.00000  Uiso   1.00
C599   C     0.29912   0.75068   0.22203   0.00000  Uiso   1.00
H600   H     0.31131   0.71783   0.23030   0.00000  Uiso   1.00
O601   O     0.27473   0.75309   0.18996   0.00000  Uiso   1.00
C602   C     0.03719   0.91559   0.29069   0.00000  Uiso   1.00
H603   H     0.02120   0.94760   0.28779   0.00000  Uiso   1.00
O604   O     0.06698   0.91343   0.31708   0.00000  Uiso   1.00
C605   C     0.21650   0.71588   0.31432   0.00000  Uiso   1.00
H606   H     0.23777   0.74290   0.30627   0.00000  Uiso   1.00
O607   O     0.21264   0.70553   0.35389   0.00000  Uiso   1.00
C608   C     0.11672   0.95114   0.18549   0.00000  Uiso   1.00
H609   H     0.09737   0.92244   0.19293   0.00000  Uiso   1.00
O610   O     0.11851   0.96345   0.14632   0.00000  Uiso   1.00
C611   C     0.10538   0.71404   0.19757   0.00000  Uiso   1.00
H612   H     0.11145   0.74492   0.18040   0.00000  Uiso   1.00
O613   O     0.06936   0.69906   0.19626   0.00000  Uiso   1.00
C614   C     0.22751   0.95285   0.30325   0.00000  Uiso   1.00
H615   H     0.22172   0.92110   0.31870   0.00000  Uiso   1.00
O616   O     0.26300   0.96886   0.30705   0.00000  Uiso   1.00
C617   C     0.42055   0.83336   0.25744   0.00000  Uiso   1.00
C618   C     0.58037   0.83341   0.24589   0.00000  Uiso   1.00
C619   C     0.43326   0.78132   0.02220   0.00000  Uiso   1.00
C620   C     0.58276   0.81652   0.47626   0.00000  Uiso   1.00
C621   C     0.35381   0.79252   0.26698   0.00000  Uiso   1.00
C622   C     0.64818   0.87501   0.24536   0.00000  Uiso   1.00
C623   C     0.64754   0.79222   0.24609   0.00000  Uiso   1.00
C624   C     0.35436   0.87466   0.26636   0.00000  Uiso   1.00
C625   C     0.62614   0.83363   0.24157   0.00000  Uiso   1.00
C626   C     0.37592   0.83349   0.26850   0.00000  Uiso   1.00
C627   C     0.52605   0.69114   0.27871   0.00000  Uiso   1.00
C628   C     0.47392   0.97563   0.22127   0.00000  Uiso   1.00
C629   C     0.47252   0.69029   0.22275   0.00000  Uiso   1.00
C630   C     0.52739   0.97647   0.27741   0.00000  Uiso   1.00
C631   C     0.50045   0.83300   0.16327   0.00000  Uiso   1.00
C632   C     0.49978   0.83336   0.33661   0.00000  Uiso   1.00
C633   C     0.54088   0.83136   0.40642   0.00000  Uiso   1.00
C634   C     0.46496   0.81427   0.09224   0.00000  Uiso   1.00
C635   C     0.50110   0.83169   0.38508   0.00000  Uiso   1.00
C636   C     0.50125   0.83057   0.11457   0.00000  Uiso   1.00
C637   C     0.46387   0.82007   0.40785   0.00000  Uiso   1.00
C638   C     0.53994   0.83597   0.09195   0.00000  Uiso   1.00
C639   C     0.46695   0.80470   0.45248   0.00000  Uiso   1.00
C640   C     0.54309   0.82199   0.04660   0.00000  Uiso   1.00
C641   C     0.50566   0.81064   0.47584   0.00000  Uiso   1.00
C642   C     0.50560   0.81041   0.02303   0.00000  Uiso   1.00
C643   C     0.54368   0.81978   0.45242   0.00000  Uiso   1.00
C644   C     0.46733   0.80201   0.04624   0.00000  Uiso   1.00
C645   C     0.43318   0.78253   0.47456   0.00000  Uiso   1.00
C646   C     0.58250   0.81829   0.02386   0.00000  Uiso   1.00
N647   N     0.50000   0.95240   0.25000   0.00000  Uiso   1.00
N648   N     0.50000   0.71427   0.25000   0.00000  Uiso   1.00
O649   O     0.43892   0.87154   0.24999   0.00000  Uiso   1.00
O650   O     0.56108   0.79513   0.25000   0.00000  Uiso   1.00
O651   O     0.56108   0.87154   0.25000   0.00000  Uiso   1.00
O652   O     0.43892   0.79513   0.24999   0.00000  Uiso   1.00
O653   O     0.49999   0.87156   0.18392   0.00000  Uiso   1.00
O654   O     0.50001   0.79511   0.31607   0.00000  Uiso   1.00
O655   O     0.50001   0.87156   0.31607   0.00000  Uiso   1.00
O656   O     0.49999   0.79511   0.18392   0.00000  Uiso   1.00
Zn657  Zn    0.50000   0.88437   0.25000   0.00000  Uiso   1.00
Zn658  Zn    0.50000   0.78229   0.25000   0.00000  Uiso   1.00
C659   C     0.57737   0.84737   0.38147   0.00000  Uiso   1.00
N660   N     0.60638   0.86006   0.36153   0.00000  Uiso   1.00
C661   C     0.42462   0.81665   0.11565   0.00000  Uiso   1.00
N662   N     0.39263   0.81876   0.13445   0.00000  Uiso   1.00
C663   C     0.42212   0.82961   0.38626   0.00000  Uiso   1.00
H664   H     0.41817   0.82643   0.35013   0.00000  Uiso   1.00
O665   O     0.39224   0.84298   0.40864   0.00000  Uiso   1.00
C666   C     0.57500   0.86194   0.11325   0.00000  Uiso   1.00
H667   H     0.59160   0.88719   0.09392   0.00000  Uiso   1.00
O668   O     0.58718   0.85367   0.15129   0.00000  Uiso   1.00
C669   C     0.40185   0.75501   0.44829   0.00000  Uiso   1.00
H670   H     0.36999   0.75002   0.46056   0.00000  Uiso   1.00
O671   O     0.41193   0.73641   0.41300   0.00000  Uiso   1.00
C672   C     0.62261   0.80996   0.04921   0.00000  Uiso   1.00
H673   H     0.65208   0.82518   0.03859   0.00000  Uiso   1.00
O674   O     0.62312   0.78487   0.08159   0.00000  Uiso   1.00
C675   C     0.40111   0.75364   0.04580   0.00000  Uiso   1.00
H676   H     0.36812   0.75456   0.03566   0.00000  Uiso   1.00
O677   O     0.41168   0.72846   0.07616   0.00000  Uiso   1.00
C678   C     0.62295   0.80545   0.45268   0.00000  Uiso   1.00
H679   H     0.65223   0.82229   0.46201   0.00000  Uiso   1.00
O680   O     0.62373   0.77614   0.42350   0.00000  Uiso   1.00
C681   C     0.37074   0.75256   0.29142   0.00000  Uiso   1.00
H682   H     0.40254   0.75280   0.30537   0.00000  Uiso   1.00
O683   O     0.34838   0.72026   0.29983   0.00000  Uiso   1.00
C684   C     0.63326   0.91627   0.22135   0.00000  Uiso   1.00
H685   H     0.60173   0.91878   0.20728   0.00000  Uiso   1.00
O686   O     0.65740   0.94729   0.21354   0.00000  Uiso   1.00
C687   C     0.63246   0.75068   0.22203   0.00000  Uiso   1.00
H688   H     0.64465   0.71783   0.23030   0.00000  Uiso   1.00
O689   O     0.60806   0.75309   0.18996   0.00000  Uiso   1.00
C690   C     0.37053   0.91559   0.29069   0.00000  Uiso   1.00
H691   H     0.35454   0.94760   0.28779   0.00000  Uiso   1.00
O692   O     0.40031   0.91343   0.31708   0.00000  Uiso   1.00
C693   C     0.54983   0.71588   0.31432   0.00000  Uiso   1.00
H694   H     0.57110   0.74290   0.30627   0.00000  Uiso   1.00
O695   O     0.54597   0.70553   0.35389   0.00000  Uiso   1.00
C696   C     0.45006   0.95114   0.18549   0.00000  Uiso   1.00
H697   H     0.43070   0.92244   0.19293   0.00000  Uiso   1.00
O698   O     0.45185   0.96345   0.14632   0.00000  Uiso   1.00
C699   C     0.43872   0.71404   0.19757   0.00000  Uiso   1.00
H700   H     0.44478   0.74492   0.18040   0.00000  Uiso   1.00
O701   O     0.40270   0.69906   0.19626   0.00000  Uiso   1.00
C702   C     0.56084   0.95285   0.30325   0.00000  Uiso   1.00
H703   H     0.55505   0.92110   0.31870   0.00000  Uiso   1.00
O704   O     0.59634   0.96886   0.30705   0.00000  Uiso   1.00
C705   C     0.75388   0.83336   0.25744   0.00000  Uiso   1.00
C706   C     0.91371   0.83341   0.24589   0.00000  Uiso   1.00
C707   C     0.76659   0.78132   0.02220   0.00000  Uiso   1.00
C708   C     0.91609   0.81652   0.47626   0.00000  Uiso   1.00
C709   C     0.68715   0.79252   0.26698   0.00000  Uiso   1.00
C710   C     0.98151   0.87501   0.24536   0.00000  Uiso   1.00
C711   C     0.98087   0.79222   0.24609   0.00000  Uiso   1.00
C712   C     0.68770   0.87466   0.26636   0.00000  Uiso   1.00
C713   C     0.95948   0.83363   0.24157   0.00000  Uiso   1.00
C714   C     0.70925   0.83349   0.26850   0.00000  Uiso   1.00
C715   C     0.85939   0.69114   0.27871   0.00000  Uiso   1.00
C716   C     0.80725   0.97563   0.22127   0.00000  Uiso   1.00
C717   C     0.80585   0.69029   0.22275   0.00000  Uiso   1.00
C718   C     0.86072   0.97647   0.27741   0.00000  Uiso   1.00
C719   C     0.83378   0.83300   0.16327   0.00000  Uiso   1.00
C720   C     0.83311   0.83336   0.33661   0.00000  Uiso   1.00
C721   C     0.87421   0.83136   0.40642   0.00000  Uiso   1.00
C722   C     0.79829   0.81427   0.09224   0.00000  Uiso   1.00
C723   C     0.83443   0.83169   0.38508   0.00000  Uiso   1.00
C724   C     0.83459   0.83057   0.11457   0.00000  Uiso   1.00
C725   C     0.79720   0.82007   0.40785   0.00000  Uiso   1.00
C726   C     0.87327   0.83597   0.09195   0.00000  Uiso   1.00
C727   C     0.80028   0.80470   0.45248   0.00000  Uiso   1.00
C728   C     0.87642   0.82199   0.04660   0.00000  Uiso   1.00
C729   C     0.83899   0.81064   0.47584   0.00000  Uiso   1.00
C730   C     0.83893   0.81041   0.02303   0.00000  Uiso   1.00
C731   C     0.87702   0.81978   0.45242   0.00000  Uiso   1.00
C732   C     0.80066   0.80201   0.04624   0.00000  Uiso   1.00
C733   C     0.76651   0.78253   0.47456   0.00000  Uiso   1.00
C734   C     0.91583   0.81829   0.02386   0.00000  Uiso   1.00
N735   N     0.83333   0.95240   0.25000   0.00000  Uiso   1.00
N736   N     0.83333   0.71427   0.25000   0.00000  Uiso   1.00
O737   O     0.77226   0.87154   0.24999   0.00000  Uiso   1.00
O738   O     0.89441   0.79513   0.25000   0.00000  Uiso   1.00
O739   O     0.89441   0.87154   0.25000   0.00000  Uiso   1.00
O740   O     0.77226   0.79513   0.24999   0.00000  Uiso   1.00
O741   O     0.83333   0.87156   0.18392   0.00000  Uiso   1.00
O742   O     0.83334   0.79511   0.31607   0.00000  Uiso   1.00
O743   O     0.83334   0.87156   0.31607   0.00000  Uiso   1.00
O744   O     0.83333   0.79511   0.18392   0.00000  Uiso   1.00
Zn745  Zn    0.83333   0.88437   0.25000   0.00000  Uiso   1.00
Zn746  Zn    0.83333   0.78229   0.25000   0.00000  Uiso   1.00
C747   C     0.91071   0.84737   0.38147   0.00000  Uiso   1.00
N748   N     0.93971   0.86006   0.36153   0.00000  Uiso   1.00
C749   C     0.75795   0.81665   0.11565   0.00000  Uiso   1.00
N750   N     0.72597   0.81876   0.13445   0.00000  Uiso   1.00
C751   C     0.75546   0.82961   0.38626   0.00000  Uiso   1.00
H752   H     0.75150   0.82643   0.35013   0.00000  Uiso   1.00
O753   O     0.72558   0.84298   0.40864   0.00000  Uiso   1.00
C754   C     0.90833   0.86194   0.11325   0.00000  Uiso   1.00
H755   H     0.92493   0.88719   0.09392   0.00000  Uiso   1.00
O756   O     0.92051   0.85367   0.15129   0.00000  Uiso   1.00
C757   C     0.73518   0.75501   0.44829   0.00000  Uiso   1.00
H758   H     0.70333   0.75002   0.46056   0.00000  Uiso   1.00
O759   O     0.74526   0.73641   0.41300   0.00000  Uiso   1.00
C760   C     0.95595   0.80996   0.04921   0.00000  Uiso   1.00
H761   H     0.98541   0.82518   0.03859   0.00000  Uiso   1.00
O762   O     0.95645   0.78487   0.08159   0.00000  Uiso   1.00
C763   C     0.73445   0.75364   0.04580   0.00000  Uiso   1.00
H764   H     0.70145   0.75456   0.03566   0.00000  Uiso   1.00
O765   O     0.74501   0.72846   0.07616   0.00000  Uiso   1.00
C766   C     0.95628   0.80545   0.45268   0.00000  Uiso   1.00
H767   H     0.98556   0.82229   0.46201   0.00000  Uiso   1.00
O768   O     0.95706   0.77614   0.42350   0.00000  Uiso   1.00
C769   C     0.70407   0.75256   0.29142   0.00000  Uiso   1.00
H770   H     0.73588   0.75280   0.30537   0.00000  Uiso   1.00
O771   O     0.68171   0.72026   0.29983   0.00000  Uiso   1.00
C772   C     0.96659   0.91627   0.22135   0.00000  Uiso   1.00
H773   H     0.93506   0.91878   0.20728   0.00000  Uiso   1.00
O774   O     0.99073   0.94729   0.21354   0.00000  Uiso   1.00
C775   C     0.96579   0.75068   0.22203   0.00000  Uiso   1.00
H776   H     0.97798   0.71783   0.23030   0.00000  Uiso   1.00
O777   O     0.94140   0.75309   0.18996   0.00000  Uiso   1.00
C778   C     0.70386   0.91559   0.29069   0.00000  Uiso   1.00
H779   H     0.68787   0.94760   0.28779   0.00000  Uiso   1.00
O780   O     0.73364   0.91343   0.31708   0.00000  Uiso   1.00
C781   C     0.88317   0.71588   0.31432   0.00000  Uiso   1.00
H782   H     0.90443   0.74290   0.30627   0.00000  Uiso   1.00
O783   O     0.87931   0.70553   0.35389   0.00000  Uiso   1.00
C784   C     0.78339   0.95114   0.18549   0.00000  Uiso   1.00
H785   H     0.76403   0.92244   0.19293   0.00000  Uiso   1.00
O786   O     0.78518   0.96345   0.14632   0.00000  Uiso   1.00
C787   C     0.77205   0.71404   0.19757   0.00000  Uiso   1.00
H788   H     0.77812   0.74492   0.18040   0.00000  Uiso   1.00
O789   O     0.73603   0.69906   0.19626   0.00000  Uiso   1.00
C790   C     0.89418   0.95285   0.30325   0.00000  Uiso   1.00
H791   H     0.88838   0.92110   0.31870   0.00000  Uiso   1.00
O792   O     0.92967   0.96886   0.30705   0.00000  Uiso   1.00
C793   C     0.08721   0.16670   0.75744   0.00000  Uiso   1.00
C794   C     0.24704   0.16674   0.74589   0.00000  Uiso   1.00
C795   C     0.09992   0.11466   0.52220   0.00000  Uiso   1.00
C796   C     0.24943   0.14985   0.97626   0.00000  Uiso   1.00
C797   C     0.02048   0.12586   0.76698   0.00000  Uiso   1.00
C798   C     0.31484   0.20834   0.74536   0.00000  Uiso   1.00
C799   C     0.31420   0.12555   0.74609   0.00000  Uiso   1.00
C800   C     0.02103   0.20799   0.76636   0.00000  Uiso   1.00
C801   C     0.29281   0.16697   0.74157   0.00000  Uiso   1.00
C802   C     0.04258   0.16683   0.76850   0.00000  Uiso   1.00
C803   C     0.19272   0.02447   0.77871   0.00000  Uiso   1.00
C804   C     0.14059   0.30896   0.72127   0.00000  Uiso   1.00
C805   C     0.13919   0.02362   0.72275   0.00000  Uiso   1.00
C806   C     0.19406   0.30980   0.77741   0.00000  Uiso   1.00
C807   C     0.16711   0.16634   0.66327   0.00000  Uiso   1.00
C808   C     0.16644   0.16670   0.83661   0.00000  Uiso   1.00
C809   C     0.20754   0.16469   0.90642   0.00000  Uiso   1.00
C810   C     0.13163   0.14760   0.59224   0.00000  Uiso   1.00
C811   C     0.16776   0.16502   0.88508   0.00000  Uiso   1.00
C812   C     0.16792   0.16391   0.61457   0.00000  Uiso   1.00
C813   C     0.13054   0.15341   0.90785   0.00000  Uiso   1.00
C814   C     0.20661   0.16930   0.59195   0.00000  Uiso   1.00
C815   C     0.13361   0.13803   0.95248   0.00000  Uiso   1.00
C816   C     0.20976   0.15532   0.54660   0.00000  Uiso   1.00
C817   C     0.17233   0.14398   0.97584   0.00000  Uiso   1.00
C818   C     0.17226   0.14374   0.52303   0.00000  Uiso   1.00
C819   C     0.21035   0.15311   0.95242   0.00000  Uiso   1.00
C820   C     0.13400   0.13534   0.54624   0.00000  Uiso   1.00
C821   C     0.09984   0.11587   0.97456   0.00000  Uiso   1.00
C822   C     0.24916   0.15162   0.52386   0.00000  Uiso   1.00
N823   N     0.16667   0.28573   0.75000   0.00000  Uiso   1.00
N824   N     0.16667   0.04760   0.75000   0.00000  Uiso   1.00
O825   O     0.10559   0.20487   0.74999   0.00000  Uiso   1.00
O826   O     0.22774   0.12846   0.75000   0.00000  Uiso   1.00
O827   O     0.22774   0.20487   0.75000   0.00000  Uiso   1.00
O828   O     0.10559   0.12846   0.74999   0.00000  Uiso   1.00
O829   O     0.16666   0.20489   0.68392   0.00000  Uiso   1.00
O830   O     0.16667   0.12844   0.81607   0.00000  Uiso   1.00
O831   O     0.16667   0.20489   0.81607   0.00000  Uiso   1.00
O832   O     0.16666   0.12844   0.68392   0.00000  Uiso   1.00
Zn833  Zn    0.16667   0.21771   0.75000   0.00000  Uiso   1.00
Zn834  Zn    0.16667   0.11563   0.75000   0.00000  Uiso   1.00
C835   C     0.24404   0.18071   0.88147   0.00000  Uiso   1.00
N836   N     0.27304   0.19339   0.86153   0.00000  Uiso   1.00
C837   C     0.09128   0.14998   0.61565   0.00000  Uiso   1.00
N838   N     0.05930   0.15209   0.63445   0.00000  Uiso   1.00
C839   C     0.08879   0.16294   0.88626   0.00000  Uiso   1.00
H840   H     0.08484   0.15977   0.85013   0.00000  Uiso   1.00
O841   O     0.05891   0.17631   0.90864   0.00000  Uiso   1.00
C842   C     0.24167   0.19528   0.61325   0.00000  Uiso   1.00
H843   H     0.25827   0.22052   0.59392   0.00000  Uiso   1.00
O844   O     0.25385   0.18701   0.65129   0.00000  Uiso   1.00
C845   C     0.06851   0.08835   0.94829   0.00000  Uiso   1.00
H846   H     0.03666   0.08335   0.96056   0.00000  Uiso   1.00
O847   O     0.07859   0.06974   0.91300   0.00000  Uiso   1.00
C848   C     0.28928   0.14329   0.54921   0.00000  Uiso   1.00
H849   H     0.31874   0.15851   0.53859   0.00000  Uiso   1.00
O850   O     0.28979   0.11820   0.58159   0.00000  Uiso   1.00
C851   C     0.06778   0.08697   0.54580   0.00000  Uiso   1.00
H852   H     0.03479   0.08790   0.53566   0.00000  Uiso   1.00
O853   O     0.07834   0.06179   0.57616   0.00000  Uiso   1.00
C854   C     0.28961   0.13878   0.95268   0.00000  Uiso   1.00
H855   H     0.31889   0.15562   0.96201   0.00000  Uiso   1.00
O856   O     0.29039   0.10947   0.92350   0.00000  Uiso   1.00
C857   C     0.03741   0.08590   0.79142   0.00000  Uiso   1.00
H858   H     0.06921   0.08613   0.80537   0.00000  Uiso   1.00
O859   O     0.01505   0.05360   0.79983   0.00000  Uiso   1.00
C860   C     0.29993   0.24961   0.72135   0.00000  Uiso   1.00
H861   H     0.26839   0.25211   0.70728   0.00000  Uiso   1.00
O862   O     0.32406   0.28063   0.71354   0.00000  Uiso   1.00
C863   C     0.29912   0.08402   0.72203   0.00000  Uiso   1.00
H864   H     0.31131   0.05116   0.73030   0.00000  Uiso   1.00
O865   O     0.27473   0.08643   0.68996   0.00000  Uiso   1.00
C866   C     0.03719   0.24893   0.79069   0.00000  Uiso   1.00
H867   H     0.02120   0.28093   0.78779   0.00000  Uiso   1.00
O868   O     0.06698   0.24677   0.81708   0.00000  Uiso   1.00
C869   C     0.21650   0.04921   0.81432   0.00000  Uiso   1.00
H870   H     0.23777   0.07623   0.80627   0.00000  Uiso   1.00
O871   O     0.21264   0.03886   0.85389   0.00000  Uiso   1.00
C872   C     0.11672   0.28448   0.68549   0.00000  Uiso   1.00
H873   H     0.09737   0.25577   0.69293   0.00000  Uiso   1.00
O874   O     0.11851   0.29678   0.64632   0.00000  Uiso   1.00
C875   C     0.10538   0.04737   0.69757   0.00000  Uiso   1.00
H876   H     0.11145   0.07826   0.68040   0.00000  Uiso   1.00
O877   O     0.06936   0.03239   0.69626   0.00000  Uiso   1.00
C878   C     0.22751   0.28618   0.80325   0.00000  Uiso   1.00
H879   H     0.22172   0.25443   0.81870   0.00000  Uiso   1.00
O880   O     0.26300   0.30219   0.80705   0.00000  Uiso   1.00
C881   C     0.42055   0.16670   0.75744   0.00000  Uiso   1.00
C882   C     0.58037   0.16674   0.74589   0.00000  Uiso   1.00
C883   C     0.43326   0.11466   0.52220   0.00000  Uiso   1.00
C884   C     0.58276   0.14985   0.97626   0.00000  Uiso   1.00
C885   C     0.35381   0.12586   0.76698   0.00000  Uiso   1.00
C886   C     0.64818   0.20834   0.74536   0.00000  Uiso   1.00
C887   C     0.64754   0.12555   0.74609   0.00000  Uiso   1.00
C888   C     0.35436   0.20799   0.76636   0.00000  Uiso   1.00
C889   C     0.62614   0.16697   0.74157   0.00000  Uiso   1.00
C890   C     0.37592   0.16683   0.76850   0.00000  Uiso   1.00
C891   C     0.52605   0.02447   0.77871   0.00000  Uiso   1.00
C892   C     0.47392   0.30896   0.72127   0.00000  Uiso   1.00
C893   C     0.47252   0.02362   0.72275   0.00000  Uiso   1.00
C894   C     0.52739   0.30980   0.77741   0.00000  Uiso   1.00
C895   C     0.50045   0.16634   0.66327   0.00000  Uiso   1.00
C896   C     0.49978   0.16670   0.83661   0.00000  Uiso   1.00
C897   C     0.54088   0.16469   0.90642   0.00000  Uiso   1.00
C898   C     0.46496   0.14760   0.59224   0.00000  Uiso   1.00
C899   C     0.50110   0.16502   0.88508   0.00000  Uiso   1.00
C900   C     0.50125   0.16391   0.61457   0.00000  Uiso   1.00
C901   C     0.46387   0.15341   0.90785   0.00000  Uiso   1.00
C902   C     0.53994   0.16930   0.59195   0.00000  Uiso   1.00
C903   C     0.46695   0.13803   0.95248   0.00000  Uiso   1.00
C904   C     0.54309   0.15532   0.54660   0.00000  Uiso   1.00
C905   C     0.50566   0.14398   0.97584   0.00000  Uiso   1.00
C906   C     0.50560   0.14374   0.52303   0.00000  Uiso   1.00
C907   C     0.54368   0.15311   0.95242   0.00000  Uiso   1.00
C908   C     0.46733   0.13534   0.54624   0.00000  Uiso   1.00
C909   C     0.43318   0.11587   0.97456   0.00000  Uiso   1.00
C910   C     0.58250   0.15162   0.52386   0.00000  Uiso   1.00
N911   N     0.50000   0.28573   0.75000   0.00000  Uiso   1.00
N912   N     0.50000   0.04760   0.75000   0.00000  Uiso   1.00
O913   O     0.43892   0.20487   0.74999   0.00000  Uiso   1.00
O914   O     0.56108   0.12846   0.75000   0.00000  Uiso   1.00
O915   O     0.56108   0.20487   0.75000   0.00000  Uiso   1.00
O916   O     0.43892   0.12846   0.74999   0.00000  Uiso   1.00
O917   O     0.49999   0.20489   0.68392   0.00000  Uiso   1.00
O918   O     0.50001   0.12844   0.81607   0.00000  Uiso   1.00
O919   O     0.50001   0.20489   0.81607   0.00000  Uiso   1.00
O920   O     0.49999   0.12844   0.68392   0.00000  Uiso   1.00
Zn921  Zn    0.50000   0.21771   0.75000   0.00000  Uiso   1.00
Zn922  Zn    0.50000   0.11563   0.75000   0.00000  Uiso   1.00
C923   C     0.57737   0.18071   0.88147   0.00000  Uiso   1.00
N924   N     0.60638   0.19339   0.86153   0.00000  Uiso   1.00
C925   C     0.42462   0.14998   0.61565   0.00000  Uiso   1.00
N926   N     0.39263   0.15209   0.63445   0.00000  Uiso   1.00
C927   C     0.42212   0.16294   0.88626   0.00000  Uiso   1.00
H928   H     0.41817   0.15977   0.85013   0.00000  Uiso   1.00
O929   O     0.39224   0.17631   0.90864   0.00000  Uiso   1.00
C930   C     0.57500   0.19528   0.61325   0.00000  Uiso   1.00
H931   H     0.59160   0.22052   0.59392   0.00000  Uiso   1.00
O932   O     0.58718   0.18701   0.65129   0.00000  Uiso   1.00
C933   C     0.40185   0.08835   0.94829   0.00000  Uiso   1.00
H934   H     0.36999   0.08335   0.96056   0.00000  Uiso   1.00
O935   O     0.41193   0.06974   0.91300   0.00000  Uiso   1.00
C936   C     0.62261   0.14329   0.54921   0.00000  Uiso   1.00
H937   H     0.65208   0.15851   0.53859   0.00000  Uiso   1.00
O938   O     0.62312   0.11820   0.58159   0.00000  Uiso   1.00
C939   C     0.40111   0.08697   0.54580   0.00000  Uiso   1.00
H940   H     0.36812   0.08790   0.53566   0.00000  Uiso   1.00
O941   O     0.41168   0.06179   0.57616   0.00000  Uiso   1.00
C942   C     0.62295   0.13878   0.95268   0.00000  Uiso   1.00
H943   H     0.65223   0.15562   0.96201   0.00000  Uiso   1.00
O944   O     0.62373   0.10947   0.92350   0.00000  Uiso   1.00
C945   C     0.37074   0.08590   0.79142   0.00000  Uiso   1.00
H946   H     0.40254   0.08613   0.80537   0.00000  Uiso   1.00
O947   O     0.34838   0.05360   0.79983   0.00000  Uiso   1.00
C948   C     0.63326   0.24961   0.72135   0.00000  Uiso   1.00
H949   H     0.60173   0.25211   0.70728   0.00000  Uiso   1.00
O950   O     0.65740   0.28063   0.71354   0.00000  Uiso   1.00
C951   C     0.63246   0.08402   0.72203   0.00000  Uiso   1.00
H952   H     0.64465   0.05116   0.73030   0.00000  Uiso   1.00
O953   O     0.60806   0.08643   0.68996   0.00000  Uiso   1.00
C954   C     0.37053   0.24893   0.79069   0.00000  Uiso   1.00
H955   H     0.35454   0.28093   0.78779   0.00000  Uiso   1.00
O956   O     0.40031   0.24677   0.81708   0.00000  Uiso   1.00
C957   C     0.54983   0.04921   0.81432   0.00000  Uiso   1.00
H958   H     0.57110   0.07623   0.80627   0.00000  Uiso   1.00
O959   O     0.54597   0.03886   0.85389   0.00000  Uiso   1.00
C960   C     0.45006   0.28448   0.68549   0.00000  Uiso   1.00
H961   H     0.43070   0.25577   0.69293   0.00000  Uiso   1.00
O962   O     0.45185   0.29678   0.64632   0.00000  Uiso   1.00
C963   C     0.43872   0.04737   0.69757   0.00000  Uiso   1.00
H964   H     0.44478   0.07826   0.68040   0.00000  Uiso   1.00
O965   O     0.40270   0.03239   0.69626   0.00000  Uiso   1.00
C966   C     0.56084   0.28618   0.80325   0.00000  Uiso   1.00
H967   H     0.55505   0.25443   0.81870   0.00000  Uiso   1.00
O968   O     0.59634   0.30219   0.80705   0.00000  Uiso   1.00
C969   C     0.75388   0.16670   0.75744   0.00000  Uiso   1.00
C970   C     0.91371   0.16674   0.74589   0.00000  Uiso   1.00
C971   C     0.76659   0.11466   0.52220   0.00000  Uiso   1.00
C972   C     0.91609   0.14985   0.97626   0.00000  Uiso   1.00
C973   C     0.68715   0.12586   0.76698   0.00000  Uiso   1.00
C974   C     0.98151   0.20834   0.74536   0.00000  Uiso   1.00
C975   C     0.98087   0.12555   0.74609   0.00000  Uiso   1.00
C976   C     0.68770   0.20799   0.76636   0.00000  Uiso   1.00
C977   C     0.95948   0.16697   0.74157   0.00000  Uiso   1.00
C978   C     0.70925   0.16683   0.76850   0.00000  Uiso   1.00
C979   C     0.85939   0.02447   0.77871   0.00000  Uiso   1.00
C980   C     0.80725   0.30896   0.72127   0.00000  Uiso   1.00
C981   C     0.80585   0.02362   0.72275   0.00000  Uiso   1.00
C982   C     0.86072   0.30980   0.77741   0.00000  Uiso   1.00
C983   C     0.83378   0.16634   0.66327   0.00000  Uiso   1.00
C984   C     0.83311   0.16670   0.83661   0.00000  Uiso   1.00
C985   C     0.87421   0.16469   0.90642   0.00000  Uiso   1.00
C986   C     0.79829   0.14760   0.59224   0.00000  Uiso   1.00
C987   C     0.83443   0.16502   0.88508   0.00000  Uiso   1.00
C988   C     0.83459   0.16391   0.61457   0.00000  Uiso   1.00
C989   C     0.79720   0.15341   0.90785   0.00000  Uiso   1.00
C990   C     0.87327   0.16930   0.59195   0.00000  Uiso   1.00
C991   C     0.80028   0.13803   0.95248   0.00000  Uiso   1.00
C992   C     0.87642   0.15532   0.54660   0.00000  Uiso   1.00
C993   C     0.83899   0.14398   0.97584   0.00000  Uiso   1.00
C994   C     0.83893   0.14374   0.52303   0.00000  Uiso   1.00
C995   C     0.87702   0.15311   0.95242   0.00000  Uiso   1.00
C996   C     0.80066   0.13534   0.54624   0.00000  Uiso   1.00
C997   C     0.76651   0.11587   0.97456   0.00000  Uiso   1.00
C998   C     0.91583   0.15162   0.52386   0.00000  Uiso   1.00
N999   N     0.83333   0.28573   0.75000   0.00000  Uiso   1.00
N1000  N     0.83333   0.04760   0.75000   0.00000  Uiso   1.00
O1001  O     0.77226   0.20487   0.74999   0.00000  Uiso   1.00
O1002  O     0.89441   0.12846   0.75000   0.00000  Uiso   1.00
O1003  O     0.89441   0.20487   0.75000   0.00000  Uiso   1.00
O1004  O     0.77226   0.12846   0.74999   0.00000  Uiso   1.00
O1005  O     0.83333   0.20489   0.68392   0.00000  Uiso   1.00
O1006  O     0.83334   0.12844   0.81607   0.00000  Uiso   1.00
O1007  O     0.83334   0.20489   0.81607   0.00000  Uiso   1.00
O1008  O     0.83333   0.12844   0.68392   0.00000  Uiso   1.00
Zn1009 Zn    0.83333   0.21771   0.75000   0.00000  Uiso   1.00
Zn1010 Zn    0.83333   0.11563   0.75000   0.00000  Uiso   1.00
C1011  C     0.91071   0.18071   0.88147   0.00000  Uiso   1.00
N1012  N     0.93971   0.19339   0.86153   0.00000  Uiso   1.00
C1013  C     0.75795   0.14998   0.61565   0.00000  Uiso   1.00
N1014  N     0.72597   0.15209   0.63445   0.00000  Uiso   1.00
C1015  C     0.75546   0.16294   0.88626   0.00000  Uiso   1.00
H1016  H     0.75150   0.15977   0.85013   0.00000  Uiso   1.00
O1017  O     0.72558   0.17631   0.90864   0.00000  Uiso   1.00
C1018  C     0.90833   0.19528   0.61325   0.00000  Uiso   1.00
H1019  H     0.92493   0.22052   0.59392   0.00000  Uiso   1.00
O1020  O     0.92051   0.18701   0.65129   0.00000  Uiso   1.00
C1021  C     0.73518   0.08835   0.94829   0.00000  Uiso   1.00
H1022  H     0.70333   0.08335   0.96056   0.00000  Uiso   1.00
O1023  O     0.74526   0.06974   0.91300   0.00000  Uiso   1.00
C1024  C     0.95595   0.14329   0.54921   0.00000  Uiso   1.00
H1025  H     0.98541   0.15851   0.53859   0.00000  Uiso   1.00
O1026  O     0.95645   0.11820   0.58159   0.00000  Uiso   1.00
C1027  C     0.73445   0.08697   0.54580   0.00000  Uiso   1.00
H1028  H     0.70145   0.08790   0.53566   0.00000  Uiso   1.00
O1029  O     0.74501   0.06179   0.57616   0.00000  Uiso   1.00
C1030  C     0.95628   0.13878   0.95268   0.00000  Uiso   1.00
H1031  H     0.98556   0.15562   0.96201   0.00000  Uiso   1.00
O1032  O     0.95706   0.10947   0.92350   0.00000  Uiso   1.00
C1033  C     0.70407   0.08590   0.79142   0.00000  Uiso   1.00
H1034  H     0.73588   0.08613   0.80537   0.00000  Uiso   1.00
O1035  O     0.68171   0.05360   0.79983   0.00000  Uiso   1.00
C1036  C     0.96659   0.24961   0.72135   0.00000  Uiso   1.00
H1037  H     0.93506   0.25211   0.70728   0.00000  Uiso   1.00
O1038  O     0.99073   0.28063   0.71354   0.00000  Uiso   1.00
C1039  C     0.96579   0.08402   0.72203   0.00000  Uiso   1.00
H1040  H     0.97798   0.05116   0.73030   0.00000  Uiso   1.00
O1041  O     0.94140   0.08643   0.68996   0.00000  Uiso   1.00
C1042  C     0.70386   0.24893   0.79069   0.00000  Uiso   1.00
H1043  H     0.68787   0.28093   0.78779   0.00000  Uiso   1.00
O1044  O     0.73364   0.24677   0.81708   0.00000  Uiso   1.00
C1045  C     0.88317   0.04921   0.81432   0.00000  Uiso   1.00
H1046  H     0.90443   0.07623   0.80627   0.00000  Uiso   1.00
O1047  O     0.87931   0.03886   0.85389   0.00000  Uiso   1.00
C1048  C     0.78339   0.28448   0.68549   0.00000  Uiso   1.00
H1049  H     0.76403   0.25577   0.69293   0.00000  Uiso   1.00
O1050  O     0.78518   0.29678   0.64632   0.00000  Uiso   1.00
C1051  C     0.77205   0.04737   0.69757   0.00000  Uiso   1.00
H1052  H     0.77812   0.07826   0.68040   0.00000  Uiso   1.00
O1053  O     0.73603   0.03239   0.69626   0.00000  Uiso   1.00
C1054  C     0.89418   0.28618   0.80325   0.00000  Uiso   1.00
H1055  H     0.88838   0.25443   0.81870   0.00000  Uiso   1.00
O1056  O     0.92967   0.30219   0.80705   0.00000  Uiso   1.00
C1057  C     0.08721   0.50003   0.75744   0.00000  Uiso   1.00
C1058  C     0.24704   0.50008   0.74589   0.00000  Uiso   1.00
C1059  C     0.09992   0.44799   0.52220   0.00000  Uiso   1.00
C1060  C     0.24943   0.48318   0.97626   0.00000  Uiso   1.00
C1061  C     0.02048   0.45919   0.76698   0.00000  Uiso   1.00
C1062  C     0.31484   0.54167   0.74536   0.00000  Uiso   1.00
C1063  C     0.31420   0.45888   0.74609   0.00000  Uiso   1.00
C1064  C     0.02103   0.54132   0.76636   0.00000  Uiso   1.00
C1065  C     0.29281   0.50030   0.74157   0.00000  Uiso   1.00
C1066  C     0.04258   0.50016   0.76850   0.00000  Uiso   1.00
C1067  C     0.19272   0.35780   0.77871   0.00000  Uiso   1.00
C1068  C     0.14059   0.64229   0.72127   0.00000  Uiso   1.00
C1069  C     0.13919   0.35696   0.72275   0.00000  Uiso   1.00
C1070  C     0.19406   0.64313   0.77741   0.00000  Uiso   1.00
C1071  C     0.16711   0.49967   0.66327   0.00000  Uiso   1.00
C1072  C     0.16644   0.50003   0.83661   0.00000  Uiso   1.00
C1073  C     0.20754   0.49803   0.90642   0.00000  Uiso   1.00
C1074  C     0.13163   0.48093   0.59224   0.00000  Uiso   1.00
C1075  C     0.16776   0.49835   0.88508   0.00000  Uiso   1.00
C1076  C     0.16792   0.49724   0.61457   0.00000  Uiso   1.00
C1077  C     0.13054   0.48674   0.90785   0.00000  Uiso   1.00
C1078  C     0.20661   0.50263   0.59195   0.00000  Uiso   1.00
C1079  C     0.13361   0.47137   0.95248   0.00000  Uiso   1.00
C1080  C     0.20976   0.48865   0.54660   0.00000  Uiso   1.00
C1081  C     0.17233   0.47731   0.97584   0.00000  Uiso   1.00
C1082  C     0.17226   0.47708   0.52303   0.00000  Uiso   1.00
C1083  C     0.21035   0.48644   0.95242   0.00000  Uiso   1.00
C1084  C     0.13400   0.46868   0.54624   0.00000  Uiso   1.00
C1085  C     0.09984   0.44920   0.97456   0.00000  Uiso   1.00
C1086  C     0.24916   0.48495   0.52386   0.00000  Uiso   1.00
N1087  N     0.16667   0.61907   0.75000   0.00000  Uiso   1.00
N1088  N     0.16667   0.38093   0.75000   0.00000  Uiso   1.00
O1089  O     0.10559   0.53821   0.74999   0.00000  Uiso   1.00
O1090  O     0.22774   0.46179   0.75000   0.00000  Uiso   1.00
O1091  O     0.22774   0.53821   0.75000   0.00000  Uiso   1.00
O1092  O     0.10559   0.46179   0.74999   0.00000  Uiso   1.00
O1093  O     0.16666   0.53823   0.68392   0.00000  Uiso   1.00
O1094  O     0.16667   0.46177   0.81607   0.00000  Uiso   1.00
O1095  O     0.16667   0.53823   0.81607   0.00000  Uiso   1.00
O1096  O     0.16666   0.46177   0.68392   0.00000  Uiso   1.00
Zn1097 Zn    0.16667   0.55104   0.75000   0.00000  Uiso   1.00
Zn1098 Zn    0.16667   0.44896   0.75000   0.00000  Uiso   1.00
C1099  C     0.24404   0.51404   0.88147   0.00000  Uiso   1.00
N1100  N     0.27304   0.52672   0.86153   0.00000  Uiso   1.00
C1101  C     0.09128   0.48331   0.61565   0.00000  Uiso   1.00
N1102  N     0.05930   0.48542   0.63445   0.00000  Uiso   1.00
C1103  C     0.08879   0.49627   0.88626   0.00000  Uiso   1.00
H1104  H     0.08484   0.49310   0.85013   0.00000  Uiso   1.00
O1105  O     0.05891   0.50965   0.90864   0.00000  Uiso   1.00
C1106  C     0.24167   0.52861   0.61325   0.00000  Uiso   1.00
H1107  H     0.25827   0.55385   0.59392   0.00000  Uiso   1.00
O1108  O     0.25385   0.52034   0.65129   0.00000  Uiso   1.00
C1109  C     0.06851   0.42168   0.94829   0.00000  Uiso   1.00
H1110  H     0.03666   0.41668   0.96056   0.00000  Uiso   1.00
O1111  O     0.07859   0.40308   0.91300   0.00000  Uiso   1.00
C1112  C     0.28928   0.47663   0.54921   0.00000  Uiso   1.00
H1113  H     0.31874   0.49185   0.53859   0.00000  Uiso   1.00
O1114  O     0.28979   0.45153   0.58159   0.00000  Uiso   1.00
C1115  C     0.06778   0.42030   0.54580   0.00000  Uiso   1.00
H1116  H     0.03479   0.42123   0.53566   0.00000  Uiso   1.00
O1117  O     0.07834   0.39513   0.57616   0.00000  Uiso   1.00
C1118  C     0.28961   0.47212   0.95268   0.00000  Uiso   1.00
H1119  H     0.31889   0.48896   0.96201   0.00000  Uiso   1.00
O1120  O     0.29039   0.44281   0.92350   0.00000  Uiso   1.00
C1121  C     0.03741   0.41923   0.79142   0.00000  Uiso   1.00
H1122  H     0.06921   0.41946   0.80537   0.00000  Uiso   1.00
O1123  O     0.01505   0.38693   0.79983   0.00000  Uiso   1.00
C1124  C     0.29993   0.58294   0.72135   0.00000  Uiso   1.00
H1125  H     0.26839   0.58545   0.70728   0.00000  Uiso   1.00
O1126  O     0.32406   0.61396   0.71354   0.00000  Uiso   1.00
C1127  C     0.29912   0.41735   0.72203   0.00000  Uiso   1.00
H1128  H     0.31131   0.38449   0.73030   0.00000  Uiso   1.00
O1129  O     0.27473   0.41976   0.68996   0.00000  Uiso   1.00
C1130  C     0.03719   0.58226   0.79069   0.00000  Uiso   1.00
H1131  H     0.02120   0.61427   0.78779   0.00000  Uiso   1.00
O1132  O     0.06698   0.58010   0.81708   0.00000  Uiso   1.00
C1133  C     0.21650   0.38255   0.81432   0.00000  Uiso   1.00
H1134  H     0.23777   0.40957   0.80627   0.00000  Uiso   1.00
O1135  O     0.21264   0.37219   0.85389   0.00000  Uiso   1.00
C1136  C     0.11672   0.61781   0.68549   0.00000  Uiso   1.00
H1137  H     0.09737   0.58910   0.69293   0.00000  Uiso   1.00
O1138  O     0.11851   0.63012   0.64632   0.00000  Uiso   1.00
C1139  C     0.10538   0.38070   0.69757   0.00000  Uiso   1.00
H1140  H     0.11145   0.41159   0.68040   0.00000  Uiso   1.00
O1141  O     0.06936   0.36573   0.69626   0.00000  Uiso   1.00
C1142  C     0.22751   0.61951   0.80325   0.00000  Uiso   1.00
H1143  H     0.22172   0.58777   0.81870   0.00000  Uiso   1.00
O1144  O     0.26300   0.63552   0.80705   0.00000  Uiso   1.00
C1145  C     0.42055   0.50003   0.75744   0.00000  Uiso   1.00
C1146  C     0.58037   0.50008   0.74589   0.00000  Uiso   1.00
C1147  C     0.43326   0.44799   0.52220   0.00000  Uiso   1.00
C1148  C     0.58276   0.48318   0.97626   0.00000  Uiso   1.00
C1149  C     0.35381   0.45919   0.76698   0.00000  Uiso   1.00
C1150  C     0.64818   0.54167   0.74536   0.00000  Uiso   1.00
C1151  C     0.64754   0.45888   0.74609   0.00000  Uiso   1.00
C1152  C     0.35436   0.54132   0.76636   0.00000  Uiso   1.00
C1153  C     0.62614   0.50030   0.74157   0.00000  Uiso   1.00
C1154  C     0.37592   0.50016   0.76850   0.00000  Uiso   1.00
C1155  C     0.52605   0.35780   0.77871   0.00000  Uiso   1.00
C1156  C     0.47392   0.64229   0.72127   0.00000  Uiso   1.00
C1157  C     0.47252   0.35696   0.72275   0.00000  Uiso   1.00
C1158  C     0.52739   0.64313   0.77741   0.00000  Uiso   1.00
C1159  C     0.50045   0.49967   0.66327   0.00000  Uiso   1.00
C1160  C     0.49978   0.50003   0.83661   0.00000  Uiso   1.00
C1161  C     0.54088   0.49803   0.90642   0.00000  Uiso   1.00
C1162  C     0.46496   0.48093   0.59224   0.00000  Uiso   1.00
C1163  C     0.50110   0.49835   0.88508   0.00000  Uiso   1.00
C1164  C     0.50125   0.49724   0.61457   0.00000  Uiso   1.00
C1165  C     0.46387   0.48674   0.90785   0.00000  Uiso   1.00
C1166  C     0.53994   0.50263   0.59195   0.00000  Uiso   1.00
C1167  C     0.46695   0.47137   0.95248   0.00000  Uiso   1.00
C1168  C     0.54309   0.48865   0.54660   0.00000  Uiso   1.00
C1169  C     0.50566   0.47731   0.97584   0.00000  Uiso   1.00
C1170  C     0.50560   0.47708   0.52303   0.00000  Uiso   1.00
C1171  C     0.54368   0.48644   0.95242   0.00000  Uiso   1.00
C1172  C     0.46733   0.46868   0.54624   0.00000  Uiso   1.00
C1173  C     0.43318   0.44920   0.97456   0.00000  Uiso   1.00
C1174  C     0.58250   0.48495   0.52386   0.00000  Uiso   1.00
N1175  N     0.50000   0.61907   0.75000   0.00000  Uiso   1.00
N1176  N     0.50000   0.38093   0.75000   0.00000  Uiso   1.00
O1177  O     0.43892   0.53821   0.74999   0.00000  Uiso   1.00
O1178  O     0.56108   0.46179   0.75000   0.00000  Uiso   1.00
O1179  O     0.56108   0.53821   0.75000   0.00000  Uiso   1.00
O1180  O     0.43892   0.46179   0.74999   0.00000  Uiso   1.00
O1181  O     0.49999   0.53823   0.68392   0.00000  Uiso   1.00
O1182  O     0.50001   0.46177   0.81607   0.00000  Uiso   1.00
O1183  O     0.50001   0.53823   0.81607   0.00000  Uiso   1.00
O1184  O     0.49999   0.46177   0.68392   0.00000  Uiso   1.00
Zn1185 Zn    0.50000   0.55104   0.75000   0.00000  Uiso   1.00
Zn1186 Zn    0.50000   0.44896   0.75000   0.00000  Uiso   1.00
C1187  C     0.57737   0.51404   0.88147   0.00000  Uiso   1.00
N1188  N     0.60638   0.52672   0.86153   0.00000  Uiso   1.00
C1189  C     0.42462   0.48331   0.61565   0.00000  Uiso   1.00
N1190  N     0.39263   0.48542   0.63445   0.00000  Uiso   1.00
C1191  C     0.42212   0.49627   0.88626   0.00000  Uiso   1.00
H1192  H     0.41817   0.49310   0.85013   0.00000  Uiso   1.00
O1193  O     0.39224   0.50965   0.90864   0.00000  Uiso   1.00
C1194  C     0.57500   0.52861   0.61325   0.00000  Uiso   1.00
H1195  H     0.59160   0.55385   0.59392   0.00000  Uiso   1.00
O1196  O     0.58718   0.52034   0.65129   0.00000  Uiso   1.00
C1197  C     0.40185   0.42168   0.94829   0.00000  Uiso   1.00
H1198  H     0.36999   0.41668   0.96056   0.00000  Uiso   1.00
O1199  O     0.41193   0.40308   0.91300   0.00000  Uiso   1.00
C1200  C     0.62261   0.47663   0.54921   0.00000  Uiso   1.00
H1201  H     0.65208   0.49185   0.53859   0.00000  Uiso   1.00
O1202  O     0.62312   0.45153   0.58159   0.00000  Uiso   1.00
C1203  C     0.40111   0.42030   0.54580   0.00000  Uiso   1.00
H1204  H     0.36812   0.42123   0.53566   0.00000  Uiso   1.00
O1205  O     0.41168   0.39513   0.57616   0.00000  Uiso   1.00
C1206  C     0.62295   0.47212   0.95268   0.00000  Uiso   1.00
H1207  H     0.65223   0.48896   0.96201   0.00000  Uiso   1.00
O1208  O     0.62373   0.44281   0.92350   0.00000  Uiso   1.00
C1209  C     0.37074   0.41923   0.79142   0.00000  Uiso   1.00
H1210  H     0.40254   0.41946   0.80537   0.00000  Uiso   1.00
O1211  O     0.34838   0.38693   0.79983   0.00000  Uiso   1.00
C1212  C     0.63326   0.58294   0.72135   0.00000  Uiso   1.00
H1213  H     0.60173   0.58545   0.70728   0.00000  Uiso   1.00
O1214  O     0.65740   0.61396   0.71354   0.00000  Uiso   1.00
C1215  C     0.63246   0.41735   0.72203   0.00000  Uiso   1.00
H1216  H     0.64465   0.38449   0.73030   0.00000  Uiso   1.00
O1217  O     0.60806   0.41976   0.68996   0.00000  Uiso   1.00
C1218  C     0.37053   0.58226   0.79069   0.00000  Uiso   1.00
H1219  H     0.35454   0.61427   0.78779   0.00000  Uiso   1.00
O1220  O     0.40031   0.58010   0.81708   0.00000  Uiso   1.00
C1221  C     0.54983   0.38255   0.81432   0.00000  Uiso   1.00
H1222  H     0.57110   0.40957   0.80627   0.00000  Uiso   1.00
O1223  O     0.54597   0.37219   0.85389   0.00000  Uiso   1.00
C1224  C     0.45006   0.61781   0.68549   0.00000  Uiso   1.00
H1225  H     0.43070   0.58910   0.69293   0.00000  Uiso   1.00
O1226  O     0.45185   0.63012   0.64632   0.00000  Uiso   1.00
C1227  C     0.43872   0.38070   0.69757   0.00000  Uiso   1.00
H1228  H     0.44478   0.41159   0.68040   0.00000  Uiso   1.00
O1229  O     0.40270   0.36573   0.69626   0.00000  Uiso   1.00
C1230  C     0.56084   0.61951   0.80325   0.00000  Uiso   1.00
H1231  H     0.55505   0.58777   0.81870   0.00000  Uiso   1.00
O1232  O     0.59634   0.63552   0.80705   0.00000  Uiso   1.00
C1233  C     0.75388   0.50003   0.75744   0.00000  Uiso   1.00
C1234  C     0.91371   0.50008   0.74589   0.00000  Uiso   1.00
C1235  C     0.76659   0.44799   0.52220   0.00000  Uiso   1.00
C1236  C     0.91609   0.48318   0.97626   0.00000  Uiso   1.00
C1237  C     0.68715   0.45919   0.76698   0.00000  Uiso   1.00
C1238  C     0.98151   0.54167   0.74536   0.00000  Uiso   1.00
C1239  C     0.98087   0.45888   0.74609   0.00000  Uiso   1.00
C1240  C     0.68770   0.54132   0.76636   0.00000  Uiso   1.00
C1241  C     0.95948   0.50030   0.74157   0.00000  Uiso   1.00
C1242  C     0.70925   0.50016   0.76850   0.00000  Uiso   1.00
C1243  C     0.85939   0.35780   0.77871   0.00000  Uiso   1.00
C1244  C     0.80725   0.64229   0.72127   0.00000  Uiso   1.00
C1245  C     0.80585   0.35696   0.72275   0.00000  Uiso   1.00
C1246  C     0.86072   0.64313   0.77741   0.00000  Uiso   1.00
C1247  C     0.83378   0.49967   0.66327   0.00000  Uiso   1.00
C1248  C     0.83311   0.50003   0.83661   0.00000  Uiso   1.00
C1249  C     0.87421   0.49803   0.90642   0.00000  Uiso   1.00
C1250  C     0.79829   0.48093   0.59224   0.00000  Uiso   1.00
C1251  C     0.83443   0.49835   0.88508   0.00000  Uiso   1.00
C1252  C     0.83459   0.49724   0.61457   0.00000  Uiso   1.00
C1253  C     0.79720   0.48674   0.90785   0.00000  Uiso   1.00
C1254  C     0.87327   0.50263   0.59195   0.00000  Uiso   1.00
C1255  C     0.80028   0.47137   0.95248   0.00000  Uiso   1.00
C1256  C     0.87642   0.48865   0.54660   0.00000  Uiso   1.00
C1257  C     0.83899   0.47731   0.97584   0.00000  Uiso   1.00
C1258  C     0.83893   0.47708   0.52303   0.00000  Uiso   1.00
C1259  C     0.87702   0.48644   0.95242   0.00000  Uiso   1.00
C1260  C     0.80066   0.46868   0.54624   0.00000  Uiso   1.00
C1261  C     0.76651   0.44920   0.97456   0.00000  Uiso   1.00
C1262  C     0.91583   0.48495   0.52386   0.00000  Uiso   1.00
N1263  N     0.83333   0.61907   0.75000   0.00000  Uiso   1.00
N1264  N     0.83333   0.38093   0.75000   0.00000  Uiso   1.00
O1265  O     0.77226   0.53821   0.74999   0.00000  Uiso   1.00
O1266  O     0.89441   0.46179   0.75000   0.00000  Uiso   1.00
O1267  O     0.89441   0.53821   0.75000   0.00000  Uiso   1.00
O1268  O     0.77226   0.46179   0.74999   0.00000  Uiso   1.00
O1269  O     0.83333   0.53823   0.68392   0.00000  Uiso   1.00
O1270  O     0.83334   0.46177   0.81607   0.00000  Uiso   1.00
O1271  O     0.83334   0.53823   0.81607   0.00000  Uiso   1.00
O1272  O     0.83333   0.46177   0.68392   0.00000  Uiso   1.00
Zn1273 Zn    0.83333   0.55104   0.75000   0.00000  Uiso   1.00
Zn1274 Zn    0.83333   0.44896   0.75000   0.00000  Uiso   1.00
C1275  C     0.91071   0.51404   0.88147   0.00000  Uiso   1.00
N1276  N     0.93971   0.52672   0.86153   0.00000  Uiso   1.00
C1277  C     0.75795   0.48331   0.61565   0.00000  Uiso   1.00
N1278  N     0.72597   0.48542   0.63445   0.00000  Uiso   1.00
C1279  C     0.75546   0.49627   0.88626   0.00000  Uiso   1.00
H1280  H     0.75150   0.49310   0.85013   0.00000  Uiso   1.00
O1281  O     0.72558   0.50965   0.90864   0.00000  Uiso   1.00
C1282  C     0.90833   0.52861   0.61325   0.00000  Uiso   1.00
H1283  H     0.92493   0.55385   0.59392   0.00000  Uiso   1.00
O1284  O     0.92051   0.52034   0.65129   0.00000  Uiso   1.00
C1285  C     0.73518   0.42168   0.94829   0.00000  Uiso   1.00
H1286  H     0.70333   0.41668   0.96056   0.00000  Uiso   1.00
O1287  O     0.74526   0.40308   0.91300   0.00000  Uiso   1.00
C1288  C     0.95595   0.47663   0.54921   0.00000  Uiso   1.00
H1289  H     0.98541   0.49185   0.53859   0.00000  Uiso   1.00
O1290  O     0.95645   0.45153   0.58159   0.00000  Uiso   1.00
C1291  C     0.73445   0.42030   0.54580   0.00000  Uiso   1.00
H1292  H     0.70145   0.42123   0.53566   0.00000  Uiso   1.00
O1293  O     0.74501   0.39513   0.57616   0.00000  Uiso   1.00
C1294  C     0.95628   0.47212   0.95268   0.00000  Uiso   1.00
H1295  H     0.98556   0.48896   0.96201   0.00000  Uiso   1.00
O1296  O     0.95706   0.44281   0.92350   0.00000  Uiso   1.00
C1297  C     0.70407   0.41923   0.79142   0.00000  Uiso   1.00
H1298  H     0.73588   0.41946   0.80537   0.00000  Uiso   1.00
O1299  O     0.68171   0.38693   0.79983   0.00000  Uiso   1.00
C1300  C     0.96659   0.58294   0.72135   0.00000  Uiso   1.00
H1301  H     0.93506   0.58545   0.70728   0.00000  Uiso   1.00
O1302  O     0.99073   0.61396   0.71354   0.00000  Uiso   1.00
C1303  C     0.96579   0.41735   0.72203   0.00000  Uiso   1.00
H1304  H     0.97798   0.38449   0.73030   0.00000  Uiso   1.00
O1305  O     0.94140   0.41976   0.68996   0.00000  Uiso   1.00
C1306  C     0.70386   0.58226   0.79069   0.00000  Uiso   1.00
H1307  H     0.68787   0.61427   0.78779   0.00000  Uiso   1.00
O1308  O     0.73364   0.58010   0.81708   0.00000  Uiso   1.00
C1309  C     0.88317   0.38255   0.81432   0.00000  Uiso   1.00
H1310  H     0.90443   0.40957   0.80627   0.00000  Uiso   1.00
O1311  O     0.87931   0.37219   0.85389   0.00000  Uiso   1.00
C1312  C     0.78339   0.61781   0.68549   0.00000  Uiso   1.00
H1313  H     0.76403   0.58910   0.69293   0.00000  Uiso   1.00
O1314  O     0.78518   0.63012   0.64632   0.00000  Uiso   1.00
C1315  C     0.77205   0.38070   0.69757   0.00000  Uiso   1.00
H1316  H     0.77812   0.41159   0.68040   0.00000  Uiso   1.00
O1317  O     0.73603   0.36573   0.69626   0.00000  Uiso   1.00
C1318  C     0.89418   0.61951   0.80325   0.00000  Uiso   1.00
H1319  H     0.88838   0.58777   0.81870   0.00000  Uiso   1.00
O1320  O     0.92967   0.63552   0.80705   0.00000  Uiso   1.00
C1321  C     0.08721   0.83336   0.75744   0.00000  Uiso   1.00
C1322  C     0.24704   0.83341   0.74589   0.00000  Uiso   1.00
C1323  C     0.09992   0.78132   0.52220   0.00000  Uiso   1.00
C1324  C     0.24943   0.81652   0.97626   0.00000  Uiso   1.00
C1325  C     0.02048   0.79252   0.76698   0.00000  Uiso   1.00
C1326  C     0.31484   0.87501   0.74536   0.00000  Uiso   1.00
C1327  C     0.31420   0.79222   0.74609   0.00000  Uiso   1.00
C1328  C     0.02103   0.87466   0.76636   0.00000  Uiso   1.00
C1329  C     0.29281   0.83363   0.74157   0.00000  Uiso   1.00
C1330  C     0.04258   0.83349   0.76850   0.00000  Uiso   1.00
C1331  C     0.19272   0.69114   0.77871   0.00000  Uiso   1.00
C1332  C     0.14059   0.97563   0.72127   0.00000  Uiso   1.00
C1333  C     0.13919   0.69029   0.72275   0.00000  Uiso   1.00
C1334  C     0.19406   0.97647   0.77741   0.00000  Uiso   1.00
C1335  C     0.16711   0.83300   0.66327   0.00000  Uiso   1.00
C1336  C     0.16644   0.83336   0.83661   0.00000  Uiso   1.00
C1337  C     0.20754   0.83136   0.90642   0.00000  Uiso   1.00
C1338  C     0.13163   0.81427   0.59224   0.00000  Uiso   1.00
C1339  C     0.16776   0.83169   0.88508   0.00000  Uiso   1.00
C1340  C     0.16792   0.83057   0.61457   0.00000  Uiso   1.00
C1341  C     0.13054   0.82007   0.90785   0.00000  Uiso   1.00
C1342  C     0.20661   0.83597   0.59195   0.00000  Uiso   1.00
C1343  C     0.13361   0.80470   0.95248   0.00000  Uiso   1.00
C1344  C     0.20976   0.82199   0.54660   0.00000  Uiso   1.00
C1345  C     0.17233   0.81064   0.97584   0.00000  Uiso   1.00
C1346  C     0.17226   0.81041   0.52303   0.00000  Uiso   1.00
C1347  C     0.21035   0.81978   0.95242   0.00000  Uiso   1.00
C1348  C     0.13400   0.80201   0.54624   0.00000  Uiso   1.00
C1349  C     0.09984   0.78253   0.97456   0.00000  Uiso   1.00
C1350  C     0.24916   0.81829   0.52386   0.00000  Uiso   1.00
N1351  N     0.16667   0.95240   0.75000   0.00000  Uiso   1.00
N1352  N     0.16667   0.71427   0.75000   0.00000  Uiso   1.00
O1353  O     0.10559   0.87154   0.74999   0.00000  Uiso   1.00
O1354  O     0.22774   0.79513   0.75000   0.00000  Uiso   1.00
O1355  O     0.22774   0.87154   0.75000   0.00000  Uiso   1.00
O1356  O     0.10559   0.79513   0.74999   0.00000  Uiso   1.00
O1357  O     0.16666   0.87156   0.68392   0.00000  Uiso   1.00
O1358  O     0.16667   0.79511   0.81607   0.00000  Uiso   1.00
O1359  O     0.16667   0.87156   0.81607   0.00000  Uiso   1.00
O1360  O     0.16666   0.79511   0.68392   0.00000  Uiso   1.00
Zn1361 Zn    0.16667   0.88437   0.75000   0.00000  Uiso   1.00
Zn1362 Zn    0.16667   0.78229   0.75000   0.00000  Uiso   1.00
C1363  C     0.24404   0.84737   0.88147   0.00000  Uiso   1.00
N1364  N     0.27304   0.86006   0.86153   0.00000  Uiso   1.00
C1365  C     0.09128   0.81665   0.61565   0.00000  Uiso   1.00
N1366  N     0.05930   0.81876   0.63445   0.00000  Uiso   1.00
C1367  C     0.08879   0.82961   0.88626   0.00000  Uiso   1.00
H1368  H     0.08484   0.82643   0.85013   0.00000  Uiso   1.00
O1369  O     0.05891   0.84298   0.90864   0.00000  Uiso   1.00
C1370  C     0.24167   0.86194   0.61325   0.00000  Uiso   1.00
H1371  H     0.25827   0.88719   0.59392   0.00000  Uiso   1.00
O1372  O     0.25385   0.85367   0.65129   0.00000  Uiso   1.00
C1373  C     0.06851   0.75501   0.94829   0.00000  Uiso   1.00
H1374  H     0.03666   0.75002   0.96056   0.00000  Uiso   1.00
O1375  O     0.07859   0.73641   0.91300   0.00000  Uiso   1.00
C1376  C     0.28928   0.80996   0.54921   0.00000  Uiso   1.00
H1377  H     0.31874   0.82518   0.53859   0.00000  Uiso   1.00
O1378  O     0.28979   0.78487   0.58159   0.00000  Uiso   1.00
C1379  C     0.06778   0.75364   0.54580   0.00000  Uiso   1.00
H1380  H     0.03479   0.75456   0.53566   0.00000  Uiso   1.00
O1381  O     0.07834   0.72846   0.57616   0.00000  Uiso   1.00
C1382  C     0.28961   0.80545   0.95268   0.00000  Uiso   1.00
H1383  H     0.31889   0.82229   0.96201   0.00000  Uiso   1.00
O1384  O     0.29039   0.77614   0.92350   0.00000  Uiso   1.00
C1385  C     0.03741   0.75256   0.79142   0.00000  Uiso   1.00
H1386  H     0.06921   0.75280   0.80537   0.00000  Uiso   1.00
O1387  O     0.01505   0.72026   0.79983   0.00000  Uiso   1.00
C1388  C     0.29993   0.91627   0.72135   0.00000  Uiso   1.00
H1389  H     0.26839   0.91878   0.70728   0.00000  Uiso   1.00
O1390  O     0.32406   0.94729   0.71354   0.00000  Uiso   1.00
C1391  C     0.29912   0.75068   0.72203   0.00000  Uiso   1.00
H1392  H     0.31131   0.71783   0.73030   0.00000  Uiso   1.00
O1393  O     0.27473   0.75309   0.68996   0.00000  Uiso   1.00
C1394  C     0.03719   0.91559   0.79069   0.00000  Uiso   1.00
H1395  H     0.02120   0.94760   0.78779   0.00000  Uiso   1.00
O1396  O     0.06698   0.91343   0.81708   0.00000  Uiso   1.00
C1397  C     0.21650   0.71588   0.81432   0.00000  Uiso   1.00
H1398  H     0.23777   0.74290   0.80627   0.00000  Uiso   1.00
O1399  O     0.21264   0.70553   0.85389   0.00000  Uiso   1.00
C1400  C     0.11672   0.95114   0.68549   0.00000  Uiso   1.00
H1401  H     0.09737   0.92244   0.69293   0.00000  Uiso   1.00
O1402  O     0.11851   0.96345   0.64632   0.00000  Uiso   1.00
C1403  C     0.10538   0.71404   0.69757   0.00000  Uiso   1.00
H1404  H     0.11145   0.74492   0.68040   0.00000  Uiso   1.00
O1405  O     0.06936   0.69906   0.69626   0.00000  Uiso   1.00
C1406  C     0.22751   0.95285   0.80325   0.00000  Uiso   1.00
H1407  H     0.22172   0.92110   0.81870   0.00000  Uiso   1.00
O1408  O     0.26300   0.96886   0.80705   0.00000  Uiso   1.00
C1409  C     0.42055   0.83336   0.75744   0.00000  Uiso   1.00
C1410  C     0.58037   0.83341   0.74589   0.00000  Uiso   1.00
C1411  C     0.43326   0.78132   0.52220   0.00000  Uiso   1.00
C1412  C     0.58276   0.81652   0.97626   0.00000  Uiso   1.00
C1413  C     0.35381   0.79252   0.76698   0.00000  Uiso   1.00
C1414  C     0.64818   0.87501   0.74536   0.00000  Uiso   1.00
C1415  C     0.64754   0.79222   0.74609   0.00000  Uiso   1.00
C1416  C     0.35436   0.87466   0.76636   0.00000  Uiso   1.00
C1417  C     0.62614   0.83363   0.74157   0.00000  Uiso   1.00
C1418  C     0.37592   0.83349   0.76850   0.00000  Uiso   1.00
C1419  C     0.52605   0.69114   0.77871   0.00000  Uiso   1.00
C1420  C     0.47392   0.97563   0.72127   0.00000  Uiso   1.00
C1421  C     0.47252   0.69029   0.72275   0.00000  Uiso   1.00
C1422  C     0.52739   0.97647   0.77741   0.00000  Uiso   1.00
C1423  C     0.50045   0.83300   0.66327   0.00000  Uiso   1.00
C1424  C     0.49978   0.83336   0.83661   0.00000  Uiso   1.00
C1425  C     0.54088   0.83136   0.90642   0.00000  Uiso   1.00
C1426  C     0.46496   0.81427   0.59224   0.00000  Uiso   1.00
C1427  C     0.50110   0.83169   0.88508   0.00000  Uiso   1.00
C1428  C     0.50125   0.83057   0.61457   0.00000  Uiso   1.00
C1429  C     0.46387   0.82007   0.90785   0.00000  Uiso   1.00
C1430  C     0.53994   0.83597   0.59195   0.00000  Uiso   1.00
C1431  C     0.46695   0.80470   0.95248   0.00000  Uiso   1.00
C1432  C     0.54309   0.82199   0.54660   0.00000  Uiso   1.00
C1433  C     0.50566   0.81064   0.97584   0.00000  Uiso   1.00
C1434  C     0.50560   0.81041   0.52303   0.00000  Uiso   1.00
C1435  C     0.54368   0.81978   0.95242   0.00000  Uiso   1.00
C1436  C     0.46733   0.80201   0.54624   0.00000  Uiso   1.00
C1437  C     0.43318   0.78253   0.97456   0.00000  Uiso   1.00
C1438  C     0.58250   0.81829   0.52386   0.00000  Uiso   1.00
N1439  N     0.50000   0.95240   0.75000   0.00000  Uiso   1.00
N1440  N     0.50000   0.71427   0.75000   0.00000  Uiso   1.00
O1441  O     0.43892   0.87154   0.74999   0.00000  Uiso   1.00
O1442  O     0.56108   0.79513   0.75000   0.00000  Uiso   1.00
O1443  O     0.56108   0.87154   0.75000   0.00000  Uiso   1.00
O1444  O     0.43892   0.79513   0.74999   0.00000  Uiso   1.00
O1445  O     0.49999   0.87156   0.68392   0.00000  Uiso   1.00
O1446  O     0.50001   0.79511   0.81607   0.00000  Uiso   1.00
O1447  O     0.50001   0.87156   0.81607   0.00000  Uiso   1.00
O1448  O     0.49999   0.79511   0.68392   0.00000  Uiso   1.00
Zn1449 Zn    0.50000   0.88437   0.75000   0.00000  Uiso   1.00
Zn1450 Zn    0.50000   0.78229   0.75000   0.00000  Uiso   1.00
C1451  C     0.57737   0.84737   0.88147   0.00000  Uiso   1.00
N1452  N     0.60638   0.86006   0.86153   0.00000  Uiso   1.00
C1453  C     0.42462   0.81665   0.61565   0.00000  Uiso   1.00
N1454  N     0.39263   0.81876   0.63445   0.00000  Uiso   1.00
C1455  C     0.42212   0.82961   0.88626   0.00000  Uiso   1.00
H1456  H     0.41817   0.82643   0.85013   0.00000  Uiso   1.00
O1457  O     0.39224   0.84298   0.90864   0.00000  Uiso   1.00
C1458  C     0.57500   0.86194   0.61325   0.00000  Uiso   1.00
H1459  H     0.59160   0.88719   0.59392   0.00000  Uiso   1.00
O1460  O     0.58718   0.85367   0.65129   0.00000  Uiso   1.00
C1461  C     0.40185   0.75501   0.94829   0.00000  Uiso   1.00
H1462  H     0.36999   0.75002   0.96056   0.00000  Uiso   1.00
O1463  O     0.41193   0.73641   0.91300   0.00000  Uiso   1.00
C1464  C     0.62261   0.80996   0.54921   0.00000  Uiso   1.00
H1465  H     0.65208   0.82518   0.53859   0.00000  Uiso   1.00
O1466  O     0.62312   0.78487   0.58159   0.00000  Uiso   1.00
C1467  C     0.40111   0.75364   0.54580   0.00000  Uiso   1.00
H1468  H     0.36812   0.75456   0.53566   0.00000  Uiso   1.00
O1469  O     0.41168   0.72846   0.57616   0.00000  Uiso   1.00
C1470  C     0.62295   0.80545   0.95268   0.00000  Uiso   1.00
H1471  H     0.65223   0.82229   0.96201   0.00000  Uiso   1.00
O1472  O     0.62373   0.77614   0.92350   0.00000  Uiso   1.00
C1473  C     0.37074   0.75256   0.79142   0.00000  Uiso   1.00
H1474  H     0.40254   0.75280   0.80537   0.00000  Uiso   1.00
O1475  O     0.34838   0.72026   0.79983   0.00000  Uiso   1.00
C1476  C     0.63326   0.91627   0.72135   0.00000  Uiso   1.00
H1477  H     0.60173   0.91878   0.70728   0.00000  Uiso   1.00
O1478  O     0.65740   0.94729   0.71354   0.00000  Uiso   1.00
C1479  C     0.63246   0.75068   0.72203   0.00000  Uiso   1.00
H1480  H     0.64465   0.71783   0.73030   0.00000  Uiso   1.00
O1481  O     0.60806   0.75309   0.68996   0.00000  Uiso   1.00
C1482  C     0.37053   0.91559   0.79069   0.00000  Uiso   1.00
H1483  H     0.35454   0.94760   0.78779   0.00000  Uiso   1.00
O1484  O     0.40031   0.91343   0.81708   0.00000  Uiso   1.00
C1485  C     0.54983   0.71588   0.81432   0.00000  Uiso   1.00
H1486  H     0.57110   0.74290   0.80627   0.00000  Uiso   1.00
O1487  O     0.54597   0.70553   0.85389   0.00000  Uiso   1.00
C1488  C     0.45006   0.95114   0.68549   0.00000  Uiso   1.00
H1489  H     0.43070   0.92244   0.69293   0.00000  Uiso   1.00
O1490  O     0.45185   0.96345   0.64632   0.00000  Uiso   1.00
C1491  C     0.43872   0.71404   0.69757   0.00000  Uiso   1.00
H1492  H     0.44478   0.74492   0.68040   0.00000  Uiso   1.00
O1493  O     0.40270   0.69906   0.69626   0.00000  Uiso   1.00
C1494  C     0.56084   0.95285   0.80325   0.00000  Uiso   1.00
H1495  H     0.55505   0.92110   0.81870   0.00000  Uiso   1.00
O1496  O     0.59634   0.96886   0.80705   0.00000  Uiso   1.00
C1497  C     0.75388   0.83336   0.75744   0.00000  Uiso   1.00
C1498  C     0.91371   0.83341   0.74589   0.00000  Uiso   1.00
C1499  C     0.76659   0.78132   0.52220   0.00000  Uiso   1.00
C1500  C     0.91609   0.81652   0.97626   0.00000  Uiso   1.00
C1501  C     0.68715   0.79252   0.76698   0.00000  Uiso   1.00
C1502  C     0.98151   0.87501   0.74536   0.00000  Uiso   1.00
C1503  C     0.98087   0.79222   0.74609   0.00000  Uiso   1.00
C1504  C     0.68770   0.87466   0.76636   0.00000  Uiso   1.00
C1505  C     0.95948   0.83363   0.74157   0.00000  Uiso   1.00
C1506  C     0.70925   0.83349   0.76850   0.00000  Uiso   1.00
C1507  C     0.85939   0.69114   0.77871   0.00000  Uiso   1.00
C1508  C     0.80725   0.97563   0.72127   0.00000  Uiso   1.00
C1509  C     0.80585   0.69029   0.72275   0.00000  Uiso   1.00
C1510  C     0.86072   0.97647   0.77741   0.00000  Uiso   1.00
C1511  C     0.83378   0.83300   0.66327   0.00000  Uiso   1.00
C1512  C     0.83311   0.83336   0.83661   0.00000  Uiso   1.00
C1513  C     0.87421   0.83136   0.90642   0.00000  Uiso   1.00
C1514  C     0.79829   0.81427   0.59224   0.00000  Uiso   1.00
C1515  C     0.83443   0.83169   0.88508   0.00000  Uiso   1.00
C1516  C     0.83459   0.83057   0.61457   0.00000  Uiso   1.00
C1517  C     0.79720   0.82007   0.90785   0.00000  Uiso   1.00
C1518  C     0.87327   0.83597   0.59195   0.00000  Uiso   1.00
C1519  C     0.80028   0.80470   0.95248   0.00000  Uiso   1.00
C1520  C     0.87642   0.82199   0.54660   0.00000  Uiso   1.00
C1521  C     0.83899   0.81064   0.97584   0.00000  Uiso   1.00
C1522  C     0.83893   0.81041   0.52303   0.00000  Uiso   1.00
C1523  C     0.87702   0.81978   0.95242   0.00000  Uiso   1.00
C1524  C     0.80066   0.80201   0.54624   0.00000  Uiso   1.00
C1525  C     0.76651   0.78253   0.97456   0.00000  Uiso   1.00
C1526  C     0.91583   0.81829   0.52386   0.00000  Uiso   1.00
N1527  N     0.83333   0.95240   0.75000   0.00000  Uiso   1.00
N1528  N     0.83333   0.71427   0.75000   0.00000  Uiso   1.00
O1529  O     0.77226   0.87154   0.74999   0.00000  Uiso   1.00
O1530  O     0.89441   0.79513   0.75000   0.00000  Uiso   1.00
O1531  O     0.89441   0.87154   0.75000   0.00000  Uiso   1.00
O1532  O     0.77226   0.79513   0.74999   0.00000  Uiso   1.00
O1533  O     0.83333   0.87156   0.68392   0.00000  Uiso   1.00
O1534  O     0.83334   0.79511   0.81607   0.00000  Uiso   1.00
O1535  O     0.83334   0.87156   0.81607   0.00000  Uiso   1.00
O1536  O     0.83333   0.79511   0.68392   0.00000  Uiso   1.00
Zn1537 Zn    0.83333   0.88437   0.75000   0.00000  Uiso   1.00
Zn1538 Zn    0.83333   0.78229   0.75000   0.00000  Uiso   1.00
C1539  C     0.91071   0.84737   0.88147   0.00000  Uiso   1.00
N1540  N     0.93971   0.86006   0.86153   0.00000  Uiso   1.00
C1541  C     0.75795   0.81665   0.61565   0.00000  Uiso   1.00
N1542  N     0.72597   0.81876   0.63445   0.00000  Uiso   1.00
C1543  C     0.75546   0.82961   0.88626   0.00000  Uiso   1.00
H1544  H     0.75150   0.82643   0.85013   0.00000  Uiso   1.00
O1545  O     0.72558   0.84298   0.90864   0.00000  Uiso   1.00
C1546  C     0.90833   0.86194   0.61325   0.00000  Uiso   1.00
H1547  H     0.92493   0.88719   0.59392   0.00000  Uiso   1.00
O1548  O     0.92051   0.85367   0.65129   0.00000  Uiso   1.00
C1549  C     0.73518   0.75501   0.94829   0.00000  Uiso   1.00
H1550  H     0.70333   0.75002   0.96056   0.00000  Uiso   1.00
O1551  O     0.74526   0.73641   0.91300   0.00000  Uiso   1.00
C1552  C     0.95595   0.80996   0.54921   0.00000  Uiso   1.00
H1553  H     0.98541   0.82518   0.53859   0.00000  Uiso   1.00
O1554  O     0.95645   0.78487   0.58159   0.00000  Uiso   1.00
C1555  C     0.73445   0.75364   0.54580   0.00000  Uiso   1.00
H1556  H     0.70145   0.75456   0.53566   0.00000  Uiso   1.00
O1557  O     0.74501   0.72846   0.57616   0.00000  Uiso   1.00
C1558  C     0.95628   0.80545   0.95268   0.00000  Uiso   1.00
H1559  H     0.98556   0.82229   0.96201   0.00000  Uiso   1.00
O1560  O     0.95706   0.77614   0.92350   0.00000  Uiso   1.00
C1561  C     0.70407   0.75256   0.79142   0.00000  Uiso   1.00
H1562  H     0.73588   0.75280   0.80537   0.00000  Uiso   1.00
O1563  O     0.68171   0.72026   0.79983   0.00000  Uiso   1.00
C1564  C     0.96659   0.91627   0.72135   0.00000  Uiso   1.00
H1565  H     0.93506   0.91878   0.70728   0.00000  Uiso   1.00
O1566  O     0.99073   0.94729   0.71354   0.00000  Uiso   1.00
C1567  C     0.96579   0.75068   0.72203   0.00000  Uiso   1.00
H1568  H     0.97798   0.71783   0.73030   0.00000  Uiso   1.00
O1569  O     0.94140   0.75309   0.68996   0.00000  Uiso   1.00
C1570  C     0.70386   0.91559   0.79069   0.00000  Uiso   1.00
H1571  H     0.68787   0.94760   0.78779   0.00000  Uiso   1.00
O1572  O     0.73364   0.91343   0.81708   0.00000  Uiso   1.00
C1573  C     0.88317   0.71588   0.81432   0.00000  Uiso   1.00
H1574  H     0.90443   0.74290   0.80627   0.00000  Uiso   1.00
O1575  O     0.87931   0.70553   0.85389   0.00000  Uiso   1.00
C1576  C     0.78339   0.95114   0.68549   0.00000  Uiso   1.00
H1577  H     0.76403   0.92244   0.69293   0.00000  Uiso   1.00
O1578  O     0.78518   0.96345   0.64632   0.00000  Uiso   1.00
C1579  C     0.77205   0.71404   0.69757   0.00000  Uiso   1.00
H1580  H     0.77812   0.74492   0.68040   0.00000  Uiso   1.00
O1581  O     0.73603   0.69906   0.69626   0.00000  Uiso   1.00
C1582  C     0.89418   0.95285   0.80325   0.00000  Uiso   1.00
H1583  H     0.88838   0.92110   0.81870   0.00000  Uiso   1.00
O1584  O     0.92967   0.96886   0.80705   0.00000  Uiso   1.00
loop_
_geom_bond_atom_site_label_1
_geom_bond_atom_site_label_2
_geom_bond_distance
_geom_bond_site_symmetry_2
_ccdc_geom_bond_type
C1     O33     1.296   .     A
C1     C10     1.449   .     S
C1     O36     1.296   .     A
C2     O35     1.294   .     A
C2     O34     1.298   .     A
C2     C9      1.452   .     S
C3     C28     1.422   .     A
C3     C59     1.488   .     S
C3     C821    1.411   1_554 S
C4     C62     1.488   .     S
C4     C27     1.422   .     A
C4     C822    1.410   .     S
C5     C65     1.496   .     S
C5     C10     1.404   .     A
C5     C183    1.392   1_455 S
C6     C9      1.416   .     A
C6     C68     1.500   .     S
C6     C96     1.391   .     S
C7     C71     1.496   .     S
C7     C9      1.414   .     A
C7     C93     1.392   .     S
C8     C74     1.496   .     S
C8     C10     1.404   .     A
C8     C182    1.391   1_455 S
C11    C77     1.480   .     S
C11    N32     1.371   .     A
C11    C542    1.429   1_545 S
C12    N31     1.373   .     A
C12    C80     1.481   .     S
C12    C277    1.429   .     S
C13    N32     1.375   .     A
C13    C83     1.483   .     S
C13    C540    1.429   1_545 S
C14    N31     1.377   .     A
C14    C86     1.483   .     S
C14    C275    1.429   .     S
C15    O37     1.295   .     A
C15    C20     1.443   .     S
C15    O40     1.289   .     A
C16    C19     1.437   .     S
C16    O39     1.295   .     A
C16    O38     1.285   .     A
C17    C27     1.411   .     A
C17    C43     1.455   .     S
C17    C19     1.403   .     A
C18    C28     1.408   .     A
C18    C45     1.456   .     S
C18    C20     1.403   .     A
C19    C21     1.403   .     A
C20    C22     1.407   .     A
C21    C23     1.405   .     A
C21    C47     1.491   .     S
C22    C50     1.483   .     S
C22    C24     1.406   .     A
C23    C29     1.420   .     A
C23    C25     1.411   .     A
C24    C26     1.411   .     A
C24    C30     1.423   .     A
C25    C27     1.418   .     A
C25    C818    1.397   .     S
C26    C28     1.417   .     A
C26    C817    1.397   1_554 S
C29    C53     1.493   .     S
C29    C795    1.411   .     S
C30    C56     1.491   .     S
C30    C796    1.410   1_554 S
N31    Zn41    2.024   .     S
N32    Zn42    2.024   .     S
O33    Zn41    1.966   .     S
O34    Zn42    1.966   .     S
O35    Zn41    1.967   .     S
O36    Zn42    1.967   .     S
O37    Zn41    1.989   .     S
O38    Zn42    1.989   .     S
O39    Zn41    1.997   .     S
O40    Zn42    1.997   .     S
C43    N44     1.158   .     T
C45    N46     1.158   .     T
C47    O49     1.221   .     D
C47    H48     1.079   .     S
C50    O52     1.215   .     D
C50    H51     1.085   .     S
C53    H54     1.082   .     S
C53    O55     1.222   .     D
C56    H57     1.084   .     S
C56    O58     1.221   .     D
C59    H60     1.083   .     S
C59    O61     1.221   .     D
C62    O64     1.222   .     D
C62    H63     1.084   .     S
C65    O67     1.220   .     D
C65    H66     1.084   .     S
C68    H69     1.080   .     S
C68    O70     1.221   .     D
C71    O73     1.222   .     D
C71    H72     1.081   .     S
C74    O76     1.221   .     D
C74    H75     1.083   .     S
C77    H78     1.076   .     S
C77    O79     1.221   .     D
C80    O82     1.221   .     D
C80    H81     1.075   .     S
C83    H84     1.073   .     S
C83    O85     1.221   .     D
C86    O88     1.221   .     D
C86    H87     1.070   .     S
C89    O121    1.296   .     A
C89    C98     1.449   .     S
C89    O124    1.296   .     A
C90    O123    1.294   .     A
C90    O122    1.298   .     A
C90    C97     1.452   .     S
C91    C116    1.422   .     A
C91    C147    1.488   .     S
C91    C909    1.411   1_554 S
C92    C150    1.488   .     S
C92    C115    1.422   .     A
C92    C910    1.410   .     S
C93    C153    1.496   .     S
C93    C98     1.404   .     A
C94    C97     1.416   .     A
C94    C156    1.500   .     S
C94    C184    1.391   .     S
C95    C159    1.496   .     S
C95    C97     1.414   .     A
C95    C181    1.392   .     S
C96    C162    1.496   .     S
C96    C98     1.404   .     A
C99    C165    1.480   .     S
C99    N120    1.371   .     A
C99    C630    1.429   1_545 S
C100   N119    1.373   .     A
C100   C168    1.481   .     S
C100   C365    1.429   .     S
C101   N120    1.375   .     A
C101   C171    1.483   .     S
C101   C628    1.429   1_545 S
C102   N119    1.377   .     A
C102   C174    1.483   .     S
C102   C363    1.429   .     S
C103   O125    1.295   .     A
C103   C108    1.443   .     S
C103   O128    1.289   .     A
C104   C107    1.437   .     S
C104   O127    1.295   .     A
C104   O126    1.285   .     A
C105   C115    1.411   .     A
C105   C131    1.455   .     S
C105   C107    1.403   .     A
C106   C116    1.408   .     A
C106   C133    1.456   .     S
C106   C108    1.403   .     A
C107   C109    1.403   .     A
C108   C110    1.407   .     A
C109   C111    1.405   .     A
C109   C135    1.491   .     S
C110   C138    1.483   .     S
C110   C112    1.406   .     A
C111   C117    1.420   .     A
C111   C113    1.411   .     A
C112   C114    1.411   .     A
C112   C118    1.423   .     A
C113   C115    1.418   .     A
C113   C906    1.397   .     S
C114   C116    1.417   .     A
C114   C905    1.397   1_554 S
C117   C141    1.493   .     S
C117   C883    1.411   .     S
C118   C144    1.491   .     S
C118   C884    1.410   1_554 S
N119   Zn129   2.024   .     S
N120   Zn130   2.024   .     S
O121   Zn129   1.966   .     S
O122   Zn130   1.966   .     S
O123   Zn129   1.967   .     S
O124   Zn130   1.967   .     S
O125   Zn129   1.989   .     S
O126   Zn130   1.989   .     S
O127   Zn129   1.997   .     S
O128   Zn130   1.997   .     S
C131   N132    1.158   .     T
C133   N134    1.158   .     T
C135   O137    1.221   .     D
C135   H136    1.079   .     S
C138   O140    1.215   .     D
C138   H139    1.085   .     S
C141   H142    1.082   .     S
C141   O143    1.222   .     D
C144   H145    1.084   .     S
C144   O146    1.221   .     D
C147   H148    1.083   .     S
C147   O149    1.221   .     D
C150   O152    1.222   .     D
C150   H151    1.084   .     S
C153   O155    1.220   .     D
C153   H154    1.084   .     S
C156   H157    1.080   .     S
C156   O158    1.221   .     D
C159   O161    1.222   .     D
C159   H160    1.081   .     S
C162   O164    1.221   .     D
C162   H163    1.083   .     S
C165   H166    1.076   .     S
C165   O167    1.221   .     D
C168   O170    1.221   .     D
C168   H169    1.075   .     S
C171   H172    1.073   .     S
C171   O173    1.221   .     D
C174   O176    1.221   .     D
C174   H175    1.070   .     S
C177   O209    1.296   .     A
C177   C186    1.449   .     S
C177   O212    1.296   .     A
C178   O211    1.294   .     A
C178   O210    1.298   .     A
C178   C185    1.452   .     S
C179   C204    1.422   .     A
C179   C235    1.488   .     S
C179   C997    1.411   1_554 S
C180   C238    1.488   .     S
C180   C203    1.422   .     A
C180   C998    1.410   .     S
C181   C241    1.496   .     S
C181   C186    1.404   .     A
C182   C185    1.416   .     A
C182   C244    1.500   .     S
C182   C8      1.391   1_655 S
C183   C247    1.496   .     S
C183   C185    1.414   .     A
C183   C5      1.392   1_655 S
C184   C250    1.496   .     S
C184   C186    1.404   .     A
C187   C253    1.480   .     S
C187   N208    1.371   .     A
C187   C718    1.429   1_545 S
C188   N207    1.373   .     A
C188   C256    1.481   .     S
C188   C453    1.429   .     S
C189   N208    1.375   .     A
C189   C259    1.483   .     S
C189   C716    1.429   1_545 S
C190   N207    1.377   .     A
C190   C262    1.483   .     S
C190   C451    1.429   .     S
C191   O213    1.295   .     A
C191   C196    1.443   .     S
C191   O216    1.289   .     A
C192   C195    1.437   .     S
C192   O215    1.295   .     A
C192   O214    1.285   .     A
C193   C203    1.411   .     A
C193   C219    1.455   .     S
C193   C195    1.403   .     A
C194   C204    1.408   .     A
C194   C221    1.456   .     S
C194   C196    1.403   .     A
C195   C197    1.403   .     A
C196   C198    1.407   .     A
C197   C199    1.405   .     A
C197   C223    1.491   .     S
C198   C226    1.483   .     S
C198   C200    1.406   .     A
C199   C205    1.420   .     A
C199   C201    1.411   .     A
C200   C202    1.411   .     A
C200   C206    1.423   .     A
C201   C203    1.418   .     A
C201   C994    1.397   .     S
C202   C204    1.417   .     A
C202   C993    1.397   1_554 S
C205   C229    1.493   .     S
C205   C971    1.411   .     S
C206   C232    1.491   .     S
C206   C972    1.410   1_554 S
N207   Zn217   2.024   .     S
N208   Zn218   2.024   .     S
O209   Zn217   1.966   .     S
O210   Zn218   1.966   .     S
O211   Zn217   1.967   .     S
O212   Zn218   1.967   .     S
O213   Zn217   1.989   .     S
O214   Zn218   1.989   .     S
O215   Zn217   1.997   .     S
O216   Zn218   1.997   .     S
C219   N220    1.158   .     T
C221   N222    1.158   .     T
C223   O225    1.221   .     D
C223   H224    1.079   .     S
C226   O228    1.215   .     D
C226   H227    1.085   .     S
C229   H230    1.082   .     S
C229   O231    1.222   .     D
C232   H233    1.084   .     S
C232   O234    1.221   .     D
C235   H236    1.083   .     S
C235   O237    1.221   .     D
C238   O240    1.222   .     D
C238   H239    1.084   .     S
C241   O243    1.220   .     D
C241   H242    1.084   .     S
C244   H245    1.080   .     S
C244   O246    1.221   .     D
C247   O249    1.222   .     D
C247   H248    1.081   .     S
C250   O252    1.221   .     D
C250   H251    1.083   .     S
C253   H254    1.076   .     S
C253   O255    1.221   .     D
C256   O258    1.221   .     D
C256   H257    1.075   .     S
C259   H260    1.073   .     S
C259   O261    1.221   .     D
C262   O264    1.221   .     D
C262   H263    1.070   .     S
C265   O297    1.296   .     A
C265   C274    1.449   .     S
C265   O300    1.296   .     A
C266   O299    1.294   .     A
C266   O298    1.298   .     A
C266   C273    1.452   .     S
C267   C292    1.422   .     A
C267   C323    1.488   .     S
C267   C1085   1.411   1_554 S
C268   C326    1.488   .     S
C268   C291    1.422   .     A
C268   C1086   1.410   .     S
C269   C329    1.496   .     S
C269   C274    1.404   .     A
C269   C447    1.392   1_455 S
C270   C273    1.416   .     A
C270   C332    1.500   .     S
C270   C360    1.391   .     S
C271   C335    1.496   .     S
C271   C273    1.414   .     A
C271   C357    1.392   .     S
C272   C338    1.496   .     S
C272   C274    1.404   .     A
C272   C446    1.391   1_455 S
C275   C341    1.480   .     S
C275   N296    1.371   .     A
C276   N295    1.373   .     A
C276   C344    1.481   .     S
C276   C541    1.429   .     S
C277   N296    1.375   .     A
C277   C347    1.483   .     S
C278   N295    1.377   .     A
C278   C350    1.483   .     S
C278   C539    1.429   .     S
C279   O301    1.295   .     A
C279   C284    1.443   .     S
C279   O304    1.289   .     A
C280   C283    1.437   .     S
C280   O303    1.295   .     A
C280   O302    1.285   .     A
C281   C291    1.411   .     A
C281   C307    1.455   .     S
C281   C283    1.403   .     A
C282   C292    1.408   .     A
C282   C309    1.456   .     S
C282   C284    1.403   .     A
C283   C285    1.403   .     A
C284   C286    1.407   .     A
C285   C287    1.405   .     A
C285   C311    1.491   .     S
C286   C314    1.483   .     S
C286   C288    1.406   .     A
C287   C293    1.420   .     A
C287   C289    1.411   .     A
C288   C290    1.411   .     A
C288   C294    1.423   .     A
C289   C291    1.418   .     A
C289   C1082   1.397   .     S
C290   C292    1.417   .     A
C290   C1081   1.397   1_554 S
C293   C317    1.493   .     S
C293   C1059   1.411   .     S
C294   C320    1.491   .     S
C294   C1060   1.410   1_554 S
N295   Zn305   2.024   .     S
N296   Zn306   2.024   .     S
O297   Zn305   1.966   .     S
O298   Zn306   1.966   .     S
O299   Zn305   1.967   .     S
O300   Zn306   1.967   .     S
O301   Zn305   1.989   .     S
O302   Zn306   1.989   .     S
O303   Zn305   1.997   .     S
O304   Zn306   1.997   .     S
C307   N308    1.158   .     T
C309   N310    1.158   .     T
C311   O313    1.221   .     D
C311   H312    1.079   .     S
C314   O316    1.215   .     D
C314   H315    1.085   .     S
C317   H318    1.082   .     S
C317   O319    1.222   .     D
C320   H321    1.084   .     S
C320   O322    1.221   .     D
C323   H324    1.083   .     S
C323   O325    1.221   .     D
C326   O328    1.222   .     D
C326   H327    1.084   .     S
C329   O331    1.220   .     D
C329   H330    1.084   .     S
C332   H333    1.080   .     S
C332   O334    1.221   .     D
C335   O337    1.222   .     D
C335   H336    1.081   .     S
C338   O340    1.221   .     D
C338   H339    1.083   .     S
C341   H342    1.076   .     S
C341   O343    1.221   .     D
C344   O346    1.221   .     D
C344   H345    1.075   .     S
C347   H348    1.073   .     S
C347   O349    1.221   .     D
C350   O352    1.221   .     D
C350   H351    1.070   .     S
C353   O385    1.296   .     A
C353   C362    1.449   .     S
C353   O388    1.296   .     A
C354   O387    1.294   .     A
C354   O386    1.298   .     A
C354   C361    1.452   .     S
C355   C380    1.422   .     A
C355   C411    1.488   .     S
C355   C1173   1.411   1_554 S
C356   C414    1.488   .     S
C356   C379    1.422   .     A
C356   C1174   1.410   .     S
C357   C417    1.496   .     S
C357   C362    1.404   .     A
C358   C361    1.416   .     A
C358   C420    1.500   .     S
C358   C448    1.391   .     S
C359   C423    1.496   .     S
C359   C361    1.414   .     A
C359   C445    1.392   .     S
C360   C426    1.496   .     S
C360   C362    1.404   .     A
C363   C429    1.480   .     S
C363   N384    1.371   .     A
C364   N383    1.373   .     A
C364   C432    1.481   .     S
C364   C629    1.429   .     S
C365   N384    1.375   .     A
C365   C435    1.483   .     S
C366   N383    1.377   .     A
C366   C438    1.483   .     S
C366   C627    1.429   .     S
C367   O389    1.295   .     A
C367   C372    1.443   .     S
C367   O392    1.289   .     A
C368   C371    1.437   .     S
C368   O391    1.295   .     A
C368   O390    1.285   .     A
C369   C379    1.411   .     A
C369   C395    1.455   .     S
C369   C371    1.403   .     A
C370   C380    1.408   .     A
C370   C397    1.456   .     S
C370   C372    1.403   .     A
C371   C373    1.403   .     A
C372   C374    1.407   .     A
C373   C375    1.405   .     A
C373   C399    1.491   .     S
C374   C402    1.483   .     S
C374   C376    1.406   .     A
C375   C381    1.420   .     A
C375   C377    1.411   .     A
C376   C378    1.411   .     A
C376   C382    1.423   .     A
C377   C379    1.418   .     A
C377   C1170   1.397   .     S
C378   C380    1.417   .     A
C378   C1169   1.397   1_554 S
C381   C405    1.493   .     S
C381   C1147   1.411   .     S
C382   C408    1.491   .     S
C382   C1148   1.410   1_554 S
N383   Zn393   2.024   .     S
N384   Zn394   2.024   .     S
O385   Zn393   1.966   .     S
O386   Zn394   1.966   .     S
O387   Zn393   1.967   .     S
O388   Zn394   1.967   .     S
O389   Zn393   1.989   .     S
O390   Zn394   1.989   .     S
O391   Zn393   1.997   .     S
O392   Zn394   1.997   .     S
C395   N396    1.158   .     T
C397   N398    1.158   .     T
C399   O401    1.221   .     D
C399   H400    1.079   .     S
C402   O404    1.215   .     D
C402   H403    1.085   .     S
C405   H406    1.082   .     S
C405   O407    1.222   .     D
C408   H409    1.084   .     S
C408   O410    1.221   .     D
C411   H412    1.083   .     S
C411   O413    1.221   .     D
C414   O416    1.222   .     D
C414   H415    1.084   .     S
C417   O419    1.220   .     D
C417   H418    1.084   .     S
C420   H421    1.080   .     S
C420   O422    1.221   .     D
C423   O425    1.222   .     D
C423   H424    1.081   .     S
C426   O428    1.221   .     D
C426   H427    1.083   .     S
C429   H430    1.076   .     S
C429   O431    1.221   .     D
C432   O434    1.221   .     D
C432   H433    1.075   .     S
C435   H436    1.073   .     S
C435   O437    1.221   .     D
C438   O440    1.221   .     D
C438   H439    1.070   .     S
C441   O473    1.296   .     A
C441   C450    1.449   .     S
C441   O476    1.296   .     A
C442   O475    1.294   .     A
C442   O474    1.298   .     A
C442   C449    1.452   .     S
C443   C468    1.422   .     A
C443   C499    1.488   .     S
C443   C1261   1.411   1_554 S
C444   C502    1.488   .     S
C444   C467    1.422   .     A
C444   C1262   1.410   .     S
C445   C505    1.496   .     S
C445   C450    1.404   .     A
C446   C449    1.416   .     A
C446   C508    1.500   .     S
C446   C272    1.391   1_655 S
C447   C511    1.496   .     S
C447   C449    1.414   .     A
C447   C269    1.392   1_655 S
C448   C514    1.496   .     S
C448   C450    1.404   .     A
C451   C517    1.480   .     S
C451   N472    1.371   .     A
C452   N471    1.373   .     A
C452   C520    1.481   .     S
C452   C717    1.429   .     S
C453   N472    1.375   .     A
C453   C523    1.483   .     S
C454   N471    1.377   .     A
C454   C526    1.483   .     S
C454   C715    1.429   .     S
C455   O477    1.295   .     A
C455   C460    1.443   .     S
C455   O480    1.289   .     A
C456   C459    1.437   .     S
C456   O479    1.295   .     A
C456   O478    1.285   .     A
C457   C467    1.411   .     A
C457   C483    1.455   .     S
C457   C459    1.403   .     A
C458   C468    1.408   .     A
C458   C485    1.456   .     S
C458   C460    1.403   .     A
C459   C461    1.403   .     A
C460   C462    1.407   .     A
C461   C463    1.405   .     A
C461   C487    1.491   .     S
C462   C490    1.483   .     S
C462   C464    1.406   .     A
C463   C469    1.420   .     A
C463   C465    1.411   .     A
C464   C466    1.411   .     A
C464   C470    1.423   .     A
C465   C467    1.418   .     A
C465   C1258   1.397   .     S
C466   C468    1.417   .     A
C466   C1257   1.397   1_554 S
C469   C493    1.493   .     S
C469   C1235   1.411   .     S
C470   C496    1.491   .     S
C470   C1236   1.410   1_554 S
N471   Zn481   2.024   .     S
N472   Zn482   2.024   .     S
O473   Zn481   1.966   .     S
O474   Zn482   1.966   .     S
O475   Zn481   1.967   .     S
O476   Zn482   1.967   .     S
O477   Zn481   1.989   .     S
O478   Zn482   1.989   .     S
O479   Zn481   1.997   .     S
O480   Zn482   1.997   .     S
C483   N484    1.158   .     T
C485   N486    1.158   .     T
C487   O489    1.221   .     D
C487   H488    1.079   .     S
C490   O492    1.215   .     D
C490   H491    1.085   .     S
C493   H494    1.082   .     S
C493   O495    1.222   .     D
C496   H497    1.084   .     S
C496   O498    1.221   .     D
C499   H500    1.083   .     S
C499   O501    1.221   .     D
C502   O504    1.222   .     D
C502   H503    1.084   .     S
C505   O507    1.220   .     D
C505   H506    1.084   .     S
C508   H509    1.080   .     S
C508   O510    1.221   .     D
C511   O513    1.222   .     D
C511   H512    1.081   .     S
C514   O516    1.221   .     D
C514   H515    1.083   .     S
C517   H518    1.076   .     S
C517   O519    1.221   .     D
C520   O522    1.221   .     D
C520   H521    1.075   .     S
C523   H524    1.073   .     S
C523   O525    1.221   .     D
C526   O528    1.221   .     D
C526   H527    1.070   .     S
C529   O561    1.296   .     A
C529   C538    1.449   .     S
C529   O564    1.296   .     A
C530   O563    1.294   .     A
C530   O562    1.298   .     A
C530   C537    1.452   .     S
C531   C556    1.422   .     A
C531   C587    1.488   .     S
C531   C1349   1.411   1_554 S
C532   C590    1.488   .     S
C532   C555    1.422   .     A
C532   C1350   1.410   .     S
C533   C593    1.496   .     S
C533   C538    1.404   .     A
C533   C711    1.392   1_455 S
C534   C537    1.416   .     A
C534   C596    1.500   .     S
C534   C624    1.391   .     S
C535   C599    1.496   .     S
C535   C537    1.414   .     A
C535   C621    1.392   .     S
C536   C602    1.496   .     S
C536   C538    1.404   .     A
C536   C710    1.391   1_455 S
C539   C605    1.480   .     S
C539   N560    1.371   .     A
C540   N559    1.373   .     A
C540   C608    1.481   .     S
C540   C13     1.429   1_565 S
C541   N560    1.375   .     A
C541   C611    1.483   .     S
C542   N559    1.377   .     A
C542   C614    1.483   .     S
C542   C11     1.429   1_565 S
C543   O565    1.295   .     A
C543   C548    1.443   .     S
C543   O568    1.289   .     A
C544   C547    1.437   .     S
C544   O567    1.295   .     A
C544   O566    1.285   .     A
C545   C555    1.411   .     A
C545   C571    1.455   .     S
C545   C547    1.403   .     A
C546   C556    1.408   .     A
C546   C573    1.456   .     S
C546   C548    1.403   .     A
C547   C549    1.403   .     A
C548   C550    1.407   .     A
C549   C551    1.405   .     A
C549   C575    1.491   .     S
C550   C578    1.483   .     S
C550   C552    1.406   .     A
C551   C557    1.420   .     A
C551   C553    1.411   .     A
C552   C554    1.411   .     A
C552   C558    1.423   .     A
C553   C555    1.418   .     A
C553   C1346   1.397   .     S
C554   C556    1.417   .     A
C554   C1345   1.397   1_554 S
C557   C581    1.493   .     S
C557   C1323   1.411   .     S
C558   C584    1.491   .     S
C558   C1324   1.410   1_554 S
N559   Zn569   2.024   .     S
N560   Zn570   2.024   .     S
O561   Zn569   1.966   .     S
O562   Zn570   1.966   .     S
O563   Zn569   1.967   .     S
O564   Zn570   1.967   .     S
O565   Zn569   1.989   .     S
O566   Zn570   1.989   .     S
O567   Zn569   1.997   .     S
O568   Zn570   1.997   .     S
C571   N572    1.158   .     T
C573   N574    1.158   .     T
C575   O577    1.221   .     D
C575   H576    1.079   .     S
C578   O580    1.215   .     D
C578   H579    1.085   .     S
C581   H582    1.082   .     S
C581   O583    1.222   .     D
C584   H585    1.084   .     S
C584   O586    1.221   .     D
C587   H588    1.083   .     S
C587   O589    1.221   .     D
C590   O592    1.222   .     D
C590   H591    1.084   .     S
C593   O595    1.220   .     D
C593   H594    1.084   .     S
C596   H597    1.080   .     S
C596   O598    1.221   .     D
C599   O601    1.222   .     D
C599   H600    1.081   .     S
C602   O604    1.221   .     D
C602   H603    1.083   .     S
C605   H606    1.076   .     S
C605   O607    1.221   .     D
C608   O610    1.221   .     D
C608   H609    1.075   .     S
C611   H612    1.073   .     S
C611   O613    1.221   .     D
C614   O616    1.221   .     D
C614   H615    1.070   .     S
C617   O649    1.296   .     A
C617   C626    1.449   .     S
C617   O652    1.296   .     A
C618   O651    1.294   .     A
C618   O650    1.298   .     A
C618   C625    1.452   .     S
C619   C644    1.422   .     A
C619   C675    1.488   .     S
C619   C1437   1.411   1_554 S
C620   C678    1.488   .     S
C620   C643    1.422   .     A
C620   C1438   1.410   .     S
C621   C681    1.496   .     S
C621   C626    1.404   .     A
C622   C625    1.416   .     A
C622   C684    1.500   .     S
C622   C712    1.391   .     S
C623   C687    1.496   .     S
C623   C625    1.414   .     A
C623   C709    1.392   .     S
C624   C690    1.496   .     S
C624   C626    1.404   .     A
C627   C693    1.480   .     S
C627   N648    1.371   .     A
C628   N647    1.373   .     A
C628   C696    1.481   .     S
C628   C101    1.429   1_565 S
C629   N648    1.375   .     A
C629   C699    1.483   .     S
C630   N647    1.377   .     A
C630   C702    1.483   .     S
C630   C99     1.429   1_565 S
C631   O653    1.295   .     A
C631   C636    1.443   .     S
C631   O656    1.289   .     A
C632   C635    1.437   .     S
C632   O655    1.295   .     A
C632   O654    1.285   .     A
C633   C643    1.411   .     A
C633   C659    1.455   .     S
C633   C635    1.403   .     A
C634   C644    1.408   .     A
C634   C661    1.456   .     S
C634   C636    1.403   .     A
C635   C637    1.403   .     A
C636   C638    1.407   .     A
C637   C639    1.405   .     A
C637   C663    1.491   .     S
C638   C666    1.483   .     S
C638   C640    1.406   .     A
C639   C645    1.420   .     A
C639   C641    1.411   .     A
C640   C642    1.411   .     A
C640   C646    1.423   .     A
C641   C643    1.418   .     A
C641   C1434   1.397   .     S
C642   C644    1.417   .     A
C642   C1433   1.397   1_554 S
C645   C669    1.493   .     S
C645   C1411   1.411   .     S
C646   C672    1.491   .     S
C646   C1412   1.410   1_554 S
N647   Zn657   2.024   .     S
N648   Zn658   2.024   .     S
O649   Zn657   1.966   .     S
O650   Zn658   1.966   .     S
O651   Zn657   1.967   .     S
O652   Zn658   1.967   .     S
O653   Zn657   1.989   .     S
O654   Zn658   1.989   .     S
O655   Zn657   1.997   .     S
O656   Zn658   1.997   .     S
C659   N660    1.158   .     T
C661   N662    1.158   .     T
C663   O665    1.221   .     D
C663   H664    1.079   .     S
C666   O668    1.215   .     D
C666   H667    1.085   .     S
C669   H670    1.082   .     S
C669   O671    1.222   .     D
C672   H673    1.084   .     S
C672   O674    1.221   .     D
C675   H676    1.083   .     S
C675   O677    1.221   .     D
C678   O680    1.222   .     D
C678   H679    1.084   .     S
C681   O683    1.220   .     D
C681   H682    1.084   .     S
C684   H685    1.080   .     S
C684   O686    1.221   .     D
C687   O689    1.222   .     D
C687   H688    1.081   .     S
C690   O692    1.221   .     D
C690   H691    1.083   .     S
C693   H694    1.076   .     S
C693   O695    1.221   .     D
C696   O698    1.221   .     D
C696   H697    1.075   .     S
C699   H700    1.073   .     S
C699   O701    1.221   .     D
C702   O704    1.221   .     D
C702   H703    1.070   .     S
C705   O737    1.296   .     A
C705   C714    1.449   .     S
C705   O740    1.296   .     A
C706   O739    1.294   .     A
C706   O738    1.298   .     A
C706   C713    1.452   .     S
C707   C732    1.422   .     A
C707   C763    1.488   .     S
C707   C1525   1.411   1_554 S
C708   C766    1.488   .     S
C708   C731    1.422   .     A
C708   C1526   1.410   .     S
C709   C769    1.496   .     S
C709   C714    1.404   .     A
C710   C713    1.416   .     A
C710   C772    1.500   .     S
C710   C536    1.391   1_655 S
C711   C775    1.496   .     S
C711   C713    1.414   .     A
C711   C533    1.392   1_655 S
C712   C778    1.496   .     S
C712   C714    1.404   .     A
C715   C781    1.480   .     S
C715   N736    1.371   .     A
C716   N735    1.373   .     A
C716   C784    1.481   .     S
C716   C189    1.429   1_565 S
C717   N736    1.375   .     A
C717   C787    1.483   .     S
C718   N735    1.377   .     A
C718   C790    1.483   .     S
C718   C187    1.429   1_565 S
C719   O741    1.295   .     A
C719   C724    1.443   .     S
C719   O744    1.289   .     A
C720   C723    1.437   .     S
C720   O743    1.295   .     A
C720   O742    1.285   .     A
C721   C731    1.411   .     A
C721   C747    1.455   .     S
C721   C723    1.403   .     A
C722   C732    1.408   .     A
C722   C749    1.456   .     S
C722   C724    1.403   .     A
C723   C725    1.403   .     A
C724   C726    1.407   .     A
C725   C727    1.405   .     A
C725   C751    1.491   .     S
C726   C754    1.483   .     S
C726   C728    1.406   .     A
C727   C733    1.420   .     A
C727   C729    1.411   .     A
C728   C730    1.411   .     A
C728   C734    1.423   .     A
C729   C731    1.418   .     A
C729   C1522   1.397   .     S
C730   C732    1.417   .     A
C730   C1521   1.397   1_554 S
C733   C757    1.493   .     S
C733   C1499   1.411   .     S
C734   C760    1.491   .     S
C734   C1500   1.410   1_554 S
N735   Zn745   2.024   .     S
N736   Zn746   2.024   .     S
O737   Zn745   1.966   .     S
O738   Zn746   1.966   .     S
O739   Zn745   1.967   .     S
O740   Zn746   1.967   .     S
O741   Zn745   1.989   .     S
O742   Zn746   1.989   .     S
O743   Zn745   1.997   .     S
O744   Zn746   1.997   .     S
C747   N748    1.158   .     T
C749   N750    1.158   .     T
C751   O753    1.221   .     D
C751   H752    1.079   .     S
C754   O756    1.215   .     D
C754   H755    1.085   .     S
C757   H758    1.082   .     S
C757   O759    1.222   .     D
C760   H761    1.084   .     S
C760   O762    1.221   .     D
C763   H764    1.083   .     S
C763   O765    1.221   .     D
C766   O768    1.222   .     D
C766   H767    1.084   .     S
C769   O771    1.220   .     D
C769   H770    1.084   .     S
C772   H773    1.080   .     S
C772   O774    1.221   .     D
C775   O777    1.222   .     D
C775   H776    1.081   .     S
C778   O780    1.221   .     D
C778   H779    1.083   .     S
C781   H782    1.076   .     S
C781   O783    1.221   .     D
C784   O786    1.221   .     D
C784   H785    1.075   .     S
C787   H788    1.073   .     S
C787   O789    1.221   .     D
C790   O792    1.221   .     D
C790   H791    1.070   .     S
C793   O825    1.296   .     A
C793   C802    1.449   .     S
C793   O828    1.296   .     A
C794   O827    1.294   .     A
C794   O826    1.298   .     A
C794   C801    1.452   .     S
C795   C820    1.422   .     A
C795   C851    1.488   .     S
C796   C854    1.488   .     S
C796   C819    1.422   .     A
C796   C30     1.410   1_556 S
C797   C857    1.496   .     S
C797   C802    1.404   .     A
C797   C975    1.392   1_455 S
C798   C801    1.416   .     A
C798   C860    1.500   .     S
C798   C888    1.391   .     S
C799   C863    1.496   .     S
C799   C801    1.414   .     A
C799   C885    1.392   .     S
C800   C866    1.496   .     S
C800   C802    1.404   .     A
C800   C974    1.391   1_455 S
C803   C869    1.480   .     S
C803   N824    1.371   .     A
C803   C1334   1.429   1_545 S
C804   N823    1.373   .     A
C804   C872    1.481   .     S
C804   C1069   1.429   .     S
C805   N824    1.375   .     A
C805   C875    1.483   .     S
C805   C1332   1.429   1_545 S
C806   N823    1.377   .     A
C806   C878    1.483   .     S
C806   C1067   1.429   .     S
C807   O829    1.295   .     A
C807   C812    1.443   .     S
C807   O832    1.289   .     A
C808   C811    1.437   .     S
C808   O831    1.295   .     A
C808   O830    1.285   .     A
C809   C819    1.411   .     A
C809   C835    1.455   .     S
C809   C811    1.403   .     A
C810   C820    1.408   .     A
C810   C837    1.456   .     S
C810   C812    1.403   .     A
C811   C813    1.403   .     A
C812   C814    1.407   .     A
C813   C815    1.405   .     A
C813   C839    1.491   .     S
C814   C842    1.483   .     S
C814   C816    1.406   .     A
C815   C821    1.420   .     A
C815   C817    1.411   .     A
C816   C818    1.411   .     A
C816   C822    1.423   .     A
C817   C819    1.418   .     A
C817   C26     1.397   1_556 S
C818   C820    1.417   .     A
C821   C845    1.493   .     S
C821   C3      1.411   1_556 S
C822   C848    1.491   .     S
N823   Zn833   2.024   .     S
N824   Zn834   2.024   .     S
O825   Zn833   1.966   .     S
O826   Zn834   1.966   .     S
O827   Zn833   1.967   .     S
O828   Zn834   1.967   .     S
O829   Zn833   1.989   .     S
O830   Zn834   1.989   .     S
O831   Zn833   1.997   .     S
O832   Zn834   1.997   .     S
C835   N836    1.158   .     T
C837   N838    1.158   .     T
C839   O841    1.221   .     D
C839   H840    1.079   .     S
C842   O844    1.215   .     D
C842   H843    1.085   .     S
C845   H846    1.082   .     S
C845   O847    1.222   .     D
C848   H849    1.084   .     S
C848   O850    1.221   .     D
C851   H852    1.083   .     S
C851   O853    1.221   .     D
C854   O856    1.222   .     D
C854   H855    1.084   .     S
C857   O859    1.220   .     D
C857   H858    1.084   .     S
C860   H861    1.080   .     S
C860   O862    1.221   .     D
C863   O865    1.222   .     D
C863   H864    1.081   .     S
C866   O868    1.221   .     D
C866   H867    1.083   .     S
C869   H870    1.076   .     S
C869   O871    1.221   .     D
C872   O874    1.221   .     D
C872   H873    1.075   .     S
C875   H876    1.073   .     S
C875   O877    1.221   .     D
C878   O880    1.221   .     D
C878   H879    1.070   .     S
C881   O913    1.296   .     A
C881   C890    1.449   .     S
C881   O916    1.296   .     A
C882   O915    1.294   .     A
C882   O914    1.298   .     A
C882   C889    1.452   .     S
C883   C908    1.422   .     A
C883   C939    1.488   .     S
C884   C942    1.488   .     S
C884   C907    1.422   .     A
C884   C118    1.410   1_556 S
C885   C945    1.496   .     S
C885   C890    1.404   .     A
C886   C889    1.416   .     A
C886   C948    1.500   .     S
C886   C976    1.391   .     S
C887   C951    1.496   .     S
C887   C889    1.414   .     A
C887   C973    1.392   .     S
C888   C954    1.496   .     S
C888   C890    1.404   .     A
C891   C957    1.480   .     S
C891   N912    1.371   .     A
C891   C1422   1.429   1_545 S
C892   N911    1.373   .     A
C892   C960    1.481   .     S
C892   C1157   1.429   .     S
C893   N912    1.375   .     A
C893   C963    1.483   .     S
C893   C1420   1.429   1_545 S
C894   N911    1.377   .     A
C894   C966    1.483   .     S
C894   C1155   1.429   .     S
C895   O917    1.295   .     A
C895   C900    1.443   .     S
C895   O920    1.289   .     A
C896   C899    1.437   .     S
C896   O919    1.295   .     A
C896   O918    1.285   .     A
C897   C907    1.411   .     A
C897   C923    1.455   .     S
C897   C899    1.403   .     A
C898   C908    1.408   .     A
C898   C925    1.456   .     S
C898   C900    1.403   .     A
C899   C901    1.403   .     A
C900   C902    1.407   .     A
C901   C903    1.405   .     A
C901   C927    1.491   .     S
C902   C930    1.483   .     S
C902   C904    1.406   .     A
C903   C909    1.420   .     A
C903   C905    1.411   .     A
C904   C906    1.411   .     A
C904   C910    1.423   .     A
C905   C907    1.418   .     A
C905   C114    1.397   1_556 S
C906   C908    1.417   .     A
C909   C933    1.493   .     S
C909   C91     1.411   1_556 S
C910   C936    1.491   .     S
N911   Zn921   2.024   .     S
N912   Zn922   2.024   .     S
O913   Zn921   1.966   .     S
O914   Zn922   1.966   .     S
O915   Zn921   1.967   .     S
O916   Zn922   1.967   .     S
O917   Zn921   1.989   .     S
O918   Zn922   1.989   .     S
O919   Zn921   1.997   .     S
O920   Zn922   1.997   .     S
C923   N924    1.158   .     T
C925   N926    1.158   .     T
C927   O929    1.221   .     D
C927   H928    1.079   .     S
C930   O932    1.215   .     D
C930   H931    1.085   .     S
C933   H934    1.082   .     S
C933   O935    1.222   .     D
C936   H937    1.084   .     S
C936   O938    1.221   .     D
C939   H940    1.083   .     S
C939   O941    1.221   .     D
C942   O944    1.222   .     D
C942   H943    1.084   .     S
C945   O947    1.220   .     D
C945   H946    1.084   .     S
C948   H949    1.080   .     S
C948   O950    1.221   .     D
C951   O953    1.222   .     D
C951   H952    1.081   .     S
C954   O956    1.221   .     D
C954   H955    1.083   .     S
C957   H958    1.076   .     S
C957   O959    1.221   .     D
C960   O962    1.221   .     D
C960   H961    1.075   .     S
C963   H964    1.073   .     S
C963   O965    1.221   .     D
C966   O968    1.221   .     D
C966   H967    1.070   .     S
C969   O1001   1.296   .     A
C969   C978    1.449   .     S
C969   O1004   1.296   .     A
C970   O1003   1.294   .     A
C970   O1002   1.298   .     A
C970   C977    1.452   .     S
C971   C996    1.422   .     A
C971   C1027   1.488   .     S
C972   C1030   1.488   .     S
C972   C995    1.422   .     A
C972   C206    1.410   1_556 S
C973   C1033   1.496   .     S
C973   C978    1.404   .     A
C974   C977    1.416   .     A
C974   C1036   1.500   .     S
C974   C800    1.391   1_655 S
C975   C1039   1.496   .     S
C975   C977    1.414   .     A
C975   C797    1.392   1_655 S
C976   C1042   1.496   .     S
C976   C978    1.404   .     A
C979   C1045   1.480   .     S
C979   N1000   1.371   .     A
C979   C1510   1.429   1_545 S
C980   N999    1.373   .     A
C980   C1048   1.481   .     S
C980   C1245   1.429   .     S
C981   N1000   1.375   .     A
C981   C1051   1.483   .     S
C981   C1508   1.429   1_545 S
C982   N999    1.377   .     A
C982   C1054   1.483   .     S
C982   C1243   1.429   .     S
C983   O1005   1.295   .     A
C983   C988    1.443   .     S
C983   O1008   1.289   .     A
C984   C987    1.437   .     S
C984   O1007   1.295   .     A
C984   O1006   1.285   .     A
C985   C995    1.411   .     A
C985   C1011   1.455   .     S
C985   C987    1.403   .     A
C986   C996    1.408   .     A
C986   C1013   1.456   .     S
C986   C988    1.403   .     A
C987   C989    1.403   .     A
C988   C990    1.407   .     A
C989   C991    1.405   .     A
C989   C1015   1.491   .     S
C990   C1018   1.483   .     S
C990   C992    1.406   .     A
C991   C997    1.420   .     A
C991   C993    1.411   .     A
C992   C994    1.411   .     A
C992   C998    1.423   .     A
C993   C995    1.418   .     A
C993   C202    1.397   1_556 S
C994   C996    1.417   .     A
C997   C1021   1.493   .     S
C997   C179    1.411   1_556 S
C998   C1024   1.491   .     S
N999   Zn1009  2.024   .     S
N1000  Zn1010  2.024   .     S
O1001  Zn1009  1.966   .     S
O1002  Zn1010  1.966   .     S
O1003  Zn1009  1.967   .     S
O1004  Zn1010  1.967   .     S
O1005  Zn1009  1.989   .     S
O1006  Zn1010  1.989   .     S
O1007  Zn1009  1.997   .     S
O1008  Zn1010  1.997   .     S
C1011  N1012   1.158   .     T
C1013  N1014   1.158   .     T
C1015  O1017   1.221   .     D
C1015  H1016   1.079   .     S
C1018  O1020   1.215   .     D
C1018  H1019   1.085   .     S
C1021  H1022   1.082   .     S
C1021  O1023   1.222   .     D
C1024  H1025   1.084   .     S
C1024  O1026   1.221   .     D
C1027  H1028   1.083   .     S
C1027  O1029   1.221   .     D
C1030  O1032   1.222   .     D
C1030  H1031   1.084   .     S
C1033  O1035   1.220   .     D
C1033  H1034   1.084   .     S
C1036  H1037   1.080   .     S
C1036  O1038   1.221   .     D
C1039  O1041   1.222   .     D
C1039  H1040   1.081   .     S
C1042  O1044   1.221   .     D
C1042  H1043   1.083   .     S
C1045  H1046   1.076   .     S
C1045  O1047   1.221   .     D
C1048  O1050   1.221   .     D
C1048  H1049   1.075   .     S
C1051  H1052   1.073   .     S
C1051  O1053   1.221   .     D
C1054  O1056   1.221   .     D
C1054  H1055   1.070   .     S
C1057  O1089   1.296   .     A
C1057  C1066   1.449   .     S
C1057  O1092   1.296   .     A
C1058  O1091   1.294   .     A
C1058  O1090   1.298   .     A
C1058  C1065   1.452   .     S
C1059  C1084   1.422   .     A
C1059  C1115   1.488   .     S
C1060  C1118   1.488   .     S
C1060  C1083   1.422   .     A
C1060  C294    1.410   1_556 S
C1061  C1121   1.496   .     S
C1061  C1066   1.404   .     A
C1061  C1239   1.392   1_455 S
C1062  C1065   1.416   .     A
C1062  C1124   1.500   .     S
C1062  C1152   1.391   .     S
C1063  C1127   1.496   .     S
C1063  C1065   1.414   .     A
C1063  C1149   1.392   .     S
C1064  C1130   1.496   .     S
C1064  C1066   1.404   .     A
C1064  C1238   1.391   1_455 S
C1067  C1133   1.480   .     S
C1067  N1088   1.371   .     A
C1068  N1087   1.373   .     A
C1068  C1136   1.481   .     S
C1068  C1333   1.429   .     S
C1069  N1088   1.375   .     A
C1069  C1139   1.483   .     S
C1070  N1087   1.377   .     A
C1070  C1142   1.483   .     S
C1070  C1331   1.429   .     S
C1071  O1093   1.295   .     A
C1071  C1076   1.443   .     S
C1071  O1096   1.289   .     A
C1072  C1075   1.437   .     S
C1072  O1095   1.295   .     A
C1072  O1094   1.285   .     A
C1073  C1083   1.411   .     A
C1073  C1099   1.455   .     S
C1073  C1075   1.403   .     A
C1074  C1084   1.408   .     A
C1074  C1101   1.456   .     S
C1074  C1076   1.403   .     A
C1075  C1077   1.403   .     A
C1076  C1078   1.407   .     A
C1077  C1079   1.405   .     A
C1077  C1103   1.491   .     S
C1078  C1106   1.483   .     S
C1078  C1080   1.406   .     A
C1079  C1085   1.420   .     A
C1079  C1081   1.411   .     A
C1080  C1082   1.411   .     A
C1080  C1086   1.423   .     A
C1081  C1083   1.418   .     A
C1081  C290    1.397   1_556 S
C1082  C1084   1.417   .     A
C1085  C1109   1.493   .     S
C1085  C267    1.411   1_556 S
C1086  C1112   1.491   .     S
N1087  Zn1097  2.024   .     S
N1088  Zn1098  2.024   .     S
O1089  Zn1097  1.966   .     S
O1090  Zn1098  1.966   .     S
O1091  Zn1097  1.967   .     S
O1092  Zn1098  1.967   .     S
O1093  Zn1097  1.989   .     S
O1094  Zn1098  1.989   .     S
O1095  Zn1097  1.997   .     S
O1096  Zn1098  1.997   .     S
C1099  N1100   1.158   .     T
C1101  N1102   1.158   .     T
C1103  O1105   1.221   .     D
C1103  H1104   1.079   .     S
C1106  O1108   1.215   .     D
C1106  H1107   1.085   .     S
C1109  H1110   1.082   .     S
C1109  O1111   1.222   .     D
C1112  H1113   1.084   .     S
C1112  O1114   1.221   .     D
C1115  H1116   1.083   .     S
C1115  O1117   1.221   .     D
C1118  O1120   1.222   .     D
C1118  H1119   1.084   .     S
C1121  O1123   1.220   .     D
C1121  H1122   1.084   .     S
C1124  H1125   1.080   .     S
C1124  O1126   1.221   .     D
C1127  O1129   1.222   .     D
C1127  H1128   1.081   .     S
C1130  O1132   1.221   .     D
C1130  H1131   1.083   .     S
C1133  H1134   1.076   .     S
C1133  O1135   1.221   .     D
C1136  O1138   1.221   .     D
C1136  H1137   1.075   .     S
C1139  H1140   1.073   .     S
C1139  O1141   1.221   .     D
C1142  O1144   1.221   .     D
C1142  H1143   1.070   .     S
C1145  O1177   1.296   .     A
C1145  C1154   1.449   .     S
C1145  O1180   1.296   .     A
C1146  O1179   1.294   .     A
C1146  O1178   1.298   .     A
C1146  C1153   1.452   .     S
C1147  C1172   1.422   .     A
C1147  C1203   1.488   .     S
C1148  C1206   1.488   .     S
C1148  C1171   1.422   .     A
C1148  C382    1.410   1_556 S
C1149  C1209   1.496   .     S
C1149  C1154   1.404   .     A
C1150  C1153   1.416   .     A
C1150  C1212   1.500   .     S
C1150  C1240   1.391   .     S
C1151  C1215   1.496   .     S
C1151  C1153   1.414   .     A
C1151  C1237   1.392   .     S
C1152  C1218   1.496   .     S
C1152  C1154   1.404   .     A
C1155  C1221   1.480   .     S
C1155  N1176   1.371   .     A
C1156  N1175   1.373   .     A
C1156  C1224   1.481   .     S
C1156  C1421   1.429   .     S
C1157  N1176   1.375   .     A
C1157  C1227   1.483   .     S
C1158  N1175   1.377   .     A
C1158  C1230   1.483   .     S
C1158  C1419   1.429   .     S
C1159  O1181   1.295   .     A
C1159  C1164   1.443   .     S
C1159  O1184   1.289   .     A
C1160  C1163   1.437   .     S
C1160  O1183   1.295   .     A
C1160  O1182   1.285   .     A
C1161  C1171   1.411   .     A
C1161  C1187   1.455   .     S
C1161  C1163   1.403   .     A
C1162  C1172   1.408   .     A
C1162  C1189   1.456   .     S
C1162  C1164   1.403   .     A
C1163  C1165   1.403   .     A
C1164  C1166   1.407   .     A
C1165  C1167   1.405   .     A
C1165  C1191   1.491   .     S
C1166  C1194   1.483   .     S
C1166  C1168   1.406   .     A
C1167  C1173   1.420   .     A
C1167  C1169   1.411   .     A
C1168  C1170   1.411   .     A
C1168  C1174   1.423   .     A
C1169  C1171   1.418   .     A
C1169  C378    1.397   1_556 S
C1170  C1172   1.417   .     A
C1173  C1197   1.493   .     S
C1173  C355    1.411   1_556 S
C1174  C1200   1.491   .     S
N1175  Zn1185  2.024   .     S
N1176  Zn1186  2.024   .     S
O1177  Zn1185  1.966   .     S
O1178  Zn1186  1.966   .     S
O1179  Zn1185  1.967   .     S
O1180  Zn1186  1.967   .     S
O1181  Zn1185  1.989   .     S
O1182  Zn1186  1.989   .     S
O1183  Zn1185  1.997   .     S
O1184  Zn1186  1.997   .     S
C1187  N1188   1.158   .     T
C1189  N1190   1.158   .     T
C1191  O1193   1.221   .     D
C1191  H1192   1.079   .     S
C1194  O1196   1.215   .     D
C1194  H1195   1.085   .     S
C1197  H1198   1.082   .     S
C1197  O1199   1.222   .     D
C1200  H1201   1.084   .     S
C1200  O1202   1.221   .     D
C1203  H1204   1.083   .     S
C1203  O1205   1.221   .     D
C1206  O1208   1.222   .     D
C1206  H1207   1.084   .     S
C1209  O1211   1.220   .     D
C1209  H1210   1.084   .     S
C1212  H1213   1.080   .     S
C1212  O1214   1.221   .     D
C1215  O1217   1.222   .     D
C1215  H1216   1.081   .     S
C1218  O1220   1.221   .     D
C1218  H1219   1.083   .     S
C1221  H1222   1.076   .     S
C1221  O1223   1.221   .     D
C1224  O1226   1.221   .     D
C1224  H1225   1.075   .     S
C1227  H1228   1.073   .     S
C1227  O1229   1.221   .     D
C1230  O1232   1.221   .     D
C1230  H1231   1.070   .     S
C1233  O1265   1.296   .     A
C1233  C1242   1.449   .     S
C1233  O1268   1.296   .     A
C1234  O1267   1.294   .     A
C1234  O1266   1.298   .     A
C1234  C1241   1.452   .     S
C1235  C1260   1.422   .     A
C1235  C1291   1.488   .     S
C1236  C1294   1.488   .     S
C1236  C1259   1.422   .     A
C1236  C470    1.410   1_556 S
C1237  C1297   1.496   .     S
C1237  C1242   1.404   .     A
C1238  C1241   1.416   .     A
C1238  C1300   1.500   .     S
C1238  C1064   1.391   1_655 S
C1239  C1303   1.496   .     S
C1239  C1241   1.414   .     A
C1239  C1061   1.392   1_655 S
C1240  C1306   1.496   .     S
C1240  C1242   1.404   .     A
C1243  C1309   1.480   .     S
C1243  N1264   1.371   .     A
C1244  N1263   1.373   .     A
C1244  C1312   1.481   .     S
C1244  C1509   1.429   .     S
C1245  N1264   1.375   .     A
C1245  C1315   1.483   .     S
C1246  N1263   1.377   .     A
C1246  C1318   1.483   .     S
C1246  C1507   1.429   .     S
C1247  O1269   1.295   .     A
C1247  C1252   1.443   .     S
C1247  O1272   1.289   .     A
C1248  C1251   1.437   .     S
C1248  O1271   1.295   .     A
C1248  O1270   1.285   .     A
C1249  C1259   1.411   .     A
C1249  C1275   1.455   .     S
C1249  C1251   1.403   .     A
C1250  C1260   1.408   .     A
C1250  C1277   1.456   .     S
C1250  C1252   1.403   .     A
C1251  C1253   1.403   .     A
C1252  C1254   1.407   .     A
C1253  C1255   1.405   .     A
C1253  C1279   1.491   .     S
C1254  C1282   1.483   .     S
C1254  C1256   1.406   .     A
C1255  C1261   1.420   .     A
C1255  C1257   1.411   .     A
C1256  C1258   1.411   .     A
C1256  C1262   1.423   .     A
C1257  C1259   1.418   .     A
C1257  C466    1.397   1_556 S
C1258  C1260   1.417   .     A
C1261  C1285   1.493   .     S
C1261  C443    1.411   1_556 S
C1262  C1288   1.491   .     S
N1263  Zn1273  2.024   .     S
N1264  Zn1274  2.024   .     S
O1265  Zn1273  1.966   .     S
O1266  Zn1274  1.966   .     S
O1267  Zn1273  1.967   .     S
O1268  Zn1274  1.967   .     S
O1269  Zn1273  1.989   .     S
O1270  Zn1274  1.989   .     S
O1271  Zn1273  1.997   .     S
O1272  Zn1274  1.997   .     S
C1275  N1276   1.158   .     T
C1277  N1278   1.158   .     T
C1279  O1281   1.221   .     D
C1279  H1280   1.079   .     S
C1282  O1284   1.215   .     D
C1282  H1283   1.085   .     S
C1285  H1286   1.082   .     S
C1285  O1287   1.222   .     D
C1288  H1289   1.084   .     S
C1288  O1290   1.221   .     D
C1291  H1292   1.083   .     S
C1291  O1293   1.221   .     D
C1294  O1296   1.222   .     D
C1294  H1295   1.084   .     S
C1297  O1299   1.220   .     D
C1297  H1298   1.084   .     S
C1300  H1301   1.080   .     S
C1300  O1302   1.221   .     D
C1303  O1305   1.222   .     D
C1303  H1304   1.081   .     S
C1306  O1308   1.221   .     D
C1306  H1307   1.083   .     S
C1309  H1310   1.076   .     S
C1309  O1311   1.221   .     D
C1312  O1314   1.221   .     D
C1312  H1313   1.075   .     S
C1315  H1316   1.073   .     S
C1315  O1317   1.221   .     D
C1318  O1320   1.221   .     D
C1318  H1319   1.070   .     S
C1321  O1353   1.296   .     A
C1321  C1330   1.449   .     S
C1321  O1356   1.296   .     A
C1322  O1355   1.294   .     A
C1322  O1354   1.298   .     A
C1322  C1329   1.452   .     S
C1323  C1348   1.422   .     A
C1323  C1379   1.488   .     S
C1324  C1382   1.488   .     S
C1324  C1347   1.422   .     A
C1324  C558    1.410   1_556 S
C1325  C1385   1.496   .     S
C1325  C1330   1.404   .     A
C1325  C1503   1.392   1_455 S
C1326  C1329   1.416   .     A
C1326  C1388   1.500   .     S
C1326  C1416   1.391   .     S
C1327  C1391   1.496   .     S
C1327  C1329   1.414   .     A
C1327  C1413   1.392   .     S
C1328  C1394   1.496   .     S
C1328  C1330   1.404   .     A
C1328  C1502   1.391   1_455 S
C1331  C1397   1.480   .     S
C1331  N1352   1.371   .     A
C1332  N1351   1.373   .     A
C1332  C1400   1.481   .     S
C1332  C805    1.429   1_565 S
C1333  N1352   1.375   .     A
C1333  C1403   1.483   .     S
C1334  N1351   1.377   .     A
C1334  C1406   1.483   .     S
C1334  C803    1.429   1_565 S
C1335  O1357   1.295   .     A
C1335  C1340   1.443   .     S
C1335  O1360   1.289   .     A
C1336  C1339   1.437   .     S
C1336  O1359   1.295   .     A
C1336  O1358   1.285   .     A
C1337  C1347   1.411   .     A
C1337  C1363   1.455   .     S
C1337  C1339   1.403   .     A
C1338  C1348   1.408   .     A
C1338  C1365   1.456   .     S
C1338  C1340   1.403   .     A
C1339  C1341   1.403   .     A
C1340  C1342   1.407   .     A
C1341  C1343   1.405   .     A
C1341  C1367   1.491   .     S
C1342  C1370   1.483   .     S
C1342  C1344   1.406   .     A
C1343  C1349   1.420   .     A
C1343  C1345   1.411   .     A
C1344  C1346   1.411   .     A
C1344  C1350   1.423   .     A
C1345  C1347   1.418   .     A
C1345  C554    1.397   1_556 S
C1346  C1348   1.417   .     A
C1349  C1373   1.493   .     S
C1349  C531    1.411   1_556 S
C1350  C1376   1.491   .     S
N1351  Zn1361  2.024   .     S
N1352  Zn1362  2.024   .     S
O1353  Zn1361  1.966   .     S
O1354  Zn1362  1.966   .     S
O1355  Zn1361  1.967   .     S
O1356  Zn1362  1.967   .     S
O1357  Zn1361  1.989   .     S
O1358  Zn1362  1.989   .     S
O1359  Zn1361  1.997   .     S
O1360  Zn1362  1.997   .     S
C1363  N1364   1.158   .     T
C1365  N1366   1.158   .     T
C1367  O1369   1.221   .     D
C1367  H1368   1.079   .     S
C1370  O1372   1.215   .     D
C1370  H1371   1.085   .     S
C1373  H1374   1.082   .     S
C1373  O1375   1.222   .     D
C1376  H1377   1.084   .     S
C1376  O1378   1.221   .     D
C1379  H1380   1.083   .     S
C1379  O1381   1.221   .     D
C1382  O1384   1.222   .     D
C1382  H1383   1.084   .     S
C1385  O1387   1.220   .     D
C1385  H1386   1.084   .     S
C1388  H1389   1.080   .     S
C1388  O1390   1.221   .     D
C1391  O1393   1.222   .     D
C1391  H1392   1.081   .     S
C1394  O1396   1.221   .     D
C1394  H1395   1.083   .     S
C1397  H1398   1.076   .     S
C1397  O1399   1.221   .     D
C1400  O1402   1.221   .     D
C1400  H1401   1.075   .     S
C1403  H1404   1.073   .     S
C1403  O1405   1.221   .     D
C1406  O1408   1.221   .     D
C1406  H1407   1.070   .     S
C1409  O1441   1.296   .     A
C1409  C1418   1.449   .     S
C1409  O1444   1.296   .     A
C1410  O1443   1.294   .     A
C1410  O1442   1.298   .     A
C1410  C1417   1.452   .     S
C1411  C1436   1.422   .     A
C1411  C1467   1.488   .     S
C1412  C1470   1.488   .     S
C1412  C1435   1.422   .     A
C1412  C646    1.410   1_556 S
C1413  C1473   1.496   .     S
C1413  C1418   1.404   .     A
C1414  C1417   1.416   .     A
C1414  C1476   1.500   .     S
C1414  C1504   1.391   .     S
C1415  C1479   1.496   .     S
C1415  C1417   1.414   .     A
C1415  C1501   1.392   .     S
C1416  C1482   1.496   .     S
C1416  C1418   1.404   .     A
C1419  C1485   1.480   .     S
C1419  N1440   1.371   .     A
C1420  N1439   1.373   .     A
C1420  C1488   1.481   .     S
C1420  C893    1.429   1_565 S
C1421  N1440   1.375   .     A
C1421  C1491   1.483   .     S
C1422  N1439   1.377   .     A
C1422  C1494   1.483   .     S
C1422  C891    1.429   1_565 S
C1423  O1445   1.295   .     A
C1423  C1428   1.443   .     S
C1423  O1448   1.289   .     A
C1424  C1427   1.437   .     S
C1424  O1447   1.295   .     A
C1424  O1446   1.285   .     A
C1425  C1435   1.411   .     A
C1425  C1451   1.455   .     S
C1425  C1427   1.403   .     A
C1426  C1436   1.408   .     A
C1426  C1453   1.456   .     S
C1426  C1428   1.403   .     A
C1427  C1429   1.403   .     A
C1428  C1430   1.407   .     A
C1429  C1431   1.405   .     A
C1429  C1455   1.491   .     S
C1430  C1458   1.483   .     S
C1430  C1432   1.406   .     A
C1431  C1437   1.420   .     A
C1431  C1433   1.411   .     A
C1432  C1434   1.411   .     A
C1432  C1438   1.423   .     A
C1433  C1435   1.418   .     A
C1433  C642    1.397   1_556 S
C1434  C1436   1.417   .     A
C1437  C1461   1.493   .     S
C1437  C619    1.411   1_556 S
C1438  C1464   1.491   .     S
N1439  Zn1449  2.024   .     S
N1440  Zn1450  2.024   .     S
O1441  Zn1449  1.966   .     S
O1442  Zn1450  1.966   .     S
O1443  Zn1449  1.967   .     S
O1444  Zn1450  1.967   .     S
O1445  Zn1449  1.989   .     S
O1446  Zn1450  1.989   .     S
O1447  Zn1449  1.997   .     S
O1448  Zn1450  1.997   .     S
C1451  N1452   1.158   .     T
C1453  N1454   1.158   .     T
C1455  O1457   1.221   .     D
C1455  H1456   1.079   .     S
C1458  O1460   1.215   .     D
C1458  H1459   1.085   .     S
C1461  H1462   1.082   .     S
C1461  O1463   1.222   .     D
C1464  H1465   1.084   .     S
C1464  O1466   1.221   .     D
C1467  H1468   1.083   .     S
C1467  O1469   1.221   .     D
C1470  O1472   1.222   .     D
C1470  H1471   1.084   .     S
C1473  O1475   1.220   .     D
C1473  H1474   1.084   .     S
C1476  H1477   1.080   .     S
C1476  O1478   1.221   .     D
C1479  O1481   1.222   .     D
C1479  H1480   1.081   .     S
C1482  O1484   1.221   .     D
C1482  H1483   1.083   .     S
C1485  H1486   1.076   .     S
C1485  O1487   1.221   .     D
C1488  O1490   1.221   .     D
C1488  H1489   1.075   .     S
C1491  H1492   1.073   .     S
C1491  O1493   1.221   .     D
C1494  O1496   1.221   .     D
C1494  H1495   1.070   .     S
C1497  O1529   1.296   .     A
C1497  C1506   1.449   .     S
C1497  O1532   1.296   .     A
C1498  O1531   1.294   .     A
C1498  O1530   1.298   .     A
C1498  C1505   1.452   .     S
C1499  C1524   1.422   .     A
C1499  C1555   1.488   .     S
C1500  C1558   1.488   .     S
C1500  C1523   1.422   .     A
C1500  C734    1.410   1_556 S
C1501  C1561   1.496   .     S
C1501  C1506   1.404   .     A
C1502  C1505   1.416   .     A
C1502  C1564   1.500   .     S
C1502  C1328   1.391   1_655 S
C1503  C1567   1.496   .     S
C1503  C1505   1.414   .     A
C1503  C1325   1.392   1_655 S
C1504  C1570   1.496   .     S
C1504  C1506   1.404   .     A
C1507  C1573   1.480   .     S
C1507  N1528   1.371   .     A
C1508  N1527   1.373   .     A
C1508  C1576   1.481   .     S
C1508  C981    1.429   1_565 S
C1509  N1528   1.375   .     A
C1509  C1579   1.483   .     S
C1510  N1527   1.377   .     A
C1510  C1582   1.483   .     S
C1510  C979    1.429   1_565 S
C1511  O1533   1.295   .     A
C1511  C1516   1.443   .     S
C1511  O1536   1.289   .     A
C1512  C1515   1.437   .     S
C1512  O1535   1.295   .     A
C1512  O1534   1.285   .     A
C1513  C1523   1.411   .     A
C1513  C1539   1.455   .     S
C1513  C1515   1.403   .     A
C1514  C1524   1.408   .     A
C1514  C1541   1.456   .     S
C1514  C1516   1.403   .     A
C1515  C1517   1.403   .     A
C1516  C1518   1.407   .     A
C1517  C1519   1.405   .     A
C1517  C1543   1.491   .     S
C1518  C1546   1.483   .     S
C1518  C1520   1.406   .     A
C1519  C1525   1.420   .     A
C1519  C1521   1.411   .     A
C1520  C1522   1.411   .     A
C1520  C1526   1.423   .     A
C1521  C1523   1.418   .     A
C1521  C730    1.397   1_556 S
C1522  C1524   1.417   .     A
C1525  C1549   1.493   .     S
C1525  C707    1.411   1_556 S
C1526  C1552   1.491   .     S
N1527  Zn1537  2.024   .     S
N1528  Zn1538  2.024   .     S
O1529  Zn1537  1.966   .     S
O1530  Zn1538  1.966   .     S
O1531  Zn1537  1.967   .     S
O1532  Zn1538  1.967   .     S
O1533  Zn1537  1.989   .     S
O1534  Zn1538  1.989   .     S
O1535  Zn1537  1.997   .     S
O1536  Zn1538  1.997   .     S
C1539  N1540   1.158   .     T
C1541  N1542   1.158   .     T
C1543  O1545   1.221   .     D
C1543  H1544   1.079   .     S
C1546  O1548   1.215   .     D
C1546  H1547   1.085   .     S
C1549  H1550   1.082   .     S
C1549  O1551   1.222   .     D
C1552  H1553   1.084   .     S
C1552  O1554   1.221   .     D
C1555  H1556   1.083   .     S
C1555  O1557   1.221   .     D
C1558  O1560   1.222   .     D
C1558  H1559   1.084   .     S
C1561  O1563   1.220   .     D
C1561  H1562   1.084   .     S
C1564  H1565   1.080   .     S
C1564  O1566   1.221   .     D
C1567  O1569   1.222   .     D
C1567  H1568   1.081   .     S
C1570  O1572   1.221   .     D
C1570  H1571   1.083   .     S
C1573  H1574   1.076   .     S
C1573  O1575   1.221   .     D
C1576  O1578   1.221   .     D
C1576  H1577   1.075   .     S
C1579  H1580   1.073   .     S
C1579  O1581   1.221   .     D
C1582  O1584   1.221   .     D
C1582  H1583   1.070   .     S
