data_str_m3_o10_o17_pcu_sym.195
_audit_creation_date              2020-01-03
_audit_creation_method            'Materials Studio'
_symmetry_space_group_name_H-M    'P1'
_symmetry_Int_Tables_number       1
_symmetry_cell_setting            triclinic
loop_
_symmetry_equiv_pos_as_xyz
  x,y,z
_cell_length_a                    23.2767
_cell_length_b                    25.2861
_cell_length_c                    29.8692
_cell_angle_alpha                 90.8363
_cell_angle_beta                  84.9844
_cell_angle_gamma                 94.0257
loop_
_atom_site_label
_atom_site_type_symbol
_atom_site_fract_x
_atom_site_fract_y
_atom_site_fract_z
_atom_site_U_iso_or_equiv
_atom_site_adp_type
_atom_site_occupancy
C1     C     0.18196   0.26465   0.25566   0.00000  Uiso   1.00
C2     C     0.15163   0.06880   0.25785   0.00000  Uiso   1.00
C3     C     0.21795   0.25576   0.47242   0.00000  Uiso   1.00
C4     C     0.11588   0.07957   0.02752   0.00000  Uiso   1.00
C5     C     0.19018   0.31859   0.27100   0.00000  Uiso   1.00
C6     C     0.14397   0.01543   0.27451   0.00000  Uiso   1.00
C7     C     0.16671   0.16557   0.33638   0.00000  Uiso   1.00
C8     C     0.16678   0.16872   0.16369   0.00000  Uiso   1.00
C9     C     0.14005   0.12766   0.09547   0.00000  Uiso   1.00
C10    C     0.19470   0.20707   0.40443   0.00000  Uiso   1.00
C11    C     0.16701   0.17080   0.11610   0.00000  Uiso   1.00
C12    C     0.16655   0.16439   0.38403   0.00000  Uiso   1.00
C13    C     0.19389   0.21425   0.09184   0.00000  Uiso   1.00
C14    C     0.13775   0.12226   0.40866   0.00000  Uiso   1.00
C15    C     0.19352   0.21313   0.04485   0.00000  Uiso   1.00
C16    C     0.13938   0.12279   0.45541   0.00000  Uiso   1.00
C17    C     0.16713   0.16828   0.02351   0.00000  Uiso   1.00
C18    C     0.16658   0.16724   0.47664   0.00000  Uiso   1.00
C19    C     0.14123   0.12452   0.04904   0.00000  Uiso   1.00
C20    C     0.19287   0.21071   0.45095   0.00000  Uiso   1.00
C21    C     0.21943   0.25558   0.01878   0.00000  Uiso   1.00
C22    C     0.11388   0.08010   0.48127   0.00000  Uiso   1.00
H23    H     0.11804   0.09691   0.11662   0.00000  Uiso   1.00
H24    H     0.21764   0.23726   0.38315   0.00000  Uiso   1.00
H25    H     0.24041   0.28983   0.03425   0.00000  Uiso   1.00
H26    H     0.09322   0.04580   0.46556   0.00000  Uiso   1.00
H27    H     0.00466   0.12713   0.21606   0.00000  Uiso   1.00
H28    H     0.32866   0.20618   0.28396   0.00000  Uiso   1.00
N29    N     0.31678   0.15265   0.23783   0.00000  Uiso   1.00
N30    N     0.01656   0.18068   0.26217   0.00000  Uiso   1.00
O31    O     0.12975   0.24619   0.25299   0.00000  Uiso   1.00
O32    O     0.20358   0.08714   0.24702   0.00000  Uiso   1.00
O33    O     0.22613   0.23721   0.24519   0.00000  Uiso   1.00
O34    O     0.10720   0.09613   0.25482   0.00000  Uiso   1.00
O35    O     0.11847   0.17117   0.31998   0.00000  Uiso   1.00
O36    O     0.21486   0.16216   0.18003   0.00000  Uiso   1.00
O37    O     0.21485   0.16219   0.31218   0.00000  Uiso   1.00
O38    O     0.11848   0.17115   0.18783   0.00000  Uiso   1.00
Zn39   Zn    0.10231   0.17266   0.25521   0.00000  Uiso   1.00
Zn40   Zn    0.23102   0.16067   0.24479   0.00000  Uiso   1.00
C41    C     0.21878   0.26170   0.11559   0.00000  Uiso   1.00
H42    H     0.20870   0.30113   0.10648   0.00000  Uiso   1.00
O43    O     0.25185   0.25732   0.14463   0.00000  Uiso   1.00
C44    C     0.10785   0.07732   0.38546   0.00000  Uiso   1.00
H45    H     0.12117   0.03738   0.38872   0.00000  Uiso   1.00
O46    O     0.06669   0.08453   0.36418   0.00000  Uiso   1.00
C47    C     0.24193   0.30489   0.44879   0.00000  Uiso   1.00
H48    H     0.27818   0.32799   0.46156   0.00000  Uiso   1.00
O49    O     0.21936   0.32209   0.41715   0.00000  Uiso   1.00
C50    C     0.09149   0.03043   0.05091   0.00000  Uiso   1.00
H51    H     0.05500   0.00776   0.03807   0.00000  Uiso   1.00
O52    O     0.11389   0.01271   0.08241   0.00000  Uiso   1.00
C53    C     0.24971   0.00502   0.28080   0.00000  Uiso   1.00
H54    H     0.28689   0.31993   0.26463   0.00000  Uiso   1.00
O55    O     0.25738   0.04009   0.30866   0.00000  Uiso   1.00
C56    C     0.08487   0.32946   0.29343   0.00000  Uiso   1.00
H57    H     0.04734   0.01473   0.28378   0.00000  Uiso   1.00
O58    O     0.07804   0.29494   0.32199   0.00000  Uiso   1.00
C59    C     0.51529   0.26465   0.25566   0.00000  Uiso   1.00
C60    C     0.48497   0.06880   0.25785   0.00000  Uiso   1.00
C61    C     0.55128   0.25576   0.47242   0.00000  Uiso   1.00
C62    C     0.44922   0.07957   0.02752   0.00000  Uiso   1.00
C63    C     0.52352   0.31859   0.27100   0.00000  Uiso   1.00
C64    C     0.47730   0.01543   0.27451   0.00000  Uiso   1.00
C65    C     0.50005   0.16557   0.33638   0.00000  Uiso   1.00
C66    C     0.50011   0.16872   0.16369   0.00000  Uiso   1.00
C67    C     0.47339   0.12766   0.09547   0.00000  Uiso   1.00
C68    C     0.52803   0.20707   0.40443   0.00000  Uiso   1.00
C69    C     0.50034   0.17080   0.11610   0.00000  Uiso   1.00
C70    C     0.49988   0.16439   0.38403   0.00000  Uiso   1.00
C71    C     0.52722   0.21425   0.09184   0.00000  Uiso   1.00
C72    C     0.47109   0.12226   0.40866   0.00000  Uiso   1.00
C73    C     0.52685   0.21313   0.04485   0.00000  Uiso   1.00
C74    C     0.47271   0.12279   0.45541   0.00000  Uiso   1.00
C75    C     0.50046   0.16828   0.02351   0.00000  Uiso   1.00
C76    C     0.49991   0.16724   0.47664   0.00000  Uiso   1.00
C77    C     0.47456   0.12452   0.04904   0.00000  Uiso   1.00
C78    C     0.52620   0.21071   0.45095   0.00000  Uiso   1.00
C79    C     0.55276   0.25558   0.01878   0.00000  Uiso   1.00
C80    C     0.44722   0.08010   0.48127   0.00000  Uiso   1.00
H81    H     0.45137   0.09691   0.11662   0.00000  Uiso   1.00
H82    H     0.55097   0.23726   0.38315   0.00000  Uiso   1.00
H83    H     0.57374   0.28983   0.03425   0.00000  Uiso   1.00
H84    H     0.42655   0.04580   0.46556   0.00000  Uiso   1.00
H85    H     0.33800   0.12713   0.21606   0.00000  Uiso   1.00
H86    H     0.66200   0.20618   0.28396   0.00000  Uiso   1.00
N87    N     0.65011   0.15265   0.23783   0.00000  Uiso   1.00
N88    N     0.34989   0.18068   0.26217   0.00000  Uiso   1.00
O89    O     0.46308   0.24619   0.25299   0.00000  Uiso   1.00
O90    O     0.53692   0.08714   0.24702   0.00000  Uiso   1.00
O91    O     0.55946   0.23721   0.24519   0.00000  Uiso   1.00
O92    O     0.44054   0.09613   0.25482   0.00000  Uiso   1.00
O93    O     0.45181   0.17117   0.31998   0.00000  Uiso   1.00
O94    O     0.54819   0.16216   0.18003   0.00000  Uiso   1.00
O95    O     0.54819   0.16219   0.31218   0.00000  Uiso   1.00
O96    O     0.45181   0.17115   0.18783   0.00000  Uiso   1.00
Zn97   Zn    0.43565   0.17266   0.25521   0.00000  Uiso   1.00
Zn98   Zn    0.56435   0.16067   0.24479   0.00000  Uiso   1.00
C99    C     0.55212   0.26170   0.11559   0.00000  Uiso   1.00
H100   H     0.54203   0.30113   0.10648   0.00000  Uiso   1.00
O101   O     0.58519   0.25732   0.14463   0.00000  Uiso   1.00
C102   C     0.44118   0.07732   0.38546   0.00000  Uiso   1.00
H103   H     0.45451   0.03738   0.38872   0.00000  Uiso   1.00
O104   O     0.40002   0.08453   0.36418   0.00000  Uiso   1.00
C105   C     0.57527   0.30489   0.44879   0.00000  Uiso   1.00
H106   H     0.61152   0.32799   0.46156   0.00000  Uiso   1.00
O107   O     0.55269   0.32209   0.41715   0.00000  Uiso   1.00
C108   C     0.42482   0.03043   0.05091   0.00000  Uiso   1.00
H109   H     0.38833   0.00776   0.03807   0.00000  Uiso   1.00
O110   O     0.44722   0.01271   0.08241   0.00000  Uiso   1.00
C111   C     0.58304   0.00502   0.28080   0.00000  Uiso   1.00
H112   H     0.62022   0.31993   0.26463   0.00000  Uiso   1.00
O113   O     0.59071   0.04009   0.30866   0.00000  Uiso   1.00
C114   C     0.41820   0.32946   0.29343   0.00000  Uiso   1.00
H115   H     0.38068   0.01473   0.28378   0.00000  Uiso   1.00
O116   O     0.41137   0.29494   0.32199   0.00000  Uiso   1.00
C117   C     0.84862   0.26465   0.25566   0.00000  Uiso   1.00
C118   C     0.81830   0.06880   0.25785   0.00000  Uiso   1.00
C119   C     0.88462   0.25576   0.47242   0.00000  Uiso   1.00
C120   C     0.78255   0.07957   0.02752   0.00000  Uiso   1.00
C121   C     0.85685   0.31859   0.27100   0.00000  Uiso   1.00
C122   C     0.81063   0.01543   0.27451   0.00000  Uiso   1.00
C123   C     0.83338   0.16557   0.33638   0.00000  Uiso   1.00
C124   C     0.83344   0.16872   0.16369   0.00000  Uiso   1.00
C125   C     0.80672   0.12766   0.09547   0.00000  Uiso   1.00
C126   C     0.86137   0.20707   0.40443   0.00000  Uiso   1.00
C127   C     0.83367   0.17080   0.11610   0.00000  Uiso   1.00
C128   C     0.83321   0.16439   0.38403   0.00000  Uiso   1.00
C129   C     0.86055   0.21425   0.09184   0.00000  Uiso   1.00
C130   C     0.80442   0.12226   0.40866   0.00000  Uiso   1.00
C131   C     0.86018   0.21313   0.04485   0.00000  Uiso   1.00
C132   C     0.80604   0.12279   0.45541   0.00000  Uiso   1.00
C133   C     0.83379   0.16828   0.02351   0.00000  Uiso   1.00
C134   C     0.83324   0.16724   0.47664   0.00000  Uiso   1.00
C135   C     0.80789   0.12452   0.04904   0.00000  Uiso   1.00
C136   C     0.85953   0.21071   0.45095   0.00000  Uiso   1.00
C137   C     0.88609   0.25558   0.01878   0.00000  Uiso   1.00
C138   C     0.78055   0.08010   0.48127   0.00000  Uiso   1.00
H139   H     0.78470   0.09691   0.11662   0.00000  Uiso   1.00
H140   H     0.88431   0.23726   0.38315   0.00000  Uiso   1.00
H141   H     0.90708   0.28983   0.03425   0.00000  Uiso   1.00
H142   H     0.75989   0.04580   0.46556   0.00000  Uiso   1.00
H143   H     0.67133   0.12713   0.21606   0.00000  Uiso   1.00
H144   H     0.99533   0.20618   0.28396   0.00000  Uiso   1.00
N145   N     0.98344   0.15265   0.23783   0.00000  Uiso   1.00
N146   N     0.68322   0.18068   0.26217   0.00000  Uiso   1.00
O147   O     0.79642   0.24619   0.25299   0.00000  Uiso   1.00
O148   O     0.87025   0.08714   0.24702   0.00000  Uiso   1.00
O149   O     0.89280   0.23721   0.24519   0.00000  Uiso   1.00
O150   O     0.77387   0.09613   0.25482   0.00000  Uiso   1.00
O151   O     0.78514   0.17117   0.31998   0.00000  Uiso   1.00
O152   O     0.88153   0.16216   0.18003   0.00000  Uiso   1.00
O153   O     0.88152   0.16219   0.31218   0.00000  Uiso   1.00
O154   O     0.78515   0.17115   0.18783   0.00000  Uiso   1.00
Zn155  Zn    0.76898   0.17266   0.25521   0.00000  Uiso   1.00
Zn156  Zn    0.89769   0.16067   0.24479   0.00000  Uiso   1.00
C157   C     0.88545   0.26170   0.11559   0.00000  Uiso   1.00
H158   H     0.87536   0.30113   0.10648   0.00000  Uiso   1.00
O159   O     0.91852   0.25732   0.14463   0.00000  Uiso   1.00
C160   C     0.77452   0.07732   0.38546   0.00000  Uiso   1.00
H161   H     0.78784   0.03738   0.38872   0.00000  Uiso   1.00
O162   O     0.73335   0.08453   0.36418   0.00000  Uiso   1.00
C163   C     0.90860   0.30489   0.44879   0.00000  Uiso   1.00
H164   H     0.94485   0.32799   0.46156   0.00000  Uiso   1.00
O165   O     0.88602   0.32209   0.41715   0.00000  Uiso   1.00
C166   C     0.75815   0.03043   0.05091   0.00000  Uiso   1.00
H167   H     0.72166   0.00776   0.03807   0.00000  Uiso   1.00
O168   O     0.78056   0.01271   0.08241   0.00000  Uiso   1.00
C169   C     0.91638   0.00502   0.28080   0.00000  Uiso   1.00
H170   H     0.95355   0.31993   0.26463   0.00000  Uiso   1.00
O171   O     0.92404   0.04009   0.30866   0.00000  Uiso   1.00
C172   C     0.75153   0.32946   0.29343   0.00000  Uiso   1.00
H173   H     0.71401   0.01473   0.28378   0.00000  Uiso   1.00
O174   O     0.74471   0.29494   0.32199   0.00000  Uiso   1.00
C175   C     0.18196   0.59799   0.25566   0.00000  Uiso   1.00
C176   C     0.15163   0.40214   0.25785   0.00000  Uiso   1.00
C177   C     0.21795   0.58910   0.47242   0.00000  Uiso   1.00
C178   C     0.11588   0.41291   0.02752   0.00000  Uiso   1.00
C179   C     0.19018   0.65193   0.27100   0.00000  Uiso   1.00
C180   C     0.14397   0.34877   0.27451   0.00000  Uiso   1.00
C181   C     0.16671   0.49890   0.33638   0.00000  Uiso   1.00
C182   C     0.16678   0.50206   0.16369   0.00000  Uiso   1.00
C183   C     0.14005   0.46100   0.09547   0.00000  Uiso   1.00
C184   C     0.19470   0.54041   0.40443   0.00000  Uiso   1.00
C185   C     0.16701   0.50413   0.11610   0.00000  Uiso   1.00
C186   C     0.16655   0.49772   0.38403   0.00000  Uiso   1.00
C187   C     0.19389   0.54758   0.09184   0.00000  Uiso   1.00
C188   C     0.13775   0.45560   0.40866   0.00000  Uiso   1.00
C189   C     0.19352   0.54646   0.04485   0.00000  Uiso   1.00
C190   C     0.13938   0.45613   0.45541   0.00000  Uiso   1.00
C191   C     0.16713   0.50161   0.02351   0.00000  Uiso   1.00
C192   C     0.16658   0.50057   0.47664   0.00000  Uiso   1.00
C193   C     0.14123   0.45785   0.04904   0.00000  Uiso   1.00
C194   C     0.19287   0.54404   0.45095   0.00000  Uiso   1.00
C195   C     0.21943   0.58892   0.01878   0.00000  Uiso   1.00
C196   C     0.11388   0.41343   0.48127   0.00000  Uiso   1.00
H197   H     0.11804   0.43024   0.11662   0.00000  Uiso   1.00
H198   H     0.21764   0.57059   0.38315   0.00000  Uiso   1.00
H199   H     0.24041   0.62317   0.03425   0.00000  Uiso   1.00
H200   H     0.09322   0.37914   0.46556   0.00000  Uiso   1.00
H201   H     0.00466   0.46047   0.21606   0.00000  Uiso   1.00
H202   H     0.32866   0.53951   0.28396   0.00000  Uiso   1.00
N203   N     0.31678   0.48598   0.23783   0.00000  Uiso   1.00
N204   N     0.01656   0.51402   0.26217   0.00000  Uiso   1.00
O205   O     0.12975   0.57952   0.25299   0.00000  Uiso   1.00
O206   O     0.20358   0.42048   0.24702   0.00000  Uiso   1.00
O207   O     0.22613   0.57054   0.24519   0.00000  Uiso   1.00
O208   O     0.10720   0.42946   0.25482   0.00000  Uiso   1.00
O209   O     0.11847   0.50450   0.31998   0.00000  Uiso   1.00
O210   O     0.21486   0.49550   0.18003   0.00000  Uiso   1.00
O211   O     0.21485   0.49552   0.31218   0.00000  Uiso   1.00
O212   O     0.11848   0.50448   0.18783   0.00000  Uiso   1.00
Zn213  Zn    0.10231   0.50600   0.25521   0.00000  Uiso   1.00
Zn214  Zn    0.23102   0.49400   0.24479   0.00000  Uiso   1.00
C215   C     0.21878   0.59503   0.11559   0.00000  Uiso   1.00
H216   H     0.20870   0.63446   0.10648   0.00000  Uiso   1.00
O217   O     0.25185   0.59065   0.14463   0.00000  Uiso   1.00
C218   C     0.10785   0.41065   0.38546   0.00000  Uiso   1.00
H219   H     0.12117   0.37072   0.38872   0.00000  Uiso   1.00
O220   O     0.06669   0.41786   0.36418   0.00000  Uiso   1.00
C221   C     0.24193   0.63822   0.44879   0.00000  Uiso   1.00
H222   H     0.27818   0.66132   0.46156   0.00000  Uiso   1.00
O223   O     0.21936   0.65543   0.41715   0.00000  Uiso   1.00
C224   C     0.09149   0.36376   0.05091   0.00000  Uiso   1.00
H225   H     0.05500   0.34109   0.03807   0.00000  Uiso   1.00
O226   O     0.11389   0.34604   0.08241   0.00000  Uiso   1.00
C227   C     0.24971   0.33836   0.28080   0.00000  Uiso   1.00
H228   H     0.28689   0.65327   0.26463   0.00000  Uiso   1.00
O229   O     0.25738   0.37343   0.30866   0.00000  Uiso   1.00
C230   C     0.08487   0.66279   0.29343   0.00000  Uiso   1.00
H231   H     0.04734   0.34806   0.28378   0.00000  Uiso   1.00
O232   O     0.07804   0.62828   0.32199   0.00000  Uiso   1.00
C233   C     0.51529   0.59799   0.25566   0.00000  Uiso   1.00
C234   C     0.48497   0.40214   0.25785   0.00000  Uiso   1.00
C235   C     0.55128   0.58910   0.47242   0.00000  Uiso   1.00
C236   C     0.44922   0.41291   0.02752   0.00000  Uiso   1.00
C237   C     0.52352   0.65193   0.27100   0.00000  Uiso   1.00
C238   C     0.47730   0.34877   0.27451   0.00000  Uiso   1.00
C239   C     0.50005   0.49890   0.33638   0.00000  Uiso   1.00
C240   C     0.50011   0.50206   0.16369   0.00000  Uiso   1.00
C241   C     0.47339   0.46100   0.09547   0.00000  Uiso   1.00
C242   C     0.52803   0.54041   0.40443   0.00000  Uiso   1.00
C243   C     0.50034   0.50413   0.11610   0.00000  Uiso   1.00
C244   C     0.49988   0.49772   0.38403   0.00000  Uiso   1.00
C245   C     0.52722   0.54758   0.09184   0.00000  Uiso   1.00
C246   C     0.47109   0.45560   0.40866   0.00000  Uiso   1.00
C247   C     0.52685   0.54646   0.04485   0.00000  Uiso   1.00
C248   C     0.47271   0.45613   0.45541   0.00000  Uiso   1.00
C249   C     0.50046   0.50161   0.02351   0.00000  Uiso   1.00
C250   C     0.49991   0.50057   0.47664   0.00000  Uiso   1.00
C251   C     0.47456   0.45785   0.04904   0.00000  Uiso   1.00
C252   C     0.52620   0.54404   0.45095   0.00000  Uiso   1.00
C253   C     0.55276   0.58892   0.01878   0.00000  Uiso   1.00
C254   C     0.44722   0.41343   0.48127   0.00000  Uiso   1.00
H255   H     0.45137   0.43024   0.11662   0.00000  Uiso   1.00
H256   H     0.55097   0.57059   0.38315   0.00000  Uiso   1.00
H257   H     0.57374   0.62317   0.03425   0.00000  Uiso   1.00
H258   H     0.42655   0.37914   0.46556   0.00000  Uiso   1.00
H259   H     0.33800   0.46047   0.21606   0.00000  Uiso   1.00
H260   H     0.66200   0.53951   0.28396   0.00000  Uiso   1.00
N261   N     0.65011   0.48598   0.23783   0.00000  Uiso   1.00
N262   N     0.34989   0.51402   0.26217   0.00000  Uiso   1.00
O263   O     0.46308   0.57952   0.25299   0.00000  Uiso   1.00
O264   O     0.53692   0.42048   0.24702   0.00000  Uiso   1.00
O265   O     0.55946   0.57054   0.24519   0.00000  Uiso   1.00
O266   O     0.44054   0.42946   0.25482   0.00000  Uiso   1.00
O267   O     0.45181   0.50450   0.31998   0.00000  Uiso   1.00
O268   O     0.54819   0.49550   0.18003   0.00000  Uiso   1.00
O269   O     0.54819   0.49552   0.31218   0.00000  Uiso   1.00
O270   O     0.45181   0.50448   0.18783   0.00000  Uiso   1.00
Zn271  Zn    0.43565   0.50600   0.25521   0.00000  Uiso   1.00
Zn272  Zn    0.56435   0.49400   0.24479   0.00000  Uiso   1.00
C273   C     0.55212   0.59503   0.11559   0.00000  Uiso   1.00
H274   H     0.54203   0.63446   0.10648   0.00000  Uiso   1.00
O275   O     0.58519   0.59065   0.14463   0.00000  Uiso   1.00
C276   C     0.44118   0.41065   0.38546   0.00000  Uiso   1.00
H277   H     0.45451   0.37072   0.38872   0.00000  Uiso   1.00
O278   O     0.40002   0.41786   0.36418   0.00000  Uiso   1.00
C279   C     0.57527   0.63822   0.44879   0.00000  Uiso   1.00
H280   H     0.61152   0.66132   0.46156   0.00000  Uiso   1.00
O281   O     0.55269   0.65543   0.41715   0.00000  Uiso   1.00
C282   C     0.42482   0.36376   0.05091   0.00000  Uiso   1.00
H283   H     0.38833   0.34109   0.03807   0.00000  Uiso   1.00
O284   O     0.44722   0.34604   0.08241   0.00000  Uiso   1.00
C285   C     0.58304   0.33836   0.28080   0.00000  Uiso   1.00
H286   H     0.62022   0.65327   0.26463   0.00000  Uiso   1.00
O287   O     0.59071   0.37343   0.30866   0.00000  Uiso   1.00
C288   C     0.41820   0.66279   0.29343   0.00000  Uiso   1.00
H289   H     0.38068   0.34806   0.28378   0.00000  Uiso   1.00
O290   O     0.41137   0.62828   0.32199   0.00000  Uiso   1.00
C291   C     0.84862   0.59799   0.25566   0.00000  Uiso   1.00
C292   C     0.81830   0.40214   0.25785   0.00000  Uiso   1.00
C293   C     0.88462   0.58910   0.47242   0.00000  Uiso   1.00
C294   C     0.78255   0.41291   0.02752   0.00000  Uiso   1.00
C295   C     0.85685   0.65193   0.27100   0.00000  Uiso   1.00
C296   C     0.81063   0.34877   0.27451   0.00000  Uiso   1.00
C297   C     0.83338   0.49890   0.33638   0.00000  Uiso   1.00
C298   C     0.83344   0.50206   0.16369   0.00000  Uiso   1.00
C299   C     0.80672   0.46100   0.09547   0.00000  Uiso   1.00
C300   C     0.86137   0.54041   0.40443   0.00000  Uiso   1.00
C301   C     0.83367   0.50413   0.11610   0.00000  Uiso   1.00
C302   C     0.83321   0.49772   0.38403   0.00000  Uiso   1.00
C303   C     0.86055   0.54758   0.09184   0.00000  Uiso   1.00
C304   C     0.80442   0.45560   0.40866   0.00000  Uiso   1.00
C305   C     0.86018   0.54646   0.04485   0.00000  Uiso   1.00
C306   C     0.80604   0.45613   0.45541   0.00000  Uiso   1.00
C307   C     0.83379   0.50161   0.02351   0.00000  Uiso   1.00
C308   C     0.83324   0.50057   0.47664   0.00000  Uiso   1.00
C309   C     0.80789   0.45785   0.04904   0.00000  Uiso   1.00
C310   C     0.85953   0.54404   0.45095   0.00000  Uiso   1.00
C311   C     0.88609   0.58892   0.01878   0.00000  Uiso   1.00
C312   C     0.78055   0.41343   0.48127   0.00000  Uiso   1.00
H313   H     0.78470   0.43024   0.11662   0.00000  Uiso   1.00
H314   H     0.88431   0.57059   0.38315   0.00000  Uiso   1.00
H315   H     0.90708   0.62317   0.03425   0.00000  Uiso   1.00
H316   H     0.75989   0.37914   0.46556   0.00000  Uiso   1.00
H317   H     0.67133   0.46047   0.21606   0.00000  Uiso   1.00
H318   H     0.99533   0.53951   0.28396   0.00000  Uiso   1.00
N319   N     0.98344   0.48598   0.23783   0.00000  Uiso   1.00
N320   N     0.68322   0.51402   0.26217   0.00000  Uiso   1.00
O321   O     0.79642   0.57952   0.25299   0.00000  Uiso   1.00
O322   O     0.87025   0.42048   0.24702   0.00000  Uiso   1.00
O323   O     0.89280   0.57054   0.24519   0.00000  Uiso   1.00
O324   O     0.77387   0.42946   0.25482   0.00000  Uiso   1.00
O325   O     0.78514   0.50450   0.31998   0.00000  Uiso   1.00
O326   O     0.88153   0.49550   0.18003   0.00000  Uiso   1.00
O327   O     0.88152   0.49552   0.31218   0.00000  Uiso   1.00
O328   O     0.78515   0.50448   0.18783   0.00000  Uiso   1.00
Zn329  Zn    0.76898   0.50600   0.25521   0.00000  Uiso   1.00
Zn330  Zn    0.89769   0.49400   0.24479   0.00000  Uiso   1.00
C331   C     0.88545   0.59503   0.11559   0.00000  Uiso   1.00
H332   H     0.87536   0.63446   0.10648   0.00000  Uiso   1.00
O333   O     0.91852   0.59065   0.14463   0.00000  Uiso   1.00
C334   C     0.77452   0.41065   0.38546   0.00000  Uiso   1.00
H335   H     0.78784   0.37072   0.38872   0.00000  Uiso   1.00
O336   O     0.73335   0.41786   0.36418   0.00000  Uiso   1.00
C337   C     0.90860   0.63822   0.44879   0.00000  Uiso   1.00
H338   H     0.94485   0.66132   0.46156   0.00000  Uiso   1.00
O339   O     0.88602   0.65543   0.41715   0.00000  Uiso   1.00
C340   C     0.75815   0.36376   0.05091   0.00000  Uiso   1.00
H341   H     0.72166   0.34109   0.03807   0.00000  Uiso   1.00
O342   O     0.78056   0.34604   0.08241   0.00000  Uiso   1.00
C343   C     0.91638   0.33836   0.28080   0.00000  Uiso   1.00
H344   H     0.95355   0.65327   0.26463   0.00000  Uiso   1.00
O345   O     0.92404   0.37343   0.30866   0.00000  Uiso   1.00
C346   C     0.75153   0.66279   0.29343   0.00000  Uiso   1.00
H347   H     0.71401   0.34806   0.28378   0.00000  Uiso   1.00
O348   O     0.74471   0.62828   0.32199   0.00000  Uiso   1.00
C349   C     0.18196   0.93132   0.25566   0.00000  Uiso   1.00
C350   C     0.15163   0.73547   0.25785   0.00000  Uiso   1.00
C351   C     0.21795   0.92243   0.47242   0.00000  Uiso   1.00
C352   C     0.11588   0.74624   0.02752   0.00000  Uiso   1.00
C353   C     0.19018   0.98526   0.27100   0.00000  Uiso   1.00
C354   C     0.14397   0.68210   0.27451   0.00000  Uiso   1.00
C355   C     0.16671   0.83223   0.33638   0.00000  Uiso   1.00
C356   C     0.16678   0.83539   0.16369   0.00000  Uiso   1.00
C357   C     0.14005   0.79433   0.09547   0.00000  Uiso   1.00
C358   C     0.19470   0.87374   0.40443   0.00000  Uiso   1.00
C359   C     0.16701   0.83747   0.11610   0.00000  Uiso   1.00
C360   C     0.16655   0.83106   0.38403   0.00000  Uiso   1.00
C361   C     0.19389   0.88091   0.09184   0.00000  Uiso   1.00
C362   C     0.13775   0.78893   0.40866   0.00000  Uiso   1.00
C363   C     0.19352   0.87980   0.04485   0.00000  Uiso   1.00
C364   C     0.13938   0.78946   0.45541   0.00000  Uiso   1.00
C365   C     0.16713   0.83494   0.02351   0.00000  Uiso   1.00
C366   C     0.16658   0.83391   0.47664   0.00000  Uiso   1.00
C367   C     0.14123   0.79119   0.04904   0.00000  Uiso   1.00
C368   C     0.19287   0.87737   0.45095   0.00000  Uiso   1.00
C369   C     0.21943   0.92225   0.01878   0.00000  Uiso   1.00
C370   C     0.11388   0.74677   0.48127   0.00000  Uiso   1.00
H371   H     0.11804   0.76358   0.11662   0.00000  Uiso   1.00
H372   H     0.21764   0.90393   0.38315   0.00000  Uiso   1.00
H373   H     0.24041   0.95650   0.03425   0.00000  Uiso   1.00
H374   H     0.09322   0.71247   0.46556   0.00000  Uiso   1.00
H375   H     0.00466   0.79380   0.21606   0.00000  Uiso   1.00
H376   H     0.32866   0.87284   0.28396   0.00000  Uiso   1.00
N377   N     0.31678   0.81932   0.23783   0.00000  Uiso   1.00
N378   N     0.01656   0.84735   0.26217   0.00000  Uiso   1.00
O379   O     0.12975   0.91286   0.25299   0.00000  Uiso   1.00
O380   O     0.20358   0.75381   0.24702   0.00000  Uiso   1.00
O381   O     0.22613   0.90387   0.24519   0.00000  Uiso   1.00
O382   O     0.10720   0.76279   0.25482   0.00000  Uiso   1.00
O383   O     0.11847   0.83784   0.31998   0.00000  Uiso   1.00
O384   O     0.21486   0.82883   0.18003   0.00000  Uiso   1.00
O385   O     0.21485   0.82885   0.31218   0.00000  Uiso   1.00
O386   O     0.11848   0.83781   0.18783   0.00000  Uiso   1.00
Zn387  Zn    0.10231   0.83933   0.25521   0.00000  Uiso   1.00
Zn388  Zn    0.23102   0.82734   0.24479   0.00000  Uiso   1.00
C389   C     0.21878   0.92836   0.11559   0.00000  Uiso   1.00
H390   H     0.20870   0.96779   0.10648   0.00000  Uiso   1.00
O391   O     0.25185   0.92399   0.14463   0.00000  Uiso   1.00
C392   C     0.10785   0.74398   0.38546   0.00000  Uiso   1.00
H393   H     0.12117   0.70405   0.38872   0.00000  Uiso   1.00
O394   O     0.06669   0.75119   0.36418   0.00000  Uiso   1.00
C395   C     0.24193   0.97155   0.44879   0.00000  Uiso   1.00
H396   H     0.27818   0.99466   0.46156   0.00000  Uiso   1.00
O397   O     0.21936   0.98876   0.41715   0.00000  Uiso   1.00
C398   C     0.09149   0.69710   0.05091   0.00000  Uiso   1.00
H399   H     0.05500   0.67442   0.03807   0.00000  Uiso   1.00
O400   O     0.11389   0.67937   0.08241   0.00000  Uiso   1.00
C401   C     0.24971   0.67169   0.28080   0.00000  Uiso   1.00
H402   H     0.28689   0.98660   0.26463   0.00000  Uiso   1.00
O403   O     0.25738   0.70676   0.30866   0.00000  Uiso   1.00
C404   C     0.08487   0.99613   0.29343   0.00000  Uiso   1.00
H405   H     0.04734   0.68140   0.28378   0.00000  Uiso   1.00
O406   O     0.07804   0.96161   0.32199   0.00000  Uiso   1.00
C407   C     0.51529   0.93132   0.25566   0.00000  Uiso   1.00
C408   C     0.48497   0.73547   0.25785   0.00000  Uiso   1.00
C409   C     0.55128   0.92243   0.47242   0.00000  Uiso   1.00
C410   C     0.44922   0.74624   0.02752   0.00000  Uiso   1.00
C411   C     0.52352   0.98526   0.27100   0.00000  Uiso   1.00
C412   C     0.47730   0.68210   0.27451   0.00000  Uiso   1.00
C413   C     0.50005   0.83223   0.33638   0.00000  Uiso   1.00
C414   C     0.50011   0.83539   0.16369   0.00000  Uiso   1.00
C415   C     0.47339   0.79433   0.09547   0.00000  Uiso   1.00
C416   C     0.52803   0.87374   0.40443   0.00000  Uiso   1.00
C417   C     0.50034   0.83747   0.11610   0.00000  Uiso   1.00
C418   C     0.49988   0.83106   0.38403   0.00000  Uiso   1.00
C419   C     0.52722   0.88091   0.09184   0.00000  Uiso   1.00
C420   C     0.47109   0.78893   0.40866   0.00000  Uiso   1.00
C421   C     0.52685   0.87980   0.04485   0.00000  Uiso   1.00
C422   C     0.47271   0.78946   0.45541   0.00000  Uiso   1.00
C423   C     0.50046   0.83494   0.02351   0.00000  Uiso   1.00
C424   C     0.49991   0.83391   0.47664   0.00000  Uiso   1.00
C425   C     0.47456   0.79119   0.04904   0.00000  Uiso   1.00
C426   C     0.52620   0.87737   0.45095   0.00000  Uiso   1.00
C427   C     0.55276   0.92225   0.01878   0.00000  Uiso   1.00
C428   C     0.44722   0.74677   0.48127   0.00000  Uiso   1.00
H429   H     0.45137   0.76358   0.11662   0.00000  Uiso   1.00
H430   H     0.55097   0.90393   0.38315   0.00000  Uiso   1.00
H431   H     0.57374   0.95650   0.03425   0.00000  Uiso   1.00
H432   H     0.42655   0.71247   0.46556   0.00000  Uiso   1.00
H433   H     0.33800   0.79380   0.21606   0.00000  Uiso   1.00
H434   H     0.66200   0.87284   0.28396   0.00000  Uiso   1.00
N435   N     0.65011   0.81932   0.23783   0.00000  Uiso   1.00
N436   N     0.34989   0.84735   0.26217   0.00000  Uiso   1.00
O437   O     0.46308   0.91286   0.25299   0.00000  Uiso   1.00
O438   O     0.53692   0.75381   0.24702   0.00000  Uiso   1.00
O439   O     0.55946   0.90387   0.24519   0.00000  Uiso   1.00
O440   O     0.44054   0.76279   0.25482   0.00000  Uiso   1.00
O441   O     0.45181   0.83784   0.31998   0.00000  Uiso   1.00
O442   O     0.54819   0.82883   0.18003   0.00000  Uiso   1.00
O443   O     0.54819   0.82885   0.31218   0.00000  Uiso   1.00
O444   O     0.45181   0.83781   0.18783   0.00000  Uiso   1.00
Zn445  Zn    0.43565   0.83933   0.25521   0.00000  Uiso   1.00
Zn446  Zn    0.56435   0.82734   0.24479   0.00000  Uiso   1.00
C447   C     0.55212   0.92836   0.11559   0.00000  Uiso   1.00
H448   H     0.54203   0.96779   0.10648   0.00000  Uiso   1.00
O449   O     0.58519   0.92399   0.14463   0.00000  Uiso   1.00
C450   C     0.44118   0.74398   0.38546   0.00000  Uiso   1.00
H451   H     0.45451   0.70405   0.38872   0.00000  Uiso   1.00
O452   O     0.40002   0.75119   0.36418   0.00000  Uiso   1.00
C453   C     0.57527   0.97155   0.44879   0.00000  Uiso   1.00
H454   H     0.61152   0.99466   0.46156   0.00000  Uiso   1.00
O455   O     0.55269   0.98876   0.41715   0.00000  Uiso   1.00
C456   C     0.42482   0.69710   0.05091   0.00000  Uiso   1.00
H457   H     0.38833   0.67442   0.03807   0.00000  Uiso   1.00
O458   O     0.44722   0.67937   0.08241   0.00000  Uiso   1.00
C459   C     0.58304   0.67169   0.28080   0.00000  Uiso   1.00
H460   H     0.62022   0.98660   0.26463   0.00000  Uiso   1.00
O461   O     0.59071   0.70676   0.30866   0.00000  Uiso   1.00
C462   C     0.41820   0.99613   0.29343   0.00000  Uiso   1.00
H463   H     0.38068   0.68140   0.28378   0.00000  Uiso   1.00
O464   O     0.41137   0.96161   0.32199   0.00000  Uiso   1.00
C465   C     0.84862   0.93132   0.25566   0.00000  Uiso   1.00
C466   C     0.81830   0.73547   0.25785   0.00000  Uiso   1.00
C467   C     0.88462   0.92243   0.47242   0.00000  Uiso   1.00
C468   C     0.78255   0.74624   0.02752   0.00000  Uiso   1.00
C469   C     0.85685   0.98526   0.27100   0.00000  Uiso   1.00
C470   C     0.81063   0.68210   0.27451   0.00000  Uiso   1.00
C471   C     0.83338   0.83223   0.33638   0.00000  Uiso   1.00
C472   C     0.83344   0.83539   0.16369   0.00000  Uiso   1.00
C473   C     0.80672   0.79433   0.09547   0.00000  Uiso   1.00
C474   C     0.86137   0.87374   0.40443   0.00000  Uiso   1.00
C475   C     0.83367   0.83747   0.11610   0.00000  Uiso   1.00
C476   C     0.83321   0.83106   0.38403   0.00000  Uiso   1.00
C477   C     0.86055   0.88091   0.09184   0.00000  Uiso   1.00
C478   C     0.80442   0.78893   0.40866   0.00000  Uiso   1.00
C479   C     0.86018   0.87980   0.04485   0.00000  Uiso   1.00
C480   C     0.80604   0.78946   0.45541   0.00000  Uiso   1.00
C481   C     0.83379   0.83494   0.02351   0.00000  Uiso   1.00
C482   C     0.83324   0.83391   0.47664   0.00000  Uiso   1.00
C483   C     0.80789   0.79119   0.04904   0.00000  Uiso   1.00
C484   C     0.85953   0.87737   0.45095   0.00000  Uiso   1.00
C485   C     0.88609   0.92225   0.01878   0.00000  Uiso   1.00
C486   C     0.78055   0.74677   0.48127   0.00000  Uiso   1.00
H487   H     0.78470   0.76358   0.11662   0.00000  Uiso   1.00
H488   H     0.88431   0.90393   0.38315   0.00000  Uiso   1.00
H489   H     0.90708   0.95650   0.03425   0.00000  Uiso   1.00
H490   H     0.75989   0.71247   0.46556   0.00000  Uiso   1.00
H491   H     0.67133   0.79380   0.21606   0.00000  Uiso   1.00
H492   H     0.99533   0.87284   0.28396   0.00000  Uiso   1.00
N493   N     0.98344   0.81932   0.23783   0.00000  Uiso   1.00
N494   N     0.68322   0.84735   0.26217   0.00000  Uiso   1.00
O495   O     0.79642   0.91286   0.25299   0.00000  Uiso   1.00
O496   O     0.87025   0.75381   0.24702   0.00000  Uiso   1.00
O497   O     0.89280   0.90387   0.24519   0.00000  Uiso   1.00
O498   O     0.77387   0.76279   0.25482   0.00000  Uiso   1.00
O499   O     0.78514   0.83784   0.31998   0.00000  Uiso   1.00
O500   O     0.88153   0.82883   0.18003   0.00000  Uiso   1.00
O501   O     0.88152   0.82885   0.31218   0.00000  Uiso   1.00
O502   O     0.78515   0.83781   0.18783   0.00000  Uiso   1.00
Zn503  Zn    0.76898   0.83933   0.25521   0.00000  Uiso   1.00
Zn504  Zn    0.89769   0.82734   0.24479   0.00000  Uiso   1.00
C505   C     0.88545   0.92836   0.11559   0.00000  Uiso   1.00
H506   H     0.87536   0.96779   0.10648   0.00000  Uiso   1.00
O507   O     0.91852   0.92399   0.14463   0.00000  Uiso   1.00
C508   C     0.77452   0.74398   0.38546   0.00000  Uiso   1.00
H509   H     0.78784   0.70405   0.38872   0.00000  Uiso   1.00
O510   O     0.73335   0.75119   0.36418   0.00000  Uiso   1.00
C511   C     0.90860   0.97155   0.44879   0.00000  Uiso   1.00
H512   H     0.94485   0.99466   0.46156   0.00000  Uiso   1.00
O513   O     0.88602   0.98876   0.41715   0.00000  Uiso   1.00
C514   C     0.75815   0.69710   0.05091   0.00000  Uiso   1.00
H515   H     0.72166   0.67442   0.03807   0.00000  Uiso   1.00
O516   O     0.78056   0.67937   0.08241   0.00000  Uiso   1.00
C517   C     0.91638   0.67169   0.28080   0.00000  Uiso   1.00
H518   H     0.95355   0.98660   0.26463   0.00000  Uiso   1.00
O519   O     0.92404   0.70676   0.30866   0.00000  Uiso   1.00
C520   C     0.75153   0.99613   0.29343   0.00000  Uiso   1.00
H521   H     0.71401   0.68140   0.28378   0.00000  Uiso   1.00
O522   O     0.74471   0.96161   0.32199   0.00000  Uiso   1.00
C523   C     0.18196   0.26465   0.75566   0.00000  Uiso   1.00
C524   C     0.15163   0.06880   0.75785   0.00000  Uiso   1.00
C525   C     0.21795   0.25576   0.97242   0.00000  Uiso   1.00
C526   C     0.11588   0.07957   0.52752   0.00000  Uiso   1.00
C527   C     0.19018   0.31859   0.77100   0.00000  Uiso   1.00
C528   C     0.14397   0.01543   0.77451   0.00000  Uiso   1.00
C529   C     0.16671   0.16557   0.83638   0.00000  Uiso   1.00
C530   C     0.16678   0.16872   0.66369   0.00000  Uiso   1.00
C531   C     0.14005   0.12766   0.59547   0.00000  Uiso   1.00
C532   C     0.19470   0.20707   0.90443   0.00000  Uiso   1.00
C533   C     0.16701   0.17080   0.61610   0.00000  Uiso   1.00
C534   C     0.16655   0.16439   0.88403   0.00000  Uiso   1.00
C535   C     0.19389   0.21425   0.59184   0.00000  Uiso   1.00
C536   C     0.13775   0.12226   0.90866   0.00000  Uiso   1.00
C537   C     0.19352   0.21313   0.54485   0.00000  Uiso   1.00
C538   C     0.13938   0.12279   0.95541   0.00000  Uiso   1.00
C539   C     0.16713   0.16828   0.52351   0.00000  Uiso   1.00
C540   C     0.16658   0.16724   0.97664   0.00000  Uiso   1.00
C541   C     0.14123   0.12452   0.54904   0.00000  Uiso   1.00
C542   C     0.19287   0.21071   0.95095   0.00000  Uiso   1.00
C543   C     0.21943   0.25558   0.51878   0.00000  Uiso   1.00
C544   C     0.11388   0.08010   0.98127   0.00000  Uiso   1.00
H545   H     0.11804   0.09691   0.61662   0.00000  Uiso   1.00
H546   H     0.21764   0.23726   0.88315   0.00000  Uiso   1.00
H547   H     0.24041   0.28983   0.53425   0.00000  Uiso   1.00
H548   H     0.09322   0.04580   0.96556   0.00000  Uiso   1.00
H549   H     0.00466   0.12713   0.71606   0.00000  Uiso   1.00
H550   H     0.32866   0.20618   0.78396   0.00000  Uiso   1.00
N551   N     0.31678   0.15265   0.73783   0.00000  Uiso   1.00
N552   N     0.01656   0.18068   0.76217   0.00000  Uiso   1.00
O553   O     0.12975   0.24619   0.75299   0.00000  Uiso   1.00
O554   O     0.20358   0.08714   0.74702   0.00000  Uiso   1.00
O555   O     0.22613   0.23721   0.74519   0.00000  Uiso   1.00
O556   O     0.10720   0.09613   0.75482   0.00000  Uiso   1.00
O557   O     0.11847   0.17117   0.81998   0.00000  Uiso   1.00
O558   O     0.21486   0.16216   0.68003   0.00000  Uiso   1.00
O559   O     0.21485   0.16219   0.81218   0.00000  Uiso   1.00
O560   O     0.11848   0.17115   0.68783   0.00000  Uiso   1.00
Zn561  Zn    0.10231   0.17266   0.75521   0.00000  Uiso   1.00
Zn562  Zn    0.23102   0.16067   0.74479   0.00000  Uiso   1.00
C563   C     0.21878   0.26170   0.61559   0.00000  Uiso   1.00
H564   H     0.20870   0.30113   0.60648   0.00000  Uiso   1.00
O565   O     0.25185   0.25732   0.64463   0.00000  Uiso   1.00
C566   C     0.10785   0.07732   0.88546   0.00000  Uiso   1.00
H567   H     0.12117   0.03738   0.88872   0.00000  Uiso   1.00
O568   O     0.06669   0.08453   0.86418   0.00000  Uiso   1.00
C569   C     0.24193   0.30489   0.94879   0.00000  Uiso   1.00
H570   H     0.27818   0.32799   0.96156   0.00000  Uiso   1.00
O571   O     0.21936   0.32209   0.91715   0.00000  Uiso   1.00
C572   C     0.09149   0.03043   0.55091   0.00000  Uiso   1.00
H573   H     0.05500   0.00776   0.53807   0.00000  Uiso   1.00
O574   O     0.11389   0.01271   0.58241   0.00000  Uiso   1.00
C575   C     0.24971   0.00502   0.78080   0.00000  Uiso   1.00
H576   H     0.28689   0.31993   0.76463   0.00000  Uiso   1.00
O577   O     0.25738   0.04009   0.80866   0.00000  Uiso   1.00
C578   C     0.08487   0.32946   0.79343   0.00000  Uiso   1.00
H579   H     0.04734   0.01473   0.78378   0.00000  Uiso   1.00
O580   O     0.07804   0.29494   0.82199   0.00000  Uiso   1.00
C581   C     0.51529   0.26465   0.75566   0.00000  Uiso   1.00
C582   C     0.48497   0.06880   0.75785   0.00000  Uiso   1.00
C583   C     0.55128   0.25576   0.97242   0.00000  Uiso   1.00
C584   C     0.44922   0.07957   0.52752   0.00000  Uiso   1.00
C585   C     0.52352   0.31859   0.77100   0.00000  Uiso   1.00
C586   C     0.47730   0.01543   0.77451   0.00000  Uiso   1.00
C587   C     0.50005   0.16557   0.83638   0.00000  Uiso   1.00
C588   C     0.50011   0.16872   0.66369   0.00000  Uiso   1.00
C589   C     0.47339   0.12766   0.59547   0.00000  Uiso   1.00
C590   C     0.52803   0.20707   0.90443   0.00000  Uiso   1.00
C591   C     0.50034   0.17080   0.61610   0.00000  Uiso   1.00
C592   C     0.49988   0.16439   0.88403   0.00000  Uiso   1.00
C593   C     0.52722   0.21425   0.59184   0.00000  Uiso   1.00
C594   C     0.47109   0.12226   0.90866   0.00000  Uiso   1.00
C595   C     0.52685   0.21313   0.54485   0.00000  Uiso   1.00
C596   C     0.47271   0.12279   0.95541   0.00000  Uiso   1.00
C597   C     0.50046   0.16828   0.52351   0.00000  Uiso   1.00
C598   C     0.49991   0.16724   0.97664   0.00000  Uiso   1.00
C599   C     0.47456   0.12452   0.54904   0.00000  Uiso   1.00
C600   C     0.52620   0.21071   0.95095   0.00000  Uiso   1.00
C601   C     0.55276   0.25558   0.51878   0.00000  Uiso   1.00
C602   C     0.44722   0.08010   0.98127   0.00000  Uiso   1.00
H603   H     0.45137   0.09691   0.61662   0.00000  Uiso   1.00
H604   H     0.55097   0.23726   0.88315   0.00000  Uiso   1.00
H605   H     0.57374   0.28983   0.53425   0.00000  Uiso   1.00
H606   H     0.42655   0.04580   0.96556   0.00000  Uiso   1.00
H607   H     0.33800   0.12713   0.71606   0.00000  Uiso   1.00
H608   H     0.66200   0.20618   0.78396   0.00000  Uiso   1.00
N609   N     0.65011   0.15265   0.73783   0.00000  Uiso   1.00
N610   N     0.34989   0.18068   0.76217   0.00000  Uiso   1.00
O611   O     0.46308   0.24619   0.75299   0.00000  Uiso   1.00
O612   O     0.53692   0.08714   0.74702   0.00000  Uiso   1.00
O613   O     0.55946   0.23721   0.74519   0.00000  Uiso   1.00
O614   O     0.44054   0.09613   0.75482   0.00000  Uiso   1.00
O615   O     0.45181   0.17117   0.81998   0.00000  Uiso   1.00
O616   O     0.54819   0.16216   0.68003   0.00000  Uiso   1.00
O617   O     0.54819   0.16219   0.81218   0.00000  Uiso   1.00
O618   O     0.45181   0.17115   0.68783   0.00000  Uiso   1.00
Zn619  Zn    0.43565   0.17266   0.75521   0.00000  Uiso   1.00
Zn620  Zn    0.56435   0.16067   0.74479   0.00000  Uiso   1.00
C621   C     0.55212   0.26170   0.61559   0.00000  Uiso   1.00
H622   H     0.54203   0.30113   0.60648   0.00000  Uiso   1.00
O623   O     0.58519   0.25732   0.64463   0.00000  Uiso   1.00
C624   C     0.44118   0.07732   0.88546   0.00000  Uiso   1.00
H625   H     0.45451   0.03738   0.88872   0.00000  Uiso   1.00
O626   O     0.40002   0.08453   0.86418   0.00000  Uiso   1.00
C627   C     0.57527   0.30489   0.94879   0.00000  Uiso   1.00
H628   H     0.61152   0.32799   0.96156   0.00000  Uiso   1.00
O629   O     0.55269   0.32209   0.91715   0.00000  Uiso   1.00
C630   C     0.42482   0.03043   0.55091   0.00000  Uiso   1.00
H631   H     0.38833   0.00776   0.53807   0.00000  Uiso   1.00
O632   O     0.44722   0.01271   0.58241   0.00000  Uiso   1.00
C633   C     0.58304   0.00502   0.78080   0.00000  Uiso   1.00
H634   H     0.62022   0.31993   0.76463   0.00000  Uiso   1.00
O635   O     0.59071   0.04009   0.80866   0.00000  Uiso   1.00
C636   C     0.41820   0.32946   0.79343   0.00000  Uiso   1.00
H637   H     0.38068   0.01473   0.78378   0.00000  Uiso   1.00
O638   O     0.41137   0.29494   0.82199   0.00000  Uiso   1.00
C639   C     0.84862   0.26465   0.75566   0.00000  Uiso   1.00
C640   C     0.81830   0.06880   0.75785   0.00000  Uiso   1.00
C641   C     0.88462   0.25576   0.97242   0.00000  Uiso   1.00
C642   C     0.78255   0.07957   0.52752   0.00000  Uiso   1.00
C643   C     0.85685   0.31859   0.77100   0.00000  Uiso   1.00
C644   C     0.81063   0.01543   0.77451   0.00000  Uiso   1.00
C645   C     0.83338   0.16557   0.83638   0.00000  Uiso   1.00
C646   C     0.83344   0.16872   0.66369   0.00000  Uiso   1.00
C647   C     0.80672   0.12766   0.59547   0.00000  Uiso   1.00
C648   C     0.86137   0.20707   0.90443   0.00000  Uiso   1.00
C649   C     0.83367   0.17080   0.61610   0.00000  Uiso   1.00
C650   C     0.83321   0.16439   0.88403   0.00000  Uiso   1.00
C651   C     0.86055   0.21425   0.59184   0.00000  Uiso   1.00
C652   C     0.80442   0.12226   0.90866   0.00000  Uiso   1.00
C653   C     0.86018   0.21313   0.54485   0.00000  Uiso   1.00
C654   C     0.80604   0.12279   0.95541   0.00000  Uiso   1.00
C655   C     0.83379   0.16828   0.52351   0.00000  Uiso   1.00
C656   C     0.83324   0.16724   0.97664   0.00000  Uiso   1.00
C657   C     0.80789   0.12452   0.54904   0.00000  Uiso   1.00
C658   C     0.85953   0.21071   0.95095   0.00000  Uiso   1.00
C659   C     0.88609   0.25558   0.51878   0.00000  Uiso   1.00
C660   C     0.78055   0.08010   0.98127   0.00000  Uiso   1.00
H661   H     0.78470   0.09691   0.61662   0.00000  Uiso   1.00
H662   H     0.88431   0.23726   0.88315   0.00000  Uiso   1.00
H663   H     0.90708   0.28983   0.53425   0.00000  Uiso   1.00
H664   H     0.75989   0.04580   0.96556   0.00000  Uiso   1.00
H665   H     0.67133   0.12713   0.71606   0.00000  Uiso   1.00
H666   H     0.99533   0.20618   0.78396   0.00000  Uiso   1.00
N667   N     0.98344   0.15265   0.73783   0.00000  Uiso   1.00
N668   N     0.68322   0.18068   0.76217   0.00000  Uiso   1.00
O669   O     0.79642   0.24619   0.75299   0.00000  Uiso   1.00
O670   O     0.87025   0.08714   0.74702   0.00000  Uiso   1.00
O671   O     0.89280   0.23721   0.74519   0.00000  Uiso   1.00
O672   O     0.77387   0.09613   0.75482   0.00000  Uiso   1.00
O673   O     0.78514   0.17117   0.81998   0.00000  Uiso   1.00
O674   O     0.88153   0.16216   0.68003   0.00000  Uiso   1.00
O675   O     0.88152   0.16219   0.81218   0.00000  Uiso   1.00
O676   O     0.78515   0.17115   0.68783   0.00000  Uiso   1.00
Zn677  Zn    0.76898   0.17266   0.75521   0.00000  Uiso   1.00
Zn678  Zn    0.89769   0.16067   0.74479   0.00000  Uiso   1.00
C679   C     0.88545   0.26170   0.61559   0.00000  Uiso   1.00
H680   H     0.87536   0.30113   0.60648   0.00000  Uiso   1.00
O681   O     0.91852   0.25732   0.64463   0.00000  Uiso   1.00
C682   C     0.77452   0.07732   0.88546   0.00000  Uiso   1.00
H683   H     0.78784   0.03738   0.88872   0.00000  Uiso   1.00
O684   O     0.73335   0.08453   0.86418   0.00000  Uiso   1.00
C685   C     0.90860   0.30489   0.94879   0.00000  Uiso   1.00
H686   H     0.94485   0.32799   0.96156   0.00000  Uiso   1.00
O687   O     0.88602   0.32209   0.91715   0.00000  Uiso   1.00
C688   C     0.75815   0.03043   0.55091   0.00000  Uiso   1.00
H689   H     0.72166   0.00776   0.53807   0.00000  Uiso   1.00
O690   O     0.78056   0.01271   0.58241   0.00000  Uiso   1.00
C691   C     0.91638   0.00502   0.78080   0.00000  Uiso   1.00
H692   H     0.95355   0.31993   0.76463   0.00000  Uiso   1.00
O693   O     0.92404   0.04009   0.80866   0.00000  Uiso   1.00
C694   C     0.75153   0.32946   0.79343   0.00000  Uiso   1.00
H695   H     0.71401   0.01473   0.78378   0.00000  Uiso   1.00
O696   O     0.74471   0.29494   0.82199   0.00000  Uiso   1.00
C697   C     0.18196   0.59799   0.75566   0.00000  Uiso   1.00
C698   C     0.15163   0.40214   0.75785   0.00000  Uiso   1.00
C699   C     0.21795   0.58910   0.97242   0.00000  Uiso   1.00
C700   C     0.11588   0.41291   0.52752   0.00000  Uiso   1.00
C701   C     0.19018   0.65193   0.77100   0.00000  Uiso   1.00
C702   C     0.14397   0.34877   0.77451   0.00000  Uiso   1.00
C703   C     0.16671   0.49890   0.83638   0.00000  Uiso   1.00
C704   C     0.16678   0.50206   0.66369   0.00000  Uiso   1.00
C705   C     0.14005   0.46100   0.59547   0.00000  Uiso   1.00
C706   C     0.19470   0.54041   0.90443   0.00000  Uiso   1.00
C707   C     0.16701   0.50413   0.61610   0.00000  Uiso   1.00
C708   C     0.16655   0.49772   0.88403   0.00000  Uiso   1.00
C709   C     0.19389   0.54758   0.59184   0.00000  Uiso   1.00
C710   C     0.13775   0.45560   0.90866   0.00000  Uiso   1.00
C711   C     0.19352   0.54646   0.54485   0.00000  Uiso   1.00
C712   C     0.13938   0.45613   0.95541   0.00000  Uiso   1.00
C713   C     0.16713   0.50161   0.52351   0.00000  Uiso   1.00
C714   C     0.16658   0.50057   0.97664   0.00000  Uiso   1.00
C715   C     0.14123   0.45785   0.54904   0.00000  Uiso   1.00
C716   C     0.19287   0.54404   0.95095   0.00000  Uiso   1.00
C717   C     0.21943   0.58892   0.51878   0.00000  Uiso   1.00
C718   C     0.11388   0.41343   0.98127   0.00000  Uiso   1.00
H719   H     0.11804   0.43024   0.61662   0.00000  Uiso   1.00
H720   H     0.21764   0.57059   0.88315   0.00000  Uiso   1.00
H721   H     0.24041   0.62317   0.53425   0.00000  Uiso   1.00
H722   H     0.09322   0.37914   0.96556   0.00000  Uiso   1.00
H723   H     0.00466   0.46047   0.71606   0.00000  Uiso   1.00
H724   H     0.32866   0.53951   0.78396   0.00000  Uiso   1.00
N725   N     0.31678   0.48598   0.73783   0.00000  Uiso   1.00
N726   N     0.01656   0.51402   0.76217   0.00000  Uiso   1.00
O727   O     0.12975   0.57952   0.75299   0.00000  Uiso   1.00
O728   O     0.20358   0.42048   0.74702   0.00000  Uiso   1.00
O729   O     0.22613   0.57054   0.74519   0.00000  Uiso   1.00
O730   O     0.10720   0.42946   0.75482   0.00000  Uiso   1.00
O731   O     0.11847   0.50450   0.81998   0.00000  Uiso   1.00
O732   O     0.21486   0.49550   0.68003   0.00000  Uiso   1.00
O733   O     0.21485   0.49552   0.81218   0.00000  Uiso   1.00
O734   O     0.11848   0.50448   0.68783   0.00000  Uiso   1.00
Zn735  Zn    0.10231   0.50600   0.75521   0.00000  Uiso   1.00
Zn736  Zn    0.23102   0.49400   0.74479   0.00000  Uiso   1.00
C737   C     0.21878   0.59503   0.61559   0.00000  Uiso   1.00
H738   H     0.20870   0.63446   0.60648   0.00000  Uiso   1.00
O739   O     0.25185   0.59065   0.64463   0.00000  Uiso   1.00
C740   C     0.10785   0.41065   0.88546   0.00000  Uiso   1.00
H741   H     0.12117   0.37072   0.88872   0.00000  Uiso   1.00
O742   O     0.06669   0.41786   0.86418   0.00000  Uiso   1.00
C743   C     0.24193   0.63822   0.94879   0.00000  Uiso   1.00
H744   H     0.27818   0.66132   0.96156   0.00000  Uiso   1.00
O745   O     0.21936   0.65543   0.91715   0.00000  Uiso   1.00
C746   C     0.09149   0.36376   0.55091   0.00000  Uiso   1.00
H747   H     0.05500   0.34109   0.53807   0.00000  Uiso   1.00
O748   O     0.11389   0.34604   0.58241   0.00000  Uiso   1.00
C749   C     0.24971   0.33836   0.78080   0.00000  Uiso   1.00
H750   H     0.28689   0.65327   0.76463   0.00000  Uiso   1.00
O751   O     0.25738   0.37343   0.80866   0.00000  Uiso   1.00
C752   C     0.08487   0.66279   0.79343   0.00000  Uiso   1.00
H753   H     0.04734   0.34806   0.78378   0.00000  Uiso   1.00
O754   O     0.07804   0.62828   0.82199   0.00000  Uiso   1.00
C755   C     0.51529   0.59799   0.75566   0.00000  Uiso   1.00
C756   C     0.48497   0.40214   0.75785   0.00000  Uiso   1.00
C757   C     0.55128   0.58910   0.97242   0.00000  Uiso   1.00
C758   C     0.44922   0.41291   0.52752   0.00000  Uiso   1.00
C759   C     0.52352   0.65193   0.77100   0.00000  Uiso   1.00
C760   C     0.47730   0.34877   0.77451   0.00000  Uiso   1.00
C761   C     0.50005   0.49890   0.83638   0.00000  Uiso   1.00
C762   C     0.50011   0.50206   0.66369   0.00000  Uiso   1.00
C763   C     0.47339   0.46100   0.59547   0.00000  Uiso   1.00
C764   C     0.52803   0.54041   0.90443   0.00000  Uiso   1.00
C765   C     0.50034   0.50413   0.61610   0.00000  Uiso   1.00
C766   C     0.49988   0.49772   0.88403   0.00000  Uiso   1.00
C767   C     0.52722   0.54758   0.59184   0.00000  Uiso   1.00
C768   C     0.47109   0.45560   0.90866   0.00000  Uiso   1.00
C769   C     0.52685   0.54646   0.54485   0.00000  Uiso   1.00
C770   C     0.47271   0.45613   0.95541   0.00000  Uiso   1.00
C771   C     0.50046   0.50161   0.52351   0.00000  Uiso   1.00
C772   C     0.49991   0.50057   0.97664   0.00000  Uiso   1.00
C773   C     0.47456   0.45785   0.54904   0.00000  Uiso   1.00
C774   C     0.52620   0.54404   0.95095   0.00000  Uiso   1.00
C775   C     0.55276   0.58892   0.51878   0.00000  Uiso   1.00
C776   C     0.44722   0.41343   0.98127   0.00000  Uiso   1.00
H777   H     0.45137   0.43024   0.61662   0.00000  Uiso   1.00
H778   H     0.55097   0.57059   0.88315   0.00000  Uiso   1.00
H779   H     0.57374   0.62317   0.53425   0.00000  Uiso   1.00
H780   H     0.42655   0.37914   0.96556   0.00000  Uiso   1.00
H781   H     0.33800   0.46047   0.71606   0.00000  Uiso   1.00
H782   H     0.66200   0.53951   0.78396   0.00000  Uiso   1.00
N783   N     0.65011   0.48598   0.73783   0.00000  Uiso   1.00
N784   N     0.34989   0.51402   0.76217   0.00000  Uiso   1.00
O785   O     0.46308   0.57952   0.75299   0.00000  Uiso   1.00
O786   O     0.53692   0.42048   0.74702   0.00000  Uiso   1.00
O787   O     0.55946   0.57054   0.74519   0.00000  Uiso   1.00
O788   O     0.44054   0.42946   0.75482   0.00000  Uiso   1.00
O789   O     0.45181   0.50450   0.81998   0.00000  Uiso   1.00
O790   O     0.54819   0.49550   0.68003   0.00000  Uiso   1.00
O791   O     0.54819   0.49552   0.81218   0.00000  Uiso   1.00
O792   O     0.45181   0.50448   0.68783   0.00000  Uiso   1.00
Zn793  Zn    0.43565   0.50600   0.75521   0.00000  Uiso   1.00
Zn794  Zn    0.56435   0.49400   0.74479   0.00000  Uiso   1.00
C795   C     0.55212   0.59503   0.61559   0.00000  Uiso   1.00
H796   H     0.54203   0.63446   0.60648   0.00000  Uiso   1.00
O797   O     0.58519   0.59065   0.64463   0.00000  Uiso   1.00
C798   C     0.44118   0.41065   0.88546   0.00000  Uiso   1.00
H799   H     0.45451   0.37072   0.88872   0.00000  Uiso   1.00
O800   O     0.40002   0.41786   0.86418   0.00000  Uiso   1.00
C801   C     0.57527   0.63822   0.94879   0.00000  Uiso   1.00
H802   H     0.61152   0.66132   0.96156   0.00000  Uiso   1.00
O803   O     0.55269   0.65543   0.91715   0.00000  Uiso   1.00
C804   C     0.42482   0.36376   0.55091   0.00000  Uiso   1.00
H805   H     0.38833   0.34109   0.53807   0.00000  Uiso   1.00
O806   O     0.44722   0.34604   0.58241   0.00000  Uiso   1.00
C807   C     0.58304   0.33836   0.78080   0.00000  Uiso   1.00
H808   H     0.62022   0.65327   0.76463   0.00000  Uiso   1.00
O809   O     0.59071   0.37343   0.80866   0.00000  Uiso   1.00
C810   C     0.41820   0.66279   0.79343   0.00000  Uiso   1.00
H811   H     0.38068   0.34806   0.78378   0.00000  Uiso   1.00
O812   O     0.41137   0.62828   0.82199   0.00000  Uiso   1.00
C813   C     0.84862   0.59799   0.75566   0.00000  Uiso   1.00
C814   C     0.81830   0.40214   0.75785   0.00000  Uiso   1.00
C815   C     0.88462   0.58910   0.97242   0.00000  Uiso   1.00
C816   C     0.78255   0.41291   0.52752   0.00000  Uiso   1.00
C817   C     0.85685   0.65193   0.77100   0.00000  Uiso   1.00
C818   C     0.81063   0.34877   0.77451   0.00000  Uiso   1.00
C819   C     0.83338   0.49890   0.83638   0.00000  Uiso   1.00
C820   C     0.83344   0.50206   0.66369   0.00000  Uiso   1.00
C821   C     0.80672   0.46100   0.59547   0.00000  Uiso   1.00
C822   C     0.86137   0.54041   0.90443   0.00000  Uiso   1.00
C823   C     0.83367   0.50413   0.61610   0.00000  Uiso   1.00
C824   C     0.83321   0.49772   0.88403   0.00000  Uiso   1.00
C825   C     0.86055   0.54758   0.59184   0.00000  Uiso   1.00
C826   C     0.80442   0.45560   0.90866   0.00000  Uiso   1.00
C827   C     0.86018   0.54646   0.54485   0.00000  Uiso   1.00
C828   C     0.80604   0.45613   0.95541   0.00000  Uiso   1.00
C829   C     0.83379   0.50161   0.52351   0.00000  Uiso   1.00
C830   C     0.83324   0.50057   0.97664   0.00000  Uiso   1.00
C831   C     0.80789   0.45785   0.54904   0.00000  Uiso   1.00
C832   C     0.85953   0.54404   0.95095   0.00000  Uiso   1.00
C833   C     0.88609   0.58892   0.51878   0.00000  Uiso   1.00
C834   C     0.78055   0.41343   0.98127   0.00000  Uiso   1.00
H835   H     0.78470   0.43024   0.61662   0.00000  Uiso   1.00
H836   H     0.88431   0.57059   0.88315   0.00000  Uiso   1.00
H837   H     0.90708   0.62317   0.53425   0.00000  Uiso   1.00
H838   H     0.75989   0.37914   0.96556   0.00000  Uiso   1.00
H839   H     0.67133   0.46047   0.71606   0.00000  Uiso   1.00
H840   H     0.99533   0.53951   0.78396   0.00000  Uiso   1.00
N841   N     0.98344   0.48598   0.73783   0.00000  Uiso   1.00
N842   N     0.68322   0.51402   0.76217   0.00000  Uiso   1.00
O843   O     0.79642   0.57952   0.75299   0.00000  Uiso   1.00
O844   O     0.87025   0.42048   0.74702   0.00000  Uiso   1.00
O845   O     0.89280   0.57054   0.74519   0.00000  Uiso   1.00
O846   O     0.77387   0.42946   0.75482   0.00000  Uiso   1.00
O847   O     0.78514   0.50450   0.81998   0.00000  Uiso   1.00
O848   O     0.88153   0.49550   0.68003   0.00000  Uiso   1.00
O849   O     0.88152   0.49552   0.81218   0.00000  Uiso   1.00
O850   O     0.78515   0.50448   0.68783   0.00000  Uiso   1.00
Zn851  Zn    0.76898   0.50600   0.75521   0.00000  Uiso   1.00
Zn852  Zn    0.89769   0.49400   0.74479   0.00000  Uiso   1.00
C853   C     0.88545   0.59503   0.61559   0.00000  Uiso   1.00
H854   H     0.87536   0.63446   0.60648   0.00000  Uiso   1.00
O855   O     0.91852   0.59065   0.64463   0.00000  Uiso   1.00
C856   C     0.77452   0.41065   0.88546   0.00000  Uiso   1.00
H857   H     0.78784   0.37072   0.88872   0.00000  Uiso   1.00
O858   O     0.73335   0.41786   0.86418   0.00000  Uiso   1.00
C859   C     0.90860   0.63822   0.94879   0.00000  Uiso   1.00
H860   H     0.94485   0.66132   0.96156   0.00000  Uiso   1.00
O861   O     0.88602   0.65543   0.91715   0.00000  Uiso   1.00
C862   C     0.75815   0.36376   0.55091   0.00000  Uiso   1.00
H863   H     0.72166   0.34109   0.53807   0.00000  Uiso   1.00
O864   O     0.78056   0.34604   0.58241   0.00000  Uiso   1.00
C865   C     0.91638   0.33836   0.78080   0.00000  Uiso   1.00
H866   H     0.95355   0.65327   0.76463   0.00000  Uiso   1.00
O867   O     0.92404   0.37343   0.80866   0.00000  Uiso   1.00
C868   C     0.75153   0.66279   0.79343   0.00000  Uiso   1.00
H869   H     0.71401   0.34806   0.78378   0.00000  Uiso   1.00
O870   O     0.74471   0.62828   0.82199   0.00000  Uiso   1.00
C871   C     0.18196   0.93132   0.75566   0.00000  Uiso   1.00
C872   C     0.15163   0.73547   0.75785   0.00000  Uiso   1.00
C873   C     0.21795   0.92243   0.97242   0.00000  Uiso   1.00
C874   C     0.11588   0.74624   0.52752   0.00000  Uiso   1.00
C875   C     0.19018   0.98526   0.77100   0.00000  Uiso   1.00
C876   C     0.14397   0.68210   0.77451   0.00000  Uiso   1.00
C877   C     0.16671   0.83223   0.83638   0.00000  Uiso   1.00
C878   C     0.16678   0.83539   0.66369   0.00000  Uiso   1.00
C879   C     0.14005   0.79433   0.59547   0.00000  Uiso   1.00
C880   C     0.19470   0.87374   0.90443   0.00000  Uiso   1.00
C881   C     0.16701   0.83747   0.61610   0.00000  Uiso   1.00
C882   C     0.16655   0.83106   0.88403   0.00000  Uiso   1.00
C883   C     0.19389   0.88091   0.59184   0.00000  Uiso   1.00
C884   C     0.13775   0.78893   0.90866   0.00000  Uiso   1.00
C885   C     0.19352   0.87980   0.54485   0.00000  Uiso   1.00
C886   C     0.13938   0.78946   0.95541   0.00000  Uiso   1.00
C887   C     0.16713   0.83494   0.52351   0.00000  Uiso   1.00
C888   C     0.16658   0.83391   0.97664   0.00000  Uiso   1.00
C889   C     0.14123   0.79119   0.54904   0.00000  Uiso   1.00
C890   C     0.19287   0.87737   0.95095   0.00000  Uiso   1.00
C891   C     0.21943   0.92225   0.51878   0.00000  Uiso   1.00
C892   C     0.11388   0.74677   0.98127   0.00000  Uiso   1.00
H893   H     0.11804   0.76358   0.61662   0.00000  Uiso   1.00
H894   H     0.21764   0.90393   0.88315   0.00000  Uiso   1.00
H895   H     0.24041   0.95650   0.53425   0.00000  Uiso   1.00
H896   H     0.09322   0.71247   0.96556   0.00000  Uiso   1.00
H897   H     0.00466   0.79380   0.71606   0.00000  Uiso   1.00
H898   H     0.32866   0.87284   0.78396   0.00000  Uiso   1.00
N899   N     0.31678   0.81932   0.73783   0.00000  Uiso   1.00
N900   N     0.01656   0.84735   0.76217   0.00000  Uiso   1.00
O901   O     0.12975   0.91286   0.75299   0.00000  Uiso   1.00
O902   O     0.20358   0.75381   0.74702   0.00000  Uiso   1.00
O903   O     0.22613   0.90387   0.74519   0.00000  Uiso   1.00
O904   O     0.10720   0.76279   0.75482   0.00000  Uiso   1.00
O905   O     0.11847   0.83784   0.81998   0.00000  Uiso   1.00
O906   O     0.21486   0.82883   0.68003   0.00000  Uiso   1.00
O907   O     0.21485   0.82885   0.81218   0.00000  Uiso   1.00
O908   O     0.11848   0.83781   0.68783   0.00000  Uiso   1.00
Zn909  Zn    0.10231   0.83933   0.75521   0.00000  Uiso   1.00
Zn910  Zn    0.23102   0.82734   0.74479   0.00000  Uiso   1.00
C911   C     0.21878   0.92836   0.61559   0.00000  Uiso   1.00
H912   H     0.20870   0.96779   0.60648   0.00000  Uiso   1.00
O913   O     0.25185   0.92399   0.64463   0.00000  Uiso   1.00
C914   C     0.10785   0.74398   0.88546   0.00000  Uiso   1.00
H915   H     0.12117   0.70405   0.88872   0.00000  Uiso   1.00
O916   O     0.06669   0.75119   0.86418   0.00000  Uiso   1.00
C917   C     0.24193   0.97155   0.94879   0.00000  Uiso   1.00
H918   H     0.27818   0.99466   0.96156   0.00000  Uiso   1.00
O919   O     0.21936   0.98876   0.91715   0.00000  Uiso   1.00
C920   C     0.09149   0.69710   0.55091   0.00000  Uiso   1.00
H921   H     0.05500   0.67442   0.53807   0.00000  Uiso   1.00
O922   O     0.11389   0.67937   0.58241   0.00000  Uiso   1.00
C923   C     0.24971   0.67169   0.78080   0.00000  Uiso   1.00
H924   H     0.28689   0.98660   0.76463   0.00000  Uiso   1.00
O925   O     0.25738   0.70676   0.80866   0.00000  Uiso   1.00
C926   C     0.08487   0.99613   0.79343   0.00000  Uiso   1.00
H927   H     0.04734   0.68140   0.78378   0.00000  Uiso   1.00
O928   O     0.07804   0.96161   0.82199   0.00000  Uiso   1.00
C929   C     0.51529   0.93132   0.75566   0.00000  Uiso   1.00
C930   C     0.48497   0.73547   0.75785   0.00000  Uiso   1.00
C931   C     0.55128   0.92243   0.97242   0.00000  Uiso   1.00
C932   C     0.44922   0.74624   0.52752   0.00000  Uiso   1.00
C933   C     0.52352   0.98526   0.77100   0.00000  Uiso   1.00
C934   C     0.47730   0.68210   0.77451   0.00000  Uiso   1.00
C935   C     0.50005   0.83223   0.83638   0.00000  Uiso   1.00
C936   C     0.50011   0.83539   0.66369   0.00000  Uiso   1.00
C937   C     0.47339   0.79433   0.59547   0.00000  Uiso   1.00
C938   C     0.52803   0.87374   0.90443   0.00000  Uiso   1.00
C939   C     0.50034   0.83747   0.61610   0.00000  Uiso   1.00
C940   C     0.49988   0.83106   0.88403   0.00000  Uiso   1.00
C941   C     0.52722   0.88091   0.59184   0.00000  Uiso   1.00
C942   C     0.47109   0.78893   0.90866   0.00000  Uiso   1.00
C943   C     0.52685   0.87980   0.54485   0.00000  Uiso   1.00
C944   C     0.47271   0.78946   0.95541   0.00000  Uiso   1.00
C945   C     0.50046   0.83494   0.52351   0.00000  Uiso   1.00
C946   C     0.49991   0.83391   0.97664   0.00000  Uiso   1.00
C947   C     0.47456   0.79119   0.54904   0.00000  Uiso   1.00
C948   C     0.52620   0.87737   0.95095   0.00000  Uiso   1.00
C949   C     0.55276   0.92225   0.51878   0.00000  Uiso   1.00
C950   C     0.44722   0.74677   0.98127   0.00000  Uiso   1.00
H951   H     0.45137   0.76358   0.61662   0.00000  Uiso   1.00
H952   H     0.55097   0.90393   0.88315   0.00000  Uiso   1.00
H953   H     0.57374   0.95650   0.53425   0.00000  Uiso   1.00
H954   H     0.42655   0.71247   0.96556   0.00000  Uiso   1.00
H955   H     0.33800   0.79380   0.71606   0.00000  Uiso   1.00
H956   H     0.66200   0.87284   0.78396   0.00000  Uiso   1.00
N957   N     0.65011   0.81932   0.73783   0.00000  Uiso   1.00
N958   N     0.34989   0.84735   0.76217   0.00000  Uiso   1.00
O959   O     0.46308   0.91286   0.75299   0.00000  Uiso   1.00
O960   O     0.53692   0.75381   0.74702   0.00000  Uiso   1.00
O961   O     0.55946   0.90387   0.74519   0.00000  Uiso   1.00
O962   O     0.44054   0.76279   0.75482   0.00000  Uiso   1.00
O963   O     0.45181   0.83784   0.81998   0.00000  Uiso   1.00
O964   O     0.54819   0.82883   0.68003   0.00000  Uiso   1.00
O965   O     0.54819   0.82885   0.81218   0.00000  Uiso   1.00
O966   O     0.45181   0.83781   0.68783   0.00000  Uiso   1.00
Zn967  Zn    0.43565   0.83933   0.75521   0.00000  Uiso   1.00
Zn968  Zn    0.56435   0.82734   0.74479   0.00000  Uiso   1.00
C969   C     0.55212   0.92836   0.61559   0.00000  Uiso   1.00
H970   H     0.54203   0.96779   0.60648   0.00000  Uiso   1.00
O971   O     0.58519   0.92399   0.64463   0.00000  Uiso   1.00
C972   C     0.44118   0.74398   0.88546   0.00000  Uiso   1.00
H973   H     0.45451   0.70405   0.88872   0.00000  Uiso   1.00
O974   O     0.40002   0.75119   0.86418   0.00000  Uiso   1.00
C975   C     0.57527   0.97155   0.94879   0.00000  Uiso   1.00
H976   H     0.61152   0.99466   0.96156   0.00000  Uiso   1.00
O977   O     0.55269   0.98876   0.91715   0.00000  Uiso   1.00
C978   C     0.42482   0.69710   0.55091   0.00000  Uiso   1.00
H979   H     0.38833   0.67442   0.53807   0.00000  Uiso   1.00
O980   O     0.44722   0.67937   0.58241   0.00000  Uiso   1.00
C981   C     0.58304   0.67169   0.78080   0.00000  Uiso   1.00
H982   H     0.62022   0.98660   0.76463   0.00000  Uiso   1.00
O983   O     0.59071   0.70676   0.80866   0.00000  Uiso   1.00
C984   C     0.41820   0.99613   0.79343   0.00000  Uiso   1.00
H985   H     0.38068   0.68140   0.78378   0.00000  Uiso   1.00
O986   O     0.41137   0.96161   0.82199   0.00000  Uiso   1.00
C987   C     0.84862   0.93132   0.75566   0.00000  Uiso   1.00
C988   C     0.81830   0.73547   0.75785   0.00000  Uiso   1.00
C989   C     0.88462   0.92243   0.97242   0.00000  Uiso   1.00
C990   C     0.78255   0.74624   0.52752   0.00000  Uiso   1.00
C991   C     0.85685   0.98526   0.77100   0.00000  Uiso   1.00
C992   C     0.81063   0.68210   0.77451   0.00000  Uiso   1.00
C993   C     0.83338   0.83223   0.83638   0.00000  Uiso   1.00
C994   C     0.83344   0.83539   0.66369   0.00000  Uiso   1.00
C995   C     0.80672   0.79433   0.59547   0.00000  Uiso   1.00
C996   C     0.86137   0.87374   0.90443   0.00000  Uiso   1.00
C997   C     0.83367   0.83747   0.61610   0.00000  Uiso   1.00
C998   C     0.83321   0.83106   0.88403   0.00000  Uiso   1.00
C999   C     0.86055   0.88091   0.59184   0.00000  Uiso   1.00
C1000  C     0.80442   0.78893   0.90866   0.00000  Uiso   1.00
C1001  C     0.86018   0.87980   0.54485   0.00000  Uiso   1.00
C1002  C     0.80604   0.78946   0.95541   0.00000  Uiso   1.00
C1003  C     0.83379   0.83494   0.52351   0.00000  Uiso   1.00
C1004  C     0.83324   0.83391   0.97664   0.00000  Uiso   1.00
C1005  C     0.80789   0.79119   0.54904   0.00000  Uiso   1.00
C1006  C     0.85953   0.87737   0.95095   0.00000  Uiso   1.00
C1007  C     0.88609   0.92225   0.51878   0.00000  Uiso   1.00
C1008  C     0.78055   0.74677   0.98127   0.00000  Uiso   1.00
H1009  H     0.78470   0.76358   0.61662   0.00000  Uiso   1.00
H1010  H     0.88431   0.90393   0.88315   0.00000  Uiso   1.00
H1011  H     0.90708   0.95650   0.53425   0.00000  Uiso   1.00
H1012  H     0.75989   0.71247   0.96556   0.00000  Uiso   1.00
H1013  H     0.67133   0.79380   0.71606   0.00000  Uiso   1.00
H1014  H     0.99533   0.87284   0.78396   0.00000  Uiso   1.00
N1015  N     0.98344   0.81932   0.73783   0.00000  Uiso   1.00
N1016  N     0.68322   0.84735   0.76217   0.00000  Uiso   1.00
O1017  O     0.79642   0.91286   0.75299   0.00000  Uiso   1.00
O1018  O     0.87025   0.75381   0.74702   0.00000  Uiso   1.00
O1019  O     0.89280   0.90387   0.74519   0.00000  Uiso   1.00
O1020  O     0.77387   0.76279   0.75482   0.00000  Uiso   1.00
O1021  O     0.78514   0.83784   0.81998   0.00000  Uiso   1.00
O1022  O     0.88153   0.82883   0.68003   0.00000  Uiso   1.00
O1023  O     0.88152   0.82885   0.81218   0.00000  Uiso   1.00
O1024  O     0.78515   0.83781   0.68783   0.00000  Uiso   1.00
Zn1025 Zn    0.76898   0.83933   0.75521   0.00000  Uiso   1.00
Zn1026 Zn    0.89769   0.82734   0.74479   0.00000  Uiso   1.00
C1027  C     0.88545   0.92836   0.61559   0.00000  Uiso   1.00
H1028  H     0.87536   0.96779   0.60648   0.00000  Uiso   1.00
O1029  O     0.91852   0.92399   0.64463   0.00000  Uiso   1.00
C1030  C     0.77452   0.74398   0.88546   0.00000  Uiso   1.00
H1031  H     0.78784   0.70405   0.88872   0.00000  Uiso   1.00
O1032  O     0.73335   0.75119   0.86418   0.00000  Uiso   1.00
C1033  C     0.90860   0.97155   0.94879   0.00000  Uiso   1.00
H1034  H     0.94485   0.99466   0.96156   0.00000  Uiso   1.00
O1035  O     0.88602   0.98876   0.91715   0.00000  Uiso   1.00
C1036  C     0.75815   0.69710   0.55091   0.00000  Uiso   1.00
H1037  H     0.72166   0.67442   0.53807   0.00000  Uiso   1.00
O1038  O     0.78056   0.67937   0.58241   0.00000  Uiso   1.00
C1039  C     0.91638   0.67169   0.78080   0.00000  Uiso   1.00
H1040  H     0.95355   0.98660   0.76463   0.00000  Uiso   1.00
O1041  O     0.92404   0.70676   0.80866   0.00000  Uiso   1.00
C1042  C     0.75153   0.99613   0.79343   0.00000  Uiso   1.00
H1043  H     0.71401   0.68140   0.78378   0.00000  Uiso   1.00
O1044  O     0.74471   0.96161   0.82199   0.00000  Uiso   1.00
loop_
_geom_bond_atom_site_label_1
_geom_bond_atom_site_label_2
_geom_bond_distance
_geom_bond_site_symmetry_2
_ccdc_geom_bond_type
C1     O31     1.280   .     A
C1     O33     1.294   .     A
C1     C5      1.438   .     S
C2     O34     1.294   .     A
C2     C6      1.439   .     S
C2     O32     1.280   .     A
C3     C20     1.414   .     A
C3     C47     1.487   .     S
C3     C543    1.388   .     S
C4     C50     1.487   .     S
C4     C19     1.416   .     A
C4     C544    1.386   1_554 S
C5     C180    1.358   .     S
C5     C227    1.491   .     S
C6     C353    1.358   1_545 S
C6     C404    1.493   1_545 S
C7     O37     1.287   .     A
C7     C12     1.424   .     S
C7     O35     1.281   .     A
C8     O38     1.286   .     A
C8     C11     1.423   .     S
C8     O36     1.281   .     A
C9     C11     1.384   .     A
C9     H23     1.081   .     S
C9     C19     1.386   .     A
C10    C20     1.388   .     A
C10    C12     1.385   .     A
C10    H24     1.081   .     S
C11    C13     1.404   .     A
C12    C14     1.400   .     A
C13    C15     1.404   .     A
C13    C41     1.493   .     S
C14    C16     1.400   .     A
C14    C44     1.485   .     S
C15    C17     1.421   .     A
C15    C21     1.405   .     A
C16    C18     1.420   .     A
C16    C22     1.403   .     A
C17    C19     1.421   .     A
C17    C540    1.401   1_554 S
C18    C20     1.421   .     A
C18    C539    1.401   .     S
C21    H25     1.082   .     S
C21    C525    1.388   1_554 S
C22    H26     1.083   .     S
C22    C526    1.386   .     S
H27    N145    1.029   1_455 S
H28    N88     1.029   .     S
N29    Zn40    2.013   .     S
N29    H85     1.029   .     S
N29    N88     1.277   .     S
N30    Zn39    2.013   .     S
N30    N145    1.277   1_455 S
N30    H144    1.029   1_455 S
O31    Zn39    1.923   .     S
O32    Zn40    1.923   .     S
O33    Zn40    1.946   .     S
O34    Zn39    1.946   .     S
O35    Zn39    2.004   .     S
O36    Zn40    2.004   .     S
O37    Zn40    2.015   .     S
O38    Zn39    2.015   .     S
C41    H42     1.084   .     S
C41    O43     1.220   .     D
C44    H45     1.085   .     S
C44    O46     1.220   .     D
C47    H48     1.086   .     S
C47    O49     1.221   .     D
C50    O52     1.220   .     D
C50    H51     1.086   .     S
C53    O55     1.222   .     D
C53    C353    1.491   1_545 S
C53    H402    1.084   1_545 S
H54    C227    1.084   .     S
C56    O58     1.222   .     D
C56    C180    1.493   .     S
C56    H231    1.083   .     S
H57    C404    1.083   1_545 S
C59    O89     1.280   .     A
C59    O91     1.294   .     A
C59    C63     1.438   .     S
C60    O92     1.294   .     A
C60    C64     1.439   .     S
C60    O90     1.280   .     A
C61    C78     1.414   .     A
C61    C105    1.487   .     S
C61    C601    1.388   .     S
C62    C108    1.487   .     S
C62    C77     1.416   .     A
C62    C602    1.386   1_554 S
C63    C238    1.358   .     S
C63    C285    1.491   .     S
C64    C411    1.358   1_545 S
C64    C462    1.493   1_545 S
C65    O95     1.287   .     A
C65    C70     1.424   .     S
C65    O93     1.281   .     A
C66    O96     1.286   .     A
C66    C69     1.423   .     S
C66    O94     1.281   .     A
C67    C69     1.384   .     A
C67    H81     1.081   .     S
C67    C77     1.386   .     A
C68    C78     1.388   .     A
C68    C70     1.385   .     A
C68    H82     1.081   .     S
C69    C71     1.404   .     A
C70    C72     1.400   .     A
C71    C73     1.404   .     A
C71    C99     1.493   .     S
C72    C74     1.400   .     A
C72    C102    1.485   .     S
C73    C75     1.421   .     A
C73    C79     1.405   .     A
C74    C76     1.420   .     A
C74    C80     1.403   .     A
C75    C77     1.421   .     A
C75    C598    1.401   1_554 S
C76    C78     1.421   .     A
C76    C597    1.401   .     S
C79    H83     1.082   .     S
C79    C583    1.388   1_554 S
C80    H84     1.083   .     S
C80    C584    1.386   .     S
H86    N146    1.029   .     S
N87    Zn98    2.013   .     S
N87    H143    1.029   .     S
N87    N146    1.277   .     S
N88    Zn97    2.013   .     S
O89    Zn97    1.923   .     S
O90    Zn98    1.923   .     S
O91    Zn98    1.946   .     S
O92    Zn97    1.946   .     S
O93    Zn97    2.004   .     S
O94    Zn98    2.004   .     S
O95    Zn98    2.015   .     S
O96    Zn97    2.015   .     S
C99    H100    1.084   .     S
C99    O101    1.220   .     D
C102   H103    1.085   .     S
C102   O104    1.220   .     D
C105   H106    1.086   .     S
C105   O107    1.221   .     D
C108   O110    1.220   .     D
C108   H109    1.086   .     S
C111   O113    1.222   .     D
C111   C411    1.491   1_545 S
C111   H460    1.084   1_545 S
H112   C285    1.084   .     S
C114   O116    1.222   .     D
C114   C238    1.493   .     S
C114   H289    1.083   .     S
H115   C462    1.083   1_545 S
C117   O147    1.280   .     A
C117   O149    1.294   .     A
C117   C121    1.438   .     S
C118   O150    1.294   .     A
C118   C122    1.439   .     S
C118   O148    1.280   .     A
C119   C136    1.414   .     A
C119   C163    1.487   .     S
C119   C659    1.388   .     S
C120   C166    1.487   .     S
C120   C135    1.416   .     A
C120   C660    1.386   1_554 S
C121   C296    1.358   .     S
C121   C343    1.491   .     S
C122   C469    1.358   1_545 S
C122   C520    1.493   1_545 S
C123   O153    1.287   .     A
C123   C128    1.424   .     S
C123   O151    1.281   .     A
C124   O154    1.286   .     A
C124   C127    1.423   .     S
C124   O152    1.281   .     A
C125   C127    1.384   .     A
C125   H139    1.081   .     S
C125   C135    1.386   .     A
C126   C136    1.388   .     A
C126   C128    1.385   .     A
C126   H140    1.081   .     S
C127   C129    1.404   .     A
C128   C130    1.400   .     A
C129   C131    1.404   .     A
C129   C157    1.493   .     S
C130   C132    1.400   .     A
C130   C160    1.485   .     S
C131   C133    1.421   .     A
C131   C137    1.405   .     A
C132   C134    1.420   .     A
C132   C138    1.403   .     A
C133   C135    1.421   .     A
C133   C656    1.401   1_554 S
C134   C136    1.421   .     A
C134   C655    1.401   .     S
C137   H141    1.082   .     S
C137   C641    1.388   1_554 S
C138   H142    1.083   .     S
C138   C642    1.386   .     S
H144   N30     1.029   1_655 S
N145   Zn156   2.013   .     S
N145   H27     1.029   1_655 S
N145   N30     1.277   1_655 S
N146   Zn155   2.013   .     S
O147   Zn155   1.923   .     S
O148   Zn156   1.923   .     S
O149   Zn156   1.946   .     S
O150   Zn155   1.946   .     S
O151   Zn155   2.004   .     S
O152   Zn156   2.004   .     S
O153   Zn156   2.015   .     S
O154   Zn155   2.015   .     S
C157   H158    1.084   .     S
C157   O159    1.220   .     D
C160   H161    1.085   .     S
C160   O162    1.220   .     D
C163   H164    1.086   .     S
C163   O165    1.221   .     D
C166   O168    1.220   .     D
C166   H167    1.086   .     S
C169   O171    1.222   .     D
C169   C469    1.491   1_545 S
C169   H518    1.084   1_545 S
H170   C343    1.084   .     S
C172   O174    1.222   .     D
C172   C296    1.493   .     S
C172   H347    1.083   .     S
H173   C520    1.083   1_545 S
C175   O205    1.280   .     A
C175   O207    1.294   .     A
C175   C179    1.438   .     S
C176   O208    1.294   .     A
C176   C180    1.439   .     S
C176   O206    1.280   .     A
C177   C194    1.414   .     A
C177   C221    1.487   .     S
C177   C717    1.388   .     S
C178   C224    1.487   .     S
C178   C193    1.416   .     A
C178   C718    1.386   1_554 S
C179   C354    1.358   .     S
C179   C401    1.491   .     S
C181   O211    1.287   .     A
C181   C186    1.424   .     S
C181   O209    1.281   .     A
C182   O212    1.286   .     A
C182   C185    1.423   .     S
C182   O210    1.281   .     A
C183   C185    1.384   .     A
C183   H197    1.081   .     S
C183   C193    1.386   .     A
C184   C194    1.388   .     A
C184   C186    1.385   .     A
C184   H198    1.081   .     S
C185   C187    1.404   .     A
C186   C188    1.400   .     A
C187   C189    1.404   .     A
C187   C215    1.493   .     S
C188   C190    1.400   .     A
C188   C218    1.485   .     S
C189   C191    1.421   .     A
C189   C195    1.405   .     A
C190   C192    1.420   .     A
C190   C196    1.403   .     A
C191   C193    1.421   .     A
C191   C714    1.401   1_554 S
C192   C194    1.421   .     A
C192   C713    1.401   .     S
C195   H199    1.082   .     S
C195   C699    1.388   1_554 S
C196   H200    1.083   .     S
C196   C700    1.386   .     S
H201   N319    1.029   1_455 S
H202   N262    1.029   .     S
N203   Zn214   2.013   .     S
N203   H259    1.029   .     S
N203   N262    1.277   .     S
N204   Zn213   2.013   .     S
N204   N319    1.277   1_455 S
N204   H318    1.029   1_455 S
O205   Zn213   1.923   .     S
O206   Zn214   1.923   .     S
O207   Zn214   1.946   .     S
O208   Zn213   1.946   .     S
O209   Zn213   2.004   .     S
O210   Zn214   2.004   .     S
O211   Zn214   2.015   .     S
O212   Zn213   2.015   .     S
C215   H216    1.084   .     S
C215   O217    1.220   .     D
C218   H219    1.085   .     S
C218   O220    1.220   .     D
C221   H222    1.086   .     S
C221   O223    1.221   .     D
C224   O226    1.220   .     D
C224   H225    1.086   .     S
C227   O229    1.222   .     D
H228   C401    1.084   .     S
C230   O232    1.222   .     D
C230   C354    1.493   .     S
C230   H405    1.083   .     S
C233   O263    1.280   .     A
C233   O265    1.294   .     A
C233   C237    1.438   .     S
C234   O266    1.294   .     A
C234   C238    1.439   .     S
C234   O264    1.280   .     A
C235   C252    1.414   .     A
C235   C279    1.487   .     S
C235   C775    1.388   .     S
C236   C282    1.487   .     S
C236   C251    1.416   .     A
C236   C776    1.386   1_554 S
C237   C412    1.358   .     S
C237   C459    1.491   .     S
C239   O269    1.287   .     A
C239   C244    1.424   .     S
C239   O267    1.281   .     A
C240   O270    1.286   .     A
C240   C243    1.423   .     S
C240   O268    1.281   .     A
C241   C243    1.384   .     A
C241   H255    1.081   .     S
C241   C251    1.386   .     A
C242   C252    1.388   .     A
C242   C244    1.385   .     A
C242   H256    1.081   .     S
C243   C245    1.404   .     A
C244   C246    1.400   .     A
C245   C247    1.404   .     A
C245   C273    1.493   .     S
C246   C248    1.400   .     A
C246   C276    1.485   .     S
C247   C249    1.421   .     A
C247   C253    1.405   .     A
C248   C250    1.420   .     A
C248   C254    1.403   .     A
C249   C251    1.421   .     A
C249   C772    1.401   1_554 S
C250   C252    1.421   .     A
C250   C771    1.401   .     S
C253   H257    1.082   .     S
C253   C757    1.388   1_554 S
C254   H258    1.083   .     S
C254   C758    1.386   .     S
H260   N320    1.029   .     S
N261   Zn272   2.013   .     S
N261   H317    1.029   .     S
N261   N320    1.277   .     S
N262   Zn271   2.013   .     S
O263   Zn271   1.923   .     S
O264   Zn272   1.923   .     S
O265   Zn272   1.946   .     S
O266   Zn271   1.946   .     S
O267   Zn271   2.004   .     S
O268   Zn272   2.004   .     S
O269   Zn272   2.015   .     S
O270   Zn271   2.015   .     S
C273   H274    1.084   .     S
C273   O275    1.220   .     D
C276   H277    1.085   .     S
C276   O278    1.220   .     D
C279   H280    1.086   .     S
C279   O281    1.221   .     D
C282   O284    1.220   .     D
C282   H283    1.086   .     S
C285   O287    1.222   .     D
H286   C459    1.084   .     S
C288   O290    1.222   .     D
C288   C412    1.493   .     S
C288   H463    1.083   .     S
C291   O321    1.280   .     A
C291   O323    1.294   .     A
C291   C295    1.438   .     S
C292   O324    1.294   .     A
C292   C296    1.439   .     S
C292   O322    1.280   .     A
C293   C310    1.414   .     A
C293   C337    1.487   .     S
C293   C833    1.388   .     S
C294   C340    1.487   .     S
C294   C309    1.416   .     A
C294   C834    1.386   1_554 S
C295   C470    1.358   .     S
C295   C517    1.491   .     S
C297   O327    1.287   .     A
C297   C302    1.424   .     S
C297   O325    1.281   .     A
C298   O328    1.286   .     A
C298   C301    1.423   .     S
C298   O326    1.281   .     A
C299   C301    1.384   .     A
C299   H313    1.081   .     S
C299   C309    1.386   .     A
C300   C310    1.388   .     A
C300   C302    1.385   .     A
C300   H314    1.081   .     S
C301   C303    1.404   .     A
C302   C304    1.400   .     A
C303   C305    1.404   .     A
C303   C331    1.493   .     S
C304   C306    1.400   .     A
C304   C334    1.485   .     S
C305   C307    1.421   .     A
C305   C311    1.405   .     A
C306   C308    1.420   .     A
C306   C312    1.403   .     A
C307   C309    1.421   .     A
C307   C830    1.401   1_554 S
C308   C310    1.421   .     A
C308   C829    1.401   .     S
C311   H315    1.082   .     S
C311   C815    1.388   1_554 S
C312   H316    1.083   .     S
C312   C816    1.386   .     S
H318   N204    1.029   1_655 S
N319   Zn330   2.013   .     S
N319   H201    1.029   1_655 S
N319   N204    1.277   1_655 S
N320   Zn329   2.013   .     S
O321   Zn329   1.923   .     S
O322   Zn330   1.923   .     S
O323   Zn330   1.946   .     S
O324   Zn329   1.946   .     S
O325   Zn329   2.004   .     S
O326   Zn330   2.004   .     S
O327   Zn330   2.015   .     S
O328   Zn329   2.015   .     S
C331   H332    1.084   .     S
C331   O333    1.220   .     D
C334   H335    1.085   .     S
C334   O336    1.220   .     D
C337   H338    1.086   .     S
C337   O339    1.221   .     D
C340   O342    1.220   .     D
C340   H341    1.086   .     S
C343   O345    1.222   .     D
H344   C517    1.084   .     S
C346   O348    1.222   .     D
C346   C470    1.493   .     S
C346   H521    1.083   .     S
C349   O379    1.280   .     A
C349   O381    1.294   .     A
C349   C353    1.438   .     S
C350   O382    1.294   .     A
C350   C354    1.439   .     S
C350   O380    1.280   .     A
C351   C368    1.414   .     A
C351   C395    1.487   .     S
C351   C891    1.388   .     S
C352   C398    1.487   .     S
C352   C367    1.416   .     A
C352   C892    1.386   1_554 S
C353   C6      1.358   1_565 S
C353   C53     1.491   1_565 S
C355   O385    1.287   .     A
C355   C360    1.424   .     S
C355   O383    1.281   .     A
C356   O386    1.286   .     A
C356   C359    1.423   .     S
C356   O384    1.281   .     A
C357   C359    1.384   .     A
C357   H371    1.081   .     S
C357   C367    1.386   .     A
C358   C368    1.388   .     A
C358   C360    1.385   .     A
C358   H372    1.081   .     S
C359   C361    1.404   .     A
C360   C362    1.400   .     A
C361   C363    1.404   .     A
C361   C389    1.493   .     S
C362   C364    1.400   .     A
C362   C392    1.485   .     S
C363   C365    1.421   .     A
C363   C369    1.405   .     A
C364   C366    1.420   .     A
C364   C370    1.403   .     A
C365   C367    1.421   .     A
C365   C888    1.401   1_554 S
C366   C368    1.421   .     A
C366   C887    1.401   .     S
C369   H373    1.082   .     S
C369   C873    1.388   1_554 S
C370   H374    1.083   .     S
C370   C874    1.386   .     S
H375   N493    1.029   1_455 S
H376   N436    1.029   .     S
N377   Zn388   2.013   .     S
N377   H433    1.029   .     S
N377   N436    1.277   .     S
N378   Zn387   2.013   .     S
N378   N493    1.277   1_455 S
N378   H492    1.029   1_455 S
O379   Zn387   1.923   .     S
O380   Zn388   1.923   .     S
O381   Zn388   1.946   .     S
O382   Zn387   1.946   .     S
O383   Zn387   2.004   .     S
O384   Zn388   2.004   .     S
O385   Zn388   2.015   .     S
O386   Zn387   2.015   .     S
C389   H390    1.084   .     S
C389   O391    1.220   .     D
C392   H393    1.085   .     S
C392   O394    1.220   .     D
C395   H396    1.086   .     S
C395   O397    1.221   .     D
C398   O400    1.220   .     D
C398   H399    1.086   .     S
C401   O403    1.222   .     D
H402   C53     1.084   1_565 S
C404   O406    1.222   .     D
C404   C6      1.493   1_565 S
C404   H57     1.083   1_565 S
C407   O437    1.280   .     A
C407   O439    1.294   .     A
C407   C411    1.438   .     S
C408   O440    1.294   .     A
C408   C412    1.439   .     S
C408   O438    1.280   .     A
C409   C426    1.414   .     A
C409   C453    1.487   .     S
C409   C949    1.388   .     S
C410   C456    1.487   .     S
C410   C425    1.416   .     A
C410   C950    1.386   1_554 S
C411   C64     1.358   1_565 S
C411   C111    1.491   1_565 S
C413   O443    1.287   .     A
C413   C418    1.424   .     S
C413   O441    1.281   .     A
C414   O444    1.286   .     A
C414   C417    1.423   .     S
C414   O442    1.281   .     A
C415   C417    1.384   .     A
C415   H429    1.081   .     S
C415   C425    1.386   .     A
C416   C426    1.388   .     A
C416   C418    1.385   .     A
C416   H430    1.081   .     S
C417   C419    1.404   .     A
C418   C420    1.400   .     A
C419   C421    1.404   .     A
C419   C447    1.493   .     S
C420   C422    1.400   .     A
C420   C450    1.485   .     S
C421   C423    1.421   .     A
C421   C427    1.405   .     A
C422   C424    1.420   .     A
C422   C428    1.403   .     A
C423   C425    1.421   .     A
C423   C946    1.401   1_554 S
C424   C426    1.421   .     A
C424   C945    1.401   .     S
C427   H431    1.082   .     S
C427   C931    1.388   1_554 S
C428   H432    1.083   .     S
C428   C932    1.386   .     S
H434   N494    1.029   .     S
N435   Zn446   2.013   .     S
N435   H491    1.029   .     S
N435   N494    1.277   .     S
N436   Zn445   2.013   .     S
O437   Zn445   1.923   .     S
O438   Zn446   1.923   .     S
O439   Zn446   1.946   .     S
O440   Zn445   1.946   .     S
O441   Zn445   2.004   .     S
O442   Zn446   2.004   .     S
O443   Zn446   2.015   .     S
O444   Zn445   2.015   .     S
C447   H448    1.084   .     S
C447   O449    1.220   .     D
C450   H451    1.085   .     S
C450   O452    1.220   .     D
C453   H454    1.086   .     S
C453   O455    1.221   .     D
C456   O458    1.220   .     D
C456   H457    1.086   .     S
C459   O461    1.222   .     D
H460   C111    1.084   1_565 S
C462   O464    1.222   .     D
C462   C64     1.493   1_565 S
C462   H115    1.083   1_565 S
C465   O495    1.280   .     A
C465   O497    1.294   .     A
C465   C469    1.438   .     S
C466   O498    1.294   .     A
C466   C470    1.439   .     S
C466   O496    1.280   .     A
C467   C484    1.414   .     A
C467   C511    1.487   .     S
C467   C1007   1.388   .     S
C468   C514    1.487   .     S
C468   C483    1.416   .     A
C468   C1008   1.386   1_554 S
C469   C122    1.358   1_565 S
C469   C169    1.491   1_565 S
C471   O501    1.287   .     A
C471   C476    1.424   .     S
C471   O499    1.281   .     A
C472   O502    1.286   .     A
C472   C475    1.423   .     S
C472   O500    1.281   .     A
C473   C475    1.384   .     A
C473   H487    1.081   .     S
C473   C483    1.386   .     A
C474   C484    1.388   .     A
C474   C476    1.385   .     A
C474   H488    1.081   .     S
C475   C477    1.404   .     A
C476   C478    1.400   .     A
C477   C479    1.404   .     A
C477   C505    1.493   .     S
C478   C480    1.400   .     A
C478   C508    1.485   .     S
C479   C481    1.421   .     A
C479   C485    1.405   .     A
C480   C482    1.420   .     A
C480   C486    1.403   .     A
C481   C483    1.421   .     A
C481   C1004   1.401   1_554 S
C482   C484    1.421   .     A
C482   C1003   1.401   .     S
C485   H489    1.082   .     S
C485   C989    1.388   1_554 S
C486   H490    1.083   .     S
C486   C990    1.386   .     S
H492   N378    1.029   1_655 S
N493   Zn504   2.013   .     S
N493   H375    1.029   1_655 S
N493   N378    1.277   1_655 S
N494   Zn503   2.013   .     S
O495   Zn503   1.923   .     S
O496   Zn504   1.923   .     S
O497   Zn504   1.946   .     S
O498   Zn503   1.946   .     S
O499   Zn503   2.004   .     S
O500   Zn504   2.004   .     S
O501   Zn504   2.015   .     S
O502   Zn503   2.015   .     S
C505   H506    1.084   .     S
C505   O507    1.220   .     D
C508   H509    1.085   .     S
C508   O510    1.220   .     D
C511   H512    1.086   .     S
C511   O513    1.221   .     D
C514   O516    1.220   .     D
C514   H515    1.086   .     S
C517   O519    1.222   .     D
H518   C169    1.084   1_565 S
C520   O522    1.222   .     D
C520   C122    1.493   1_565 S
C520   H173    1.083   1_565 S
C523   O553    1.280   .     A
C523   O555    1.294   .     A
C523   C527    1.438   .     S
C524   O556    1.294   .     A
C524   C528    1.439   .     S
C524   O554    1.280   .     A
C525   C542    1.414   .     A
C525   C569    1.487   .     S
C525   C21     1.388   1_556 S
C526   C572    1.487   .     S
C526   C541    1.416   .     A
C527   C702    1.358   .     S
C527   C749    1.491   .     S
C528   C875    1.358   1_545 S
C528   C926    1.493   1_545 S
C529   O559    1.287   .     A
C529   C534    1.424   .     S
C529   O557    1.281   .     A
C530   O560    1.286   .     A
C530   C533    1.423   .     S
C530   O558    1.281   .     A
C531   C533    1.384   .     A
C531   H545    1.081   .     S
C531   C541    1.386   .     A
C532   C542    1.388   .     A
C532   C534    1.385   .     A
C532   H546    1.081   .     S
C533   C535    1.404   .     A
C534   C536    1.400   .     A
C535   C537    1.404   .     A
C535   C563    1.493   .     S
C536   C538    1.400   .     A
C536   C566    1.485   .     S
C537   C539    1.421   .     A
C537   C543    1.405   .     A
C538   C540    1.420   .     A
C538   C544    1.403   .     A
C539   C541    1.421   .     A
C540   C542    1.421   .     A
C540   C17     1.401   1_556 S
C543   H547    1.082   .     S
C544   H548    1.083   .     S
C544   C4      1.386   1_556 S
H549   N667    1.029   1_455 S
H550   N610    1.029   .     S
N551   Zn562   2.013   .     S
N551   H607    1.029   .     S
N551   N610    1.277   .     S
N552   Zn561   2.013   .     S
N552   N667    1.277   1_455 S
N552   H666    1.029   1_455 S
O553   Zn561   1.923   .     S
O554   Zn562   1.923   .     S
O555   Zn562   1.946   .     S
O556   Zn561   1.946   .     S
O557   Zn561   2.004   .     S
O558   Zn562   2.004   .     S
O559   Zn562   2.015   .     S
O560   Zn561   2.015   .     S
C563   H564    1.084   .     S
C563   O565    1.220   .     D
C566   H567    1.085   .     S
C566   O568    1.220   .     D
C569   H570    1.086   .     S
C569   O571    1.221   .     D
C572   O574    1.220   .     D
C572   H573    1.086   .     S
C575   O577    1.222   .     D
C575   C875    1.491   1_545 S
C575   H924    1.084   1_545 S
H576   C749    1.084   .     S
C578   O580    1.222   .     D
C578   C702    1.493   .     S
C578   H753    1.083   .     S
H579   C926    1.083   1_545 S
C581   O611    1.280   .     A
C581   O613    1.294   .     A
C581   C585    1.438   .     S
C582   O614    1.294   .     A
C582   C586    1.439   .     S
C582   O612    1.280   .     A
C583   C600    1.414   .     A
C583   C627    1.487   .     S
C583   C79     1.388   1_556 S
C584   C630    1.487   .     S
C584   C599    1.416   .     A
C585   C760    1.358   .     S
C585   C807    1.491   .     S
C586   C933    1.358   1_545 S
C586   C984    1.493   1_545 S
C587   O617    1.287   .     A
C587   C592    1.424   .     S
C587   O615    1.281   .     A
C588   O618    1.286   .     A
C588   C591    1.423   .     S
C588   O616    1.281   .     A
C589   C591    1.384   .     A
C589   H603    1.081   .     S
C589   C599    1.386   .     A
C590   C600    1.388   .     A
C590   C592    1.385   .     A
C590   H604    1.081   .     S
C591   C593    1.404   .     A
C592   C594    1.400   .     A
C593   C595    1.404   .     A
C593   C621    1.493   .     S
C594   C596    1.400   .     A
C594   C624    1.485   .     S
C595   C597    1.421   .     A
C595   C601    1.405   .     A
C596   C598    1.420   .     A
C596   C602    1.403   .     A
C597   C599    1.421   .     A
C598   C600    1.421   .     A
C598   C75     1.401   1_556 S
C601   H605    1.082   .     S
C602   H606    1.083   .     S
C602   C62     1.386   1_556 S
H608   N668    1.029   .     S
N609   Zn620   2.013   .     S
N609   H665    1.029   .     S
N609   N668    1.277   .     S
N610   Zn619   2.013   .     S
O611   Zn619   1.923   .     S
O612   Zn620   1.923   .     S
O613   Zn620   1.946   .     S
O614   Zn619   1.946   .     S
O615   Zn619   2.004   .     S
O616   Zn620   2.004   .     S
O617   Zn620   2.015   .     S
O618   Zn619   2.015   .     S
C621   H622    1.084   .     S
C621   O623    1.220   .     D
C624   H625    1.085   .     S
C624   O626    1.220   .     D
C627   H628    1.086   .     S
C627   O629    1.221   .     D
C630   O632    1.220   .     D
C630   H631    1.086   .     S
C633   O635    1.222   .     D
C633   C933    1.491   1_545 S
C633   H982    1.084   1_545 S
H634   C807    1.084   .     S
C636   O638    1.222   .     D
C636   C760    1.493   .     S
C636   H811    1.083   .     S
H637   C984    1.083   1_545 S
C639   O669    1.280   .     A
C639   O671    1.294   .     A
C639   C643    1.438   .     S
C640   O672    1.294   .     A
C640   C644    1.439   .     S
C640   O670    1.280   .     A
C641   C658    1.414   .     A
C641   C685    1.487   .     S
C641   C137    1.388   1_556 S
C642   C688    1.487   .     S
C642   C657    1.416   .     A
C643   C818    1.358   .     S
C643   C865    1.491   .     S
C644   C991    1.358   1_545 S
C644   C1042   1.493   1_545 S
C645   O675    1.287   .     A
C645   C650    1.424   .     S
C645   O673    1.281   .     A
C646   O676    1.286   .     A
C646   C649    1.423   .     S
C646   O674    1.281   .     A
C647   C649    1.384   .     A
C647   H661    1.081   .     S
C647   C657    1.386   .     A
C648   C658    1.388   .     A
C648   C650    1.385   .     A
C648   H662    1.081   .     S
C649   C651    1.404   .     A
C650   C652    1.400   .     A
C651   C653    1.404   .     A
C651   C679    1.493   .     S
C652   C654    1.400   .     A
C652   C682    1.485   .     S
C653   C655    1.421   .     A
C653   C659    1.405   .     A
C654   C656    1.420   .     A
C654   C660    1.403   .     A
C655   C657    1.421   .     A
C656   C658    1.421   .     A
C656   C133    1.401   1_556 S
C659   H663    1.082   .     S
C660   H664    1.083   .     S
C660   C120    1.386   1_556 S
H666   N552    1.029   1_655 S
N667   Zn678   2.013   .     S
N667   H549    1.029   1_655 S
N667   N552    1.277   1_655 S
N668   Zn677   2.013   .     S
O669   Zn677   1.923   .     S
O670   Zn678   1.923   .     S
O671   Zn678   1.946   .     S
O672   Zn677   1.946   .     S
O673   Zn677   2.004   .     S
O674   Zn678   2.004   .     S
O675   Zn678   2.015   .     S
O676   Zn677   2.015   .     S
C679   H680    1.084   .     S
C679   O681    1.220   .     D
C682   H683    1.085   .     S
C682   O684    1.220   .     D
C685   H686    1.086   .     S
C685   O687    1.221   .     D
C688   O690    1.220   .     D
C688   H689    1.086   .     S
C691   O693    1.222   .     D
C691   C991    1.491   1_545 S
C691   H1040   1.084   1_545 S
H692   C865    1.084   .     S
C694   O696    1.222   .     D
C694   C818    1.493   .     S
C694   H869    1.083   .     S
H695   C1042   1.083   1_545 S
C697   O727    1.280   .     A
C697   O729    1.294   .     A
C697   C701    1.438   .     S
C698   O730    1.294   .     A
C698   C702    1.439   .     S
C698   O728    1.280   .     A
C699   C716    1.414   .     A
C699   C743    1.487   .     S
C699   C195    1.388   1_556 S
C700   C746    1.487   .     S
C700   C715    1.416   .     A
C701   C876    1.358   .     S
C701   C923    1.491   .     S
C703   O733    1.287   .     A
C703   C708    1.424   .     S
C703   O731    1.281   .     A
C704   O734    1.286   .     A
C704   C707    1.423   .     S
C704   O732    1.281   .     A
C705   C707    1.384   .     A
C705   H719    1.081   .     S
C705   C715    1.386   .     A
C706   C716    1.388   .     A
C706   C708    1.385   .     A
C706   H720    1.081   .     S
C707   C709    1.404   .     A
C708   C710    1.400   .     A
C709   C711    1.404   .     A
C709   C737    1.493   .     S
C710   C712    1.400   .     A
C710   C740    1.485   .     S
C711   C713    1.421   .     A
C711   C717    1.405   .     A
C712   C714    1.420   .     A
C712   C718    1.403   .     A
C713   C715    1.421   .     A
C714   C716    1.421   .     A
C714   C191    1.401   1_556 S
C717   H721    1.082   .     S
C718   H722    1.083   .     S
C718   C178    1.386   1_556 S
H723   N841    1.029   1_455 S
H724   N784    1.029   .     S
N725   Zn736   2.013   .     S
N725   H781    1.029   .     S
N725   N784    1.277   .     S
N726   Zn735   2.013   .     S
N726   N841    1.277   1_455 S
N726   H840    1.029   1_455 S
O727   Zn735   1.923   .     S
O728   Zn736   1.923   .     S
O729   Zn736   1.946   .     S
O730   Zn735   1.946   .     S
O731   Zn735   2.004   .     S
O732   Zn736   2.004   .     S
O733   Zn736   2.015   .     S
O734   Zn735   2.015   .     S
C737   H738    1.084   .     S
C737   O739    1.220   .     D
C740   H741    1.085   .     S
C740   O742    1.220   .     D
C743   H744    1.086   .     S
C743   O745    1.221   .     D
C746   O748    1.220   .     D
C746   H747    1.086   .     S
C749   O751    1.222   .     D
H750   C923    1.084   .     S
C752   O754    1.222   .     D
C752   C876    1.493   .     S
C752   H927    1.083   .     S
C755   O785    1.280   .     A
C755   O787    1.294   .     A
C755   C759    1.438   .     S
C756   O788    1.294   .     A
C756   C760    1.439   .     S
C756   O786    1.280   .     A
C757   C774    1.414   .     A
C757   C801    1.487   .     S
C757   C253    1.388   1_556 S
C758   C804    1.487   .     S
C758   C773    1.416   .     A
C759   C934    1.358   .     S
C759   C981    1.491   .     S
C761   O791    1.287   .     A
C761   C766    1.424   .     S
C761   O789    1.281   .     A
C762   O792    1.286   .     A
C762   C765    1.423   .     S
C762   O790    1.281   .     A
C763   C765    1.384   .     A
C763   H777    1.081   .     S
C763   C773    1.386   .     A
C764   C774    1.388   .     A
C764   C766    1.385   .     A
C764   H778    1.081   .     S
C765   C767    1.404   .     A
C766   C768    1.400   .     A
C767   C769    1.404   .     A
C767   C795    1.493   .     S
C768   C770    1.400   .     A
C768   C798    1.485   .     S
C769   C771    1.421   .     A
C769   C775    1.405   .     A
C770   C772    1.420   .     A
C770   C776    1.403   .     A
C771   C773    1.421   .     A
C772   C774    1.421   .     A
C772   C249    1.401   1_556 S
C775   H779    1.082   .     S
C776   H780    1.083   .     S
C776   C236    1.386   1_556 S
H782   N842    1.029   .     S
N783   Zn794   2.013   .     S
N783   H839    1.029   .     S
N783   N842    1.277   .     S
N784   Zn793   2.013   .     S
O785   Zn793   1.923   .     S
O786   Zn794   1.923   .     S
O787   Zn794   1.946   .     S
O788   Zn793   1.946   .     S
O789   Zn793   2.004   .     S
O790   Zn794   2.004   .     S
O791   Zn794   2.015   .     S
O792   Zn793   2.015   .     S
C795   H796    1.084   .     S
C795   O797    1.220   .     D
C798   H799    1.085   .     S
C798   O800    1.220   .     D
C801   H802    1.086   .     S
C801   O803    1.221   .     D
C804   O806    1.220   .     D
C804   H805    1.086   .     S
C807   O809    1.222   .     D
H808   C981    1.084   .     S
C810   O812    1.222   .     D
C810   C934    1.493   .     S
C810   H985    1.083   .     S
C813   O843    1.280   .     A
C813   O845    1.294   .     A
C813   C817    1.438   .     S
C814   O846    1.294   .     A
C814   C818    1.439   .     S
C814   O844    1.280   .     A
C815   C832    1.414   .     A
C815   C859    1.487   .     S
C815   C311    1.388   1_556 S
C816   C862    1.487   .     S
C816   C831    1.416   .     A
C817   C992    1.358   .     S
C817   C1039   1.491   .     S
C819   O849    1.287   .     A
C819   C824    1.424   .     S
C819   O847    1.281   .     A
C820   O850    1.286   .     A
C820   C823    1.423   .     S
C820   O848    1.281   .     A
C821   C823    1.384   .     A
C821   H835    1.081   .     S
C821   C831    1.386   .     A
C822   C832    1.388   .     A
C822   C824    1.385   .     A
C822   H836    1.081   .     S
C823   C825    1.404   .     A
C824   C826    1.400   .     A
C825   C827    1.404   .     A
C825   C853    1.493   .     S
C826   C828    1.400   .     A
C826   C856    1.485   .     S
C827   C829    1.421   .     A
C827   C833    1.405   .     A
C828   C830    1.420   .     A
C828   C834    1.403   .     A
C829   C831    1.421   .     A
C830   C832    1.421   .     A
C830   C307    1.401   1_556 S
C833   H837    1.082   .     S
C834   H838    1.083   .     S
C834   C294    1.386   1_556 S
H840   N726    1.029   1_655 S
N841   Zn852   2.013   .     S
N841   H723    1.029   1_655 S
N841   N726    1.277   1_655 S
N842   Zn851   2.013   .     S
O843   Zn851   1.923   .     S
O844   Zn852   1.923   .     S
O845   Zn852   1.946   .     S
O846   Zn851   1.946   .     S
O847   Zn851   2.004   .     S
O848   Zn852   2.004   .     S
O849   Zn852   2.015   .     S
O850   Zn851   2.015   .     S
C853   H854    1.084   .     S
C853   O855    1.220   .     D
C856   H857    1.085   .     S
C856   O858    1.220   .     D
C859   H860    1.086   .     S
C859   O861    1.221   .     D
C862   O864    1.220   .     D
C862   H863    1.086   .     S
C865   O867    1.222   .     D
H866   C1039   1.084   .     S
C868   O870    1.222   .     D
C868   C992    1.493   .     S
C868   H1043   1.083   .     S
C871   O901    1.280   .     A
C871   O903    1.294   .     A
C871   C875    1.438   .     S
C872   O904    1.294   .     A
C872   C876    1.439   .     S
C872   O902    1.280   .     A
C873   C890    1.414   .     A
C873   C917    1.487   .     S
C873   C369    1.388   1_556 S
C874   C920    1.487   .     S
C874   C889    1.416   .     A
C875   C528    1.358   1_565 S
C875   C575    1.491   1_565 S
C877   O907    1.287   .     A
C877   C882    1.424   .     S
C877   O905    1.281   .     A
C878   O908    1.286   .     A
C878   C881    1.423   .     S
C878   O906    1.281   .     A
C879   C881    1.384   .     A
C879   H893    1.081   .     S
C879   C889    1.386   .     A
C880   C890    1.388   .     A
C880   C882    1.385   .     A
C880   H894    1.081   .     S
C881   C883    1.404   .     A
C882   C884    1.400   .     A
C883   C885    1.404   .     A
C883   C911    1.493   .     S
C884   C886    1.400   .     A
C884   C914    1.485   .     S
C885   C887    1.421   .     A
C885   C891    1.405   .     A
C886   C888    1.420   .     A
C886   C892    1.403   .     A
C887   C889    1.421   .     A
C888   C890    1.421   .     A
C888   C365    1.401   1_556 S
C891   H895    1.082   .     S
C892   H896    1.083   .     S
C892   C352    1.386   1_556 S
H897   N1015   1.029   1_455 S
H898   N958    1.029   .     S
N899   Zn910   2.013   .     S
N899   H955    1.029   .     S
N899   N958    1.277   .     S
N900   Zn909   2.013   .     S
N900   N1015   1.277   1_455 S
N900   H1014   1.029   1_455 S
O901   Zn909   1.923   .     S
O902   Zn910   1.923   .     S
O903   Zn910   1.946   .     S
O904   Zn909   1.946   .     S
O905   Zn909   2.004   .     S
O906   Zn910   2.004   .     S
O907   Zn910   2.015   .     S
O908   Zn909   2.015   .     S
C911   H912    1.084   .     S
C911   O913    1.220   .     D
C914   H915    1.085   .     S
C914   O916    1.220   .     D
C917   H918    1.086   .     S
C917   O919    1.221   .     D
C920   O922    1.220   .     D
C920   H921    1.086   .     S
C923   O925    1.222   .     D
H924   C575    1.084   1_565 S
C926   O928    1.222   .     D
C926   C528    1.493   1_565 S
C926   H579    1.083   1_565 S
C929   O959    1.280   .     A
C929   O961    1.294   .     A
C929   C933    1.438   .     S
C930   O962    1.294   .     A
C930   C934    1.439   .     S
C930   O960    1.280   .     A
C931   C948    1.414   .     A
C931   C975    1.487   .     S
C931   C427    1.388   1_556 S
C932   C978    1.487   .     S
C932   C947    1.416   .     A
C933   C586    1.358   1_565 S
C933   C633    1.491   1_565 S
C935   O965    1.287   .     A
C935   C940    1.424   .     S
C935   O963    1.281   .     A
C936   O966    1.286   .     A
C936   C939    1.423   .     S
C936   O964    1.281   .     A
C937   C939    1.384   .     A
C937   H951    1.081   .     S
C937   C947    1.386   .     A
C938   C948    1.388   .     A
C938   C940    1.385   .     A
C938   H952    1.081   .     S
C939   C941    1.404   .     A
C940   C942    1.400   .     A
C941   C943    1.404   .     A
C941   C969    1.493   .     S
C942   C944    1.400   .     A
C942   C972    1.485   .     S
C943   C945    1.421   .     A
C943   C949    1.405   .     A
C944   C946    1.420   .     A
C944   C950    1.403   .     A
C945   C947    1.421   .     A
C946   C948    1.421   .     A
C946   C423    1.401   1_556 S
C949   H953    1.082   .     S
C950   H954    1.083   .     S
C950   C410    1.386   1_556 S
H956   N1016   1.029   .     S
N957   Zn968   2.013   .     S
N957   H1013   1.029   .     S
N957   N1016   1.277   .     S
N958   Zn967   2.013   .     S
O959   Zn967   1.923   .     S
O960   Zn968   1.923   .     S
O961   Zn968   1.946   .     S
O962   Zn967   1.946   .     S
O963   Zn967   2.004   .     S
O964   Zn968   2.004   .     S
O965   Zn968   2.015   .     S
O966   Zn967   2.015   .     S
C969   H970    1.084   .     S
C969   O971    1.220   .     D
C972   H973    1.085   .     S
C972   O974    1.220   .     D
C975   H976    1.086   .     S
C975   O977    1.221   .     D
C978   O980    1.220   .     D
C978   H979    1.086   .     S
C981   O983    1.222   .     D
H982   C633    1.084   1_565 S
C984   O986    1.222   .     D
C984   C586    1.493   1_565 S
C984   H637    1.083   1_565 S
C987   O1017   1.280   .     A
C987   O1019   1.294   .     A
C987   C991    1.438   .     S
C988   O1020   1.294   .     A
C988   C992    1.439   .     S
C988   O1018   1.280   .     A
C989   C1006   1.414   .     A
C989   C1033   1.487   .     S
C989   C485    1.388   1_556 S
C990   C1036   1.487   .     S
C990   C1005   1.416   .     A
C991   C644    1.358   1_565 S
C991   C691    1.491   1_565 S
C993   O1023   1.287   .     A
C993   C998    1.424   .     S
C993   O1021   1.281   .     A
C994   O1024   1.286   .     A
C994   C997    1.423   .     S
C994   O1022   1.281   .     A
C995   C997    1.384   .     A
C995   H1009   1.081   .     S
C995   C1005   1.386   .     A
C996   C1006   1.388   .     A
C996   C998    1.385   .     A
C996   H1010   1.081   .     S
C997   C999    1.404   .     A
C998   C1000   1.400   .     A
C999   C1001   1.404   .     A
C999   C1027   1.493   .     S
C1000  C1002   1.400   .     A
C1000  C1030   1.485   .     S
C1001  C1003   1.421   .     A
C1001  C1007   1.405   .     A
C1002  C1004   1.420   .     A
C1002  C1008   1.403   .     A
C1003  C1005   1.421   .     A
C1004  C1006   1.421   .     A
C1004  C481    1.401   1_556 S
C1007  H1011   1.082   .     S
C1008  H1012   1.083   .     S
C1008  C468    1.386   1_556 S
H1014  N900    1.029   1_655 S
N1015  Zn1026  2.013   .     S
N1015  H897    1.029   1_655 S
N1015  N900    1.277   1_655 S
N1016  Zn1025  2.013   .     S
O1017  Zn1025  1.923   .     S
O1018  Zn1026  1.923   .     S
O1019  Zn1026  1.946   .     S
O1020  Zn1025  1.946   .     S
O1021  Zn1025  2.004   .     S
O1022  Zn1026  2.004   .     S
O1023  Zn1026  2.015   .     S
O1024  Zn1025  2.015   .     S
C1027  H1028   1.084   .     S
C1027  O1029   1.220   .     D
C1030  H1031   1.085   .     S
C1030  O1032   1.220   .     D
C1033  H1034   1.086   .     S
C1033  O1035   1.221   .     D
C1036  O1038   1.220   .     D
C1036  H1037   1.086   .     S
C1039  O1041   1.222   .     D
H1040  C691    1.084   1_565 S
C1042  O1044   1.222   .     D
C1042  C644    1.493   1_565 S
C1042  H695    1.083   1_565 S
